data_mof_unit_62564.cif
_audit_creation_date              2012-12-10T19:05:18-0500
_audit_creation_method            fapswitch 2.2
_symmetry_space_group_name_H-M    P1
_symmetry_Int_Tables_number       1
_space_group_crystal_system       triclinic
_cell_length_a                    30.218276
_cell_length_b                    30.218276
_cell_length_c                    57.480227
_cell_angle_alpha                 89.98017
_cell_angle_beta                  89.98017
_cell_angle_gamma                 90.033362
_cell_volume                      52487.7209646

loop_
_atom_site_label
_atom_site_type_symbol
_atom_type_description
_atom_site_fract_x
_atom_site_fract_y
_atom_site_fract_z
_atom_type_partial_charge
C1    C     C_R   0.500004 0.913880 0.500099 0.919186
C2    C     C_R   0.086120 0.499996 0.499901 0.919186
C3    C     C_R   0.499997 0.086120 0.500103 0.919233
C4    C     C_R   0.913880 0.500003 0.499897 0.919233
C5    C     C_R   0.000004 0.413880 0.000099 0.919186
C6    C     C_R   0.586120 0.999996 0.999901 0.919186
C7    C     C_R   0.999997 0.586120 0.000103 0.919233
C8    C     C_R   0.413880 0.000003 0.999897 0.919233
C9    C     C_R   0.533949 0.021941 0.608330 0.004483
C10   C     C_R   0.976667 0.532873 0.608364 0.004799
C11   C     C_R   0.466156 0.977798 0.608356 0.004519
C12   C     C_R   0.023231 0.467062 0.608373 0.004742
C13   C     C_R   0.532938 0.976769 0.391627 0.004742
C14   C     C_R   0.978059 0.466051 0.391670 0.004483
C15   C     C_R   0.467127 0.023333 0.391636 0.004799
C16   C     C_R   0.022202 0.533843 0.391644 0.004519
C17   C     C_R   0.033949 0.521941 0.108330 0.004484
C18   C     C_R   0.476667 0.032873 0.108364 0.004799
C19   C     C_R   0.966156 0.477798 0.108355 0.004519
C20   C     C_R   0.523231 0.967062 0.108373 0.004742
C21   C     C_R   0.032938 0.476769 0.891627 0.004742
C22   C     C_R   0.478059 0.966051 0.891670 0.004484
C23   C     C_R   0.967127 0.523333 0.891636 0.004799
C24   C     C_R   0.522202 0.033843 0.891644 0.004519
C25   C     C_R   0.533458 0.019437 0.583867 -0.271612
C26   C     C_R   0.978999 0.532489 0.583884 -0.271672
C27   C     C_R   0.466536 0.980458 0.583891 -0.271683
C28   C     C_R   0.020948 0.467465 0.583892 -0.271822
C29   C     C_R   0.532535 0.979052 0.416108 -0.271822
C30   C     C_R   0.980563 0.466542 0.416133 -0.271612
C31   C     C_R   0.467511 0.021001 0.416116 -0.271671
C32   C     C_R   0.019542 0.533464 0.416109 -0.271683
C33   C     C_R   0.033458 0.519437 0.083867 -0.271612
C34   C     C_R   0.478999 0.032489 0.083884 -0.271672
C35   C     C_R   0.966536 0.480458 0.083891 -0.271683
C36   C     C_R   0.520948 0.967465 0.083892 -0.271823
C37   C     C_R   0.032535 0.479052 0.916108 -0.271823
C38   C     C_R   0.480563 0.966542 0.916133 -0.271612
C39   C     C_R   0.967511 0.521001 0.916115 -0.271672
C40   C     C_R   0.519542 0.033464 0.916109 -0.271683
C41   C     C_R   0.499977 0.999974 0.572057 -0.050306
C42   C     C_R   0.999986 0.499981 0.572060 -0.048086
C43   C     C_R   0.500018 0.000014 0.427940 -0.048086
C44   C     C_R   0.000026 0.500023 0.427943 -0.050306
C45   C     C_R   0.999977 0.499974 0.072057 -0.050306
C46   C     C_R   0.499986 0.999981 0.072060 -0.048086
C47   C     C_R   0.000018 0.500014 0.927940 -0.048086
C48   C     C_R   0.500026 0.000023 0.927943 -0.050306
C49   C     C_R   0.414532 0.499921 0.500015 0.838720
C50   C     C_R   0.499912 0.414532 0.499991 0.838741
C51   C     C_R   0.585468 0.500088 0.500009 0.838741
C52   C     C_R   0.500079 0.585468 0.499984 0.838720
C53   C     C_R   0.914532 0.999921 0.000016 0.838720
C54   C     C_R   0.999912 0.914532 0.999991 0.838741
C55   C     C_R   0.085468 0.000088 0.000009 0.838741
C56   C     C_R   0.000079 0.085468 0.999984 0.838720
C57   C     C_R   0.500074 0.999845 0.623377 0.120275
C58   C     C_R   0.999936 0.499963 0.623425 0.119814
C59   C     C_R   0.500037 0.000064 0.376575 0.119814
C60   C     C_R   0.000155 0.499926 0.376623 0.120275
C61   C     C_R   0.000074 0.499845 0.123377 0.120275
C62   C     C_R   0.499936 0.999963 0.123425 0.119814
C63   C     C_R   0.000037 0.500064 0.876575 0.119814
C64   C     C_R   0.500155 0.999926 0.876622 0.120275
C65   C     C_R   0.480799 0.797486 0.481088 0.495684
C66   C     C_R   0.202716 0.479796 0.481436 0.497192
C67   C     C_R   0.519212 0.202539 0.481094 0.495692
C68   C     C_R   0.797305 0.520152 0.481405 0.497235
C69   C     C_R   0.479848 0.202694 0.518594 0.497235
C70   C     C_R   0.202514 0.519201 0.518911 0.495684
C71   C     C_R   0.520204 0.797284 0.518564 0.497192
C72   C     C_R   0.797461 0.480788 0.518906 0.495692
C73   C     C_R   0.980799 0.297486 0.981089 0.495681
C74   C     C_R   0.702716 0.979796 0.981436 0.497191
C75   C     C_R   0.019211 0.702539 0.981094 0.495691
C76   C     C_R   0.297305 0.020152 0.981406 0.497236
C77   C     C_R   0.979847 0.702694 0.018594 0.497236
C78   C     C_R   0.702514 0.019201 0.018911 0.495681
C79   C     C_R   0.020204 0.297284 0.018564 0.497191
C80   C     C_R   0.297461 0.980788 0.018906 0.495691
C81   C     C_R   0.479115 0.843216 0.482070 -0.250891
C82   C     C_R   0.156978 0.478837 0.482098 -0.251828
C83   C     C_R   0.520888 0.156807 0.482071 -0.250891
C84   C     C_R   0.843042 0.521117 0.482068 -0.251852
C85   C     C_R   0.478883 0.156958 0.517932 -0.251852
C86   C     C_R   0.156783 0.520885 0.517930 -0.250891
C87   C     C_R   0.521163 0.843021 0.517902 -0.251828
C88   C     C_R   0.843192 0.479112 0.517929 -0.250891
C89   C     C_R   0.979115 0.343216 0.982070 -0.250890
C90   C     C_R   0.656978 0.978837 0.982098 -0.251827
C91   C     C_R   0.020888 0.656807 0.982071 -0.250890
C92   C     C_R   0.343042 0.021117 0.982068 -0.251851
C93   C     C_R   0.978883 0.656958 0.017932 -0.251852
C94   C     C_R   0.656783 0.020885 0.017930 -0.250890
C95   C     C_R   0.021163 0.343021 0.017902 -0.251827
C96   C     C_R   0.343192 0.979112 0.017929 -0.250890
C97   C     C_R   0.499982 0.865935 0.500065 -0.183295
C98   C     C_R   0.134065 0.500018 0.499935 -0.183295
C99   C     C_R   0.500030 0.134066 0.500076 -0.183274
C100  C     C_R   0.865934 0.499970 0.499924 -0.183274
C101  C     C_R   0.999982 0.365935 0.000065 -0.183295
C102  C     C_R   0.634065 0.000018 0.999935 -0.183295
C103  C     C_R   0.000030 0.634066 0.000076 -0.183274
C104  C     C_R   0.365934 0.999970 0.999924 -0.183274
C105  C     C_R   0.500596 0.773721 0.499753 -0.161035
C106  C     C_R   0.226278 0.499404 0.500247 -0.161035
C107  C     C_R   0.499432 0.226280 0.499770 -0.161038
C108  C     C_R   0.773720 0.500568 0.500230 -0.161038
C109  C     C_R   0.000596 0.273721 0.999753 -0.161034
C110  C     C_R   0.726279 0.999404 0.000247 -0.161034
C111  C     C_R   0.999432 0.726280 0.999769 -0.161038
C112  C     C_R   0.273720 0.000568 0.000230 -0.161038
C113  C     C_R   0.538567 0.700976 0.506217 -0.122584
C114  C     C_R   0.298857 0.537466 0.506961 -0.122499
C115  C     C_R   0.461446 0.299006 0.506242 -0.122517
C116  C     C_R   0.701129 0.462528 0.506969 -0.122590
C117  C     C_R   0.537472 0.298871 0.493030 -0.122590
C118  C     C_R   0.299024 0.461433 0.493783 -0.122584
C119  C     C_R   0.462534 0.701143 0.493039 -0.122499
C120  C     C_R   0.700993 0.538554 0.493758 -0.122517
C121  C     C_R   0.038567 0.200976 0.006217 -0.122584
C122  C     C_R   0.798856 0.037465 0.006961 -0.122499
C123  C     C_R   0.961446 0.799006 0.006242 -0.122518
C124  C     C_R   0.201129 0.962528 0.006970 -0.122590
C125  C     C_R   0.037472 0.798870 0.993030 -0.122590
C126  C     C_R   0.799024 0.961433 0.993783 -0.122584
C127  C     C_R   0.962534 0.201143 0.993039 -0.122499
C128  C     C_R   0.200993 0.038554 0.993758 -0.122518
C129  C     C_R   0.499990 0.999986 0.546628 0.883411
C130  C     C_R   0.000004 0.499993 0.546634 0.883659
C131  C     C_R   0.500007 0.999996 0.453366 0.883660
C132  C     C_R   0.000014 0.500010 0.453371 0.883412
C133  C     C_R   0.999990 0.499986 0.046628 0.883411
C134  C     C_R   0.500004 0.999993 0.046634 0.883659
C135  C     C_R   0.000007 0.499996 0.953366 0.883660
C136  C     C_R   0.500014 0.000010 0.953372 0.883412
C137  C     C_R   0.537094 0.655388 0.507861 -0.220846
C138  C     C_R   0.344475 0.536339 0.508326 -0.219273
C139  C     C_R   0.462911 0.344592 0.507890 -0.220911
C140  C     C_R   0.655509 0.463660 0.508326 -0.219216
C141  C     C_R   0.536340 0.344491 0.491674 -0.219216
C142  C     C_R   0.344612 0.462906 0.492138 -0.220846
C143  C     C_R   0.463661 0.655524 0.491674 -0.219273
C144  C     C_R   0.655408 0.537089 0.492110 -0.220911
C145  C     C_R   0.037094 0.155388 0.007862 -0.220848
C146  C     C_R   0.844475 0.036338 0.008326 -0.219273
C147  C     C_R   0.962911 0.844592 0.007890 -0.220910
C148  C     C_R   0.155509 0.963660 0.008326 -0.219216
C149  C     C_R   0.036340 0.844491 0.991674 -0.219216
C150  C     C_R   0.844612 0.962906 0.992138 -0.220848
C151  C     C_R   0.963661 0.155525 0.991673 -0.219273
C152  C     C_R   0.155408 0.037089 0.992109 -0.220910
C153  C     C_R   0.500227 0.632815 0.499913 0.004562
C154  C     C_R   0.367185 0.499773 0.500087 0.004562
C155  C     C_R   0.499775 0.367183 0.499932 0.004536
C156  C     C_R   0.632817 0.500225 0.500068 0.004536
C157  C     C_R   0.000227 0.132815 0.999913 0.004562
C158  C     C_R   0.867185 0.999773 0.000087 0.004562
C159  C     C_R   0.999775 0.867183 0.999932 0.004536
C160  C     C_R   0.132817 0.000225 0.000068 0.004536
C161  C     C_R   0.500597 0.724554 0.499638 0.104300
C162  C     C_R   0.275446 0.499403 0.500362 0.104300
C163  C     C_R   0.499419 0.275445 0.499647 0.104328
C164  C     C_R   0.724554 0.500581 0.500352 0.104328
C165  C     C_R   0.000597 0.224554 0.999638 0.104300
C166  C     C_R   0.775446 0.999403 0.000362 0.104300
C167  C     C_R   0.999418 0.775446 0.999648 0.104328
C168  C     C_R   0.224554 0.000581 0.000352 0.104328
C169  C     C_R   0.472436 0.971244 0.737657 0.029605
C170  C     C_R   0.028756 0.472516 0.737652 0.029582
C171  C     C_R   0.527708 0.028592 0.737619 0.029764
C172  C     C_R   0.971196 0.527478 0.737654 0.029553
C173  C     C_R   0.472522 0.028804 0.262346 0.029553
C174  C     C_R   0.028755 0.527564 0.262343 0.029605
C175  C     C_R   0.527484 0.971244 0.262348 0.029582
C176  C     C_R   0.971408 0.472292 0.262381 0.029764
C177  C     C_R   0.972436 0.471244 0.237657 0.029605
C178  C     C_R   0.528756 0.972516 0.237652 0.029582
C179  C     C_R   0.027708 0.528592 0.237619 0.029764
C180  C     C_R   0.471196 0.027478 0.237654 0.029553
C181  C     C_R   0.972522 0.528804 0.762346 0.029553
C182  C     C_R   0.528755 0.027564 0.762343 0.029605
C183  C     C_R   0.027484 0.471244 0.762348 0.029582
C184  C     C_R   0.471408 0.972292 0.762381 0.029764
C185  C     C_R   0.500067 0.999911 0.725356 0.104689
C186  C     C_R   0.999966 0.499989 0.725370 0.105043
C187  C     C_R   0.500011 0.000034 0.274630 0.105043
C188  C     C_R   0.000089 0.499932 0.274644 0.104689
C189  C     C_R   0.000067 0.499911 0.225356 0.104689
C190  C     C_R   0.499966 0.999989 0.225370 0.105043
C191  C     C_R   0.000011 0.500034 0.774630 0.105043
C192  C     C_R   0.500089 0.999932 0.774644 0.104689
C193  C     C_R   0.446719 0.941400 0.724989 -0.247477
C194  C     C_R   0.058871 0.447134 0.725009 -0.247995
C195  C     C_R   0.553460 0.058376 0.724911 -0.247559
C196  C     C_R   0.941017 0.552800 0.725021 -0.248083
C197  C     C_R   0.447200 0.058982 0.274979 -0.248083
C198  C     C_R   0.058599 0.553281 0.275011 -0.247477
C199  C     C_R   0.552866 0.941129 0.274991 -0.247995
C200  C     C_R   0.941624 0.446540 0.275089 -0.247559
C201  C     C_R   0.946719 0.441400 0.224988 -0.247477
C202  C     C_R   0.558871 0.947134 0.225009 -0.247995
C203  C     C_R   0.053460 0.558376 0.224911 -0.247559
C204  C     C_R   0.441017 0.052800 0.225021 -0.248083
C205  C     C_R   0.947200 0.558983 0.774979 -0.248083
C206  C     C_R   0.558600 0.053281 0.775011 -0.247477
C207  C     C_R   0.052866 0.441129 0.774991 -0.247995
C208  C     C_R   0.441624 0.946540 0.775089 -0.247559
C209  C     C_R   0.438885 0.944856 0.700977 -0.029375
C210  C     C_R   0.055516 0.439288 0.701005 -0.029553
C211  C     C_R   0.561360 0.054784 0.700911 -0.029980
C212  C     C_R   0.944272 0.560569 0.701005 -0.028661
C213  C     C_R   0.439430 0.055728 0.298995 -0.028661
C214  C     C_R   0.055144 0.561114 0.299023 -0.029375
C215  C     C_R   0.560712 0.944484 0.298995 -0.029553
C216  C     C_R   0.945216 0.438640 0.299089 -0.029980
C217  C     C_R   0.938885 0.444856 0.200977 -0.029375
C218  C     C_R   0.555516 0.939288 0.201005 -0.029553
C219  C     C_R   0.061360 0.554784 0.200911 -0.029980
C220  C     C_R   0.444272 0.060569 0.201005 -0.028661
C221  C     C_R   0.939430 0.555728 0.798995 -0.028661
C222  C     C_R   0.555144 0.061115 0.799023 -0.029375
C223  C     C_R   0.060712 0.444483 0.798995 -0.029553
C224  C     C_R   0.445216 0.938640 0.799089 -0.029980
C225  C     C_R   0.469066 0.973205 0.688168 -0.070146
C226  C     C_R   0.026886 0.469230 0.688206 -0.069869
C227  C     C_R   0.531110 0.026485 0.688134 -0.070032
C228  C     C_R   0.972941 0.530676 0.688205 -0.069851
C229  C     C_R   0.469323 0.027059 0.311795 -0.069851
C230  C     C_R   0.026795 0.530934 0.311832 -0.070146
C231  C     C_R   0.530770 0.973113 0.311794 -0.069869
C232  C     C_R   0.973515 0.468890 0.311866 -0.070032
C233  C     C_R   0.969066 0.473205 0.188168 -0.070146
C234  C     C_R   0.526887 0.969230 0.188206 -0.069869
C235  C     C_R   0.031110 0.526485 0.188134 -0.070032
C236  C     C_R   0.472941 0.030676 0.188205 -0.069851
C237  C     C_R   0.969323 0.527059 0.811795 -0.069851
C238  C     C_R   0.526795 0.030934 0.811832 -0.070146
C239  C     C_R   0.030770 0.473113 0.811794 -0.069869
C240  C     C_R   0.473515 0.968890 0.811866 -0.070032
C241  C     C_R   0.500071 0.999884 0.700666 -0.072410
C242  C     C_R   0.999941 0.499972 0.700700 -0.073163
C243  C     C_R   0.500028 0.000059 0.299300 -0.073163
C244  C     C_R   0.000116 0.499929 0.299334 -0.072410
C245  C     C_R   0.000071 0.499884 0.200666 -0.072410
C246  C     C_R   0.499941 0.999972 0.200700 -0.073163
C247  C     C_R   0.000028 0.500059 0.799300 -0.073163
C248  C     C_R   0.500116 0.999929 0.799334 -0.072410
C249  C     C_R   0.468847 0.977700 0.663629 0.552705
C250  C     C_R   0.022578 0.469085 0.663668 0.552173
C251  C     C_R   0.531345 0.021925 0.663601 0.552469
C252  C     C_R   0.977228 0.530796 0.663664 0.552130
C253  C     C_R   0.469204 0.022772 0.336336 0.552130
C254  C     C_R   0.022300 0.531153 0.336371 0.552705
C255  C     C_R   0.530915 0.977422 0.336332 0.552173
C256  C     C_R   0.978075 0.468655 0.336399 0.552469
C257  C     C_R   0.968847 0.477700 0.163629 0.552705
C258  C     C_R   0.522578 0.969085 0.163668 0.552173
C259  C     C_R   0.031345 0.521925 0.163601 0.552469
C260  C     C_R   0.477228 0.030796 0.163664 0.552130
C261  C     C_R   0.969204 0.522772 0.836336 0.552130
C262  C     C_R   0.522300 0.031153 0.836371 0.552705
C263  C     C_R   0.030915 0.477422 0.836332 0.552173
C264  C     C_R   0.478075 0.968655 0.836399 0.552469
H1    H     H_    0.432721 0.913826 0.734134 0.204009
H2    H     H_    0.086508 0.433356 0.734209 0.204267
H3    H     H_    0.567475 0.085980 0.734017 0.203818
H4    H     H_    0.913394 0.566569 0.734243 0.204250
H5    H     H_    0.433431 0.086606 0.265757 0.204250
H6    H     H_    0.086174 0.567279 0.265866 0.204009
H7    H     H_    0.566644 0.913492 0.265791 0.204267
H8    H     H_    0.914020 0.432525 0.265983 0.203818
H9    H     H_    0.932721 0.413826 0.234134 0.204009
H10   H     H_    0.586508 0.933356 0.234209 0.204267
H11   H     H_    0.067475 0.585980 0.234017 0.203818
H12   H     H_    0.413394 0.066569 0.234243 0.204250
H13   H     H_    0.933431 0.586606 0.765757 0.204250
H14   H     H_    0.586174 0.067279 0.765866 0.204009
H15   H     H_    0.066644 0.413492 0.765791 0.204267
H16   H     H_    0.414020 0.932525 0.765983 0.203818
H17   H     H_    0.558467 0.035599 0.572991 0.164548
H18   H     H_    0.961769 0.556799 0.572997 0.162095
H19   H     H_    0.441499 0.964337 0.573025 0.164608
H20   H     H_    0.038194 0.443162 0.573009 0.162062
H21   H     H_    0.556838 0.961805 0.426991 0.162062
H22   H     H_    0.964401 0.441533 0.427009 0.164548
H23   H     H_    0.443201 0.038231 0.427003 0.162095
H24   H     H_    0.035663 0.558501 0.426975 0.164608
H25   H     H_    0.058467 0.535599 0.072991 0.164548
H26   H     H_    0.461769 0.056799 0.072997 0.162095
H27   H     H_    0.941499 0.464337 0.073025 0.164608
H28   H     H_    0.538194 0.943162 0.073009 0.162062
H29   H     H_    0.056838 0.461805 0.926991 0.162062
H30   H     H_    0.464401 0.941533 0.927009 0.164548
H31   H     H_    0.943201 0.538231 0.927003 0.162095
H32   H     H_    0.535663 0.058501 0.926975 0.164608
H33   H     H_    0.462366 0.861036 0.468337 0.182571
H34   H     H_    0.139377 0.462095 0.468299 0.182331
H35   H     H_    0.537620 0.139003 0.468326 0.182547
H36   H     H_    0.860660 0.537848 0.468259 0.182271
H37   H     H_    0.462152 0.139340 0.531741 0.182271
H38   H     H_    0.138964 0.537634 0.531663 0.182571
H39   H     H_    0.537904 0.860623 0.531701 0.182331
H40   H     H_    0.860997 0.462380 0.531674 0.182547
H41   H     H_    0.962366 0.361036 0.968337 0.182571
H42   H     H_    0.639377 0.962095 0.968298 0.182331
H43   H     H_    0.037620 0.639003 0.968326 0.182547
H44   H     H_    0.360660 0.037847 0.968259 0.182271
H45   H     H_    0.962152 0.639340 0.031741 0.182271
H46   H     H_    0.638964 0.037634 0.031663 0.182571
H47   H     H_    0.037904 0.360623 0.031701 0.182331
H48   H     H_    0.360997 0.962380 0.031674 0.182547
H49   H     H_    0.568905 0.717961 0.510589 0.192562
H50   H     H_    0.281724 0.567700 0.511418 0.191377
H51   H     H_    0.431114 0.282009 0.510627 0.192529
H52   H     H_    0.718253 0.432294 0.511445 0.191357
H53   H     H_    0.567706 0.281747 0.488555 0.191357
H54   H     H_    0.282039 0.431095 0.489411 0.192562
H55   H     H_    0.432300 0.718276 0.488582 0.191377
H56   H     H_    0.717991 0.568886 0.489373 0.192529
H57   H     H_    0.068905 0.217961 0.010589 0.192562
H58   H     H_    0.781724 0.067700 0.011419 0.191377
H59   H     H_    0.931114 0.782009 0.010627 0.192530
H60   H     H_    0.218253 0.932294 0.011445 0.191357
H61   H     H_    0.067706 0.781747 0.988555 0.191357
H62   H     H_    0.782039 0.931095 0.989410 0.192562
H63   H     H_    0.932300 0.218276 0.988581 0.191377
H64   H     H_    0.217991 0.068886 0.989372 0.192530
H65   H     H_    0.565450 0.637401 0.514315 0.141783
H66   H     H_    0.362334 0.564724 0.514830 0.142506
H67   H     H_    0.434548 0.362565 0.514350 0.141764
H68   H     H_    0.637637 0.435281 0.514843 0.142529
H69   H     H_    0.564719 0.362363 0.485156 0.142529
H70   H     H_    0.362599 0.434550 0.485685 0.141783
H71   H     H_    0.435276 0.637666 0.485170 0.142506
H72   H     H_    0.637435 0.565452 0.485650 0.141764
H73   H     H_    0.065450 0.137401 0.014315 0.141784
H74   H     H_    0.862334 0.064724 0.014830 0.142506
H75   H     H_    0.934548 0.862565 0.014351 0.141764
H76   H     H_    0.137637 0.935281 0.014844 0.142529
H77   H     H_    0.064719 0.862363 0.985156 0.142529
H78   H     H_    0.862599 0.934550 0.985685 0.141784
H79   H     H_    0.935276 0.137666 0.985170 0.142506
H80   H     H_    0.137435 0.065452 0.985649 0.141764
N1    N     N_R   0.500077 0.999828 0.650445 -0.331440
N2    N     N_R   0.999919 0.499960 0.650487 -0.331541
N3    N     N_R   0.500040 0.000081 0.349513 -0.331541
N4    N     N_R   0.000172 0.499922 0.349555 -0.331440
N5    N     N_R   0.000077 0.499828 0.150445 -0.331440
N6    N     N_R   0.499919 0.999960 0.150487 -0.331541
N7    N     N_R   0.000040 0.500081 0.849513 -0.331541
N8    N     N_R   0.500172 0.999923 0.849555 -0.331440
O1    O     O_R   0.536950 0.934530 0.500010 -0.616020
O2    O     O_R   0.065470 0.536950 0.500010 -0.616081
O3    O     O_R   0.463050 0.065470 0.500010 -0.615983
O4    O     O_R   0.934530 0.463050 0.500010 -0.616069
O5    O     O_R   0.536950 0.065470 0.499990 -0.616069
O6    O     O_R   0.065470 0.463050 0.499990 -0.616020
O7    O     O_R   0.463050 0.934530 0.499990 -0.616081
O8    O     O_R   0.934530 0.536950 0.499990 -0.615983
O9    O     O_R   0.036950 0.434530 0.000010 -0.616020
O10   O     O_R   0.565470 0.036950 0.000010 -0.616081
O11   O     O_R   0.963050 0.565470 0.000010 -0.615983
O12   O     O_R   0.434530 0.963050 0.000010 -0.616069
O13   O     O_R   0.036950 0.565470 0.999990 -0.616069
O14   O     O_R   0.565470 0.963050 0.999990 -0.616020
O15   O     O_R   0.963050 0.434530 0.999990 -0.616081
O16   O     O_R   0.434530 0.036950 0.999990 -0.615983
O17   O     O_R   0.536950 0.999980 0.535630 -0.622858
O18   O     O_R   0.000020 0.536950 0.535630 -0.621616
O19   O     O_R   0.463050 0.000020 0.535630 -0.622902
O20   O     O_R   0.999980 0.463050 0.535630 -0.621623
O21   O     O_R   0.536950 0.000020 0.464370 -0.621623
O22   O     O_R   0.000020 0.463050 0.464370 -0.622858
O23   O     O_R   0.463050 0.999980 0.464370 -0.621616
O24   O     O_R   0.999980 0.536950 0.464370 -0.622902
O25   O     O_R   0.036950 0.499980 0.035630 -0.622858
O26   O     O_R   0.500020 0.036950 0.035630 -0.621616
O27   O     O_R   0.963050 0.500020 0.035630 -0.622902
O28   O     O_R   0.499980 0.963050 0.035630 -0.621623
O29   O     O_R   0.036950 0.500020 0.964370 -0.621623
O30   O     O_R   0.500020 0.963050 0.964370 -0.622858
O31   O     O_R   0.963050 0.499980 0.964370 -0.621616
O32   O     O_R   0.499980 0.036950 0.964370 -0.622902
O33   O     O_R   0.434540 0.499970 0.520120 -0.613532
O34   O     O_R   0.500030 0.434540 0.520120 -0.613509
O35   O     O_R   0.565460 0.500030 0.520120 -0.613505
O36   O     O_R   0.499970 0.565460 0.520120 -0.613492
O37   O     O_R   0.434540 0.500030 0.479880 -0.613492
O38   O     O_R   0.500030 0.565460 0.479880 -0.613532
O39   O     O_R   0.565460 0.499970 0.479880 -0.613510
O40   O     O_R   0.499970 0.434540 0.479880 -0.613505
O41   O     O_R   0.934540 0.999970 0.020120 -0.613532
O42   O     O_R   0.000030 0.934540 0.020120 -0.613510
O43   O     O_R   0.065460 0.000030 0.020120 -0.613505
O44   O     O_R   0.999970 0.065460 0.020120 -0.613492
O45   O     O_R   0.934540 0.000030 0.979880 -0.613492
O46   O     O_R   0.000030 0.065460 0.979880 -0.613532
O47   O     O_R   0.065460 0.999970 0.979880 -0.613510
O48   O     O_R   0.999970 0.934540 0.979880 -0.613505
O49   O     O_2   0.433431 0.962634 0.653677 -0.511220
O50   O     O_2   0.038610 0.434102 0.653680 -0.509452
O51   O     O_2   0.566847 0.036795 0.653634 -0.511114
O52   O     O_2   0.961040 0.565705 0.653662 -0.509620
O53   O     O_2   0.434295 0.038960 0.346338 -0.509620
O54   O     O_2   0.037366 0.566569 0.346323 -0.511220
O55   O     O_2   0.565898 0.961390 0.346320 -0.509452
O56   O     O_2   0.963205 0.433153 0.346366 -0.511114
O57   O     O_2   0.933431 0.462634 0.153677 -0.511220
O58   O     O_2   0.538610 0.934102 0.153680 -0.509452
O59   O     O_2   0.066847 0.536795 0.153634 -0.511114
O60   O     O_2   0.461040 0.065705 0.153662 -0.509620
O61   O     O_2   0.934295 0.538960 0.846338 -0.509620
O62   O     O_2   0.537366 0.066569 0.846323 -0.511220
O63   O     O_2   0.065898 0.461390 0.846320 -0.509452
O64   O     O_2   0.463205 0.933153 0.846366 -0.511114
Zn1   Zn    Zn3+2 0.549350 0.000000 0.500000 1.010478
Zn2   Zn    Zn3+2 1.000000 0.549350 0.500000 1.010488
Zn3   Zn    Zn3+2 0.450650 0.000000 0.500000 1.010488
Zn4   Zn    Zn3+2 1.000000 0.450650 0.500000 1.010478
Zn5   Zn    Zn3+2 0.049350 0.500000 0.000000 1.010478
Zn6   Zn    Zn3+2 0.500000 0.049350 0.000000 1.010488
Zn7   Zn    Zn3+2 0.950650 0.500000 0.000000 1.010488
Zn8   Zn    Zn3+2 0.500000 0.950650 0.000000 1.010478
Zn9   Zn    Zn3+2 0.500000 0.500000 0.526860 0.984637
Zn10  Zn    Zn3+2 0.500000 0.500000 0.473140 0.984637
Zn11  Zn    Zn3+2 1.000000 0.000000 0.026860 0.984637
Zn12  Zn    Zn3+2 1.000000 0.000000 0.973140 0.984637
C265  C     C_2   0.400180 0.915874 0.692918 0.990484
O65   O     O_2   0.382495 0.891356 0.707131 -0.624424
O66   O     O_R   0.381687 0.914522 0.670572 -0.693375
H81   H     H_    0.357866 0.890728 0.669032 0.352791
C266  C     C_2   0.084683 0.400697 0.692989 0.990558
O67   O     O_2   0.109140 0.383025 0.707249 -0.623753
O68   O     O_R   0.086255 0.382165 0.670650 -0.691020
H82   H     H_    0.110398 0.358772 0.669032 0.353474
C267  C     C_2   0.600219 0.083552 0.692826 0.991716
O69   O     O_2   0.618012 0.108024 0.707022 -0.624421
O70   O     O_R   0.618715 0.084739 0.670492 -0.691684
H83   H     H_    0.642837 0.108620 0.668858 0.351234
C268  C     C_2   0.914949 0.599030 0.692975 0.988874
O71   O     O_2   0.890372 0.616589 0.707204 -0.622793
O72   O     O_R   0.913449 0.617655 0.670641 -0.694498
H84   H     H_    0.888758 0.639547 0.668807 0.356109
C269  C     C_2   0.400970 0.085051 0.307025 0.988874
O73   O     O_2   0.383411 0.109628 0.292796 -0.622793
O74   O     O_R   0.382345 0.086551 0.329358 -0.694498
H85   H     H_    0.360453 0.111242 0.331193 0.356109
C270  C     C_2   0.084126 0.599820 0.307082 0.990484
O75   O     O_2   0.108644 0.617505 0.292868 -0.624424
O76   O     O_R   0.085478 0.618313 0.329428 -0.693375
H86   H     H_    0.109272 0.642134 0.330968 0.352791
C271  C     C_2   0.599303 0.915317 0.307011 0.990558
O77   O     O_2   0.616975 0.890860 0.292751 -0.623753
O78   O     O_R   0.617835 0.913745 0.329350 -0.691020
H87   H     H_    0.641228 0.889602 0.330968 0.353474
C272  C     C_2   0.916448 0.399780 0.307174 0.991716
O79   O     O_2   0.891976 0.381988 0.292978 -0.624421
O80   O     O_R   0.915260 0.381285 0.329508 -0.691684
H88   H     H_    0.891380 0.357163 0.331142 0.351234
C273  C     C_2   0.900180 0.415874 0.192918 0.990484
O81   O     O_2   0.882495 0.391356 0.207131 -0.624424
O82   O     O_R   0.881687 0.414522 0.170572 -0.693375
H89   H     H_    0.857866 0.390728 0.169032 0.352791
C274  C     C_2   0.584683 0.900696 0.192989 0.990558
O83   O     O_2   0.609140 0.883025 0.207249 -0.623753
O84   O     O_R   0.586255 0.882165 0.170650 -0.691020
H90   H     H_    0.610398 0.858772 0.169032 0.353474
C275  C     C_2   0.100220 0.583552 0.192826 0.991716
O85   O     O_2   0.118012 0.608024 0.207022 -0.624421
O86   O     O_R   0.118715 0.584740 0.170492 -0.691684
H91   H     H_    0.142837 0.608620 0.168858 0.351234
C276  C     C_2   0.414949 0.099030 0.192975 0.988874
O87   O     O_2   0.390372 0.116589 0.207204 -0.622793
O88   O     O_R   0.413449 0.117655 0.170641 -0.694498
H92   H     H_    0.388758 0.139547 0.168807 0.356109
C277  C     C_2   0.900970 0.585051 0.807025 0.988874
O89   O     O_2   0.883411 0.609628 0.792796 -0.622793
O90   O     O_R   0.882345 0.586551 0.829358 -0.694498
H93   H     H_    0.860453 0.611242 0.831193 0.356109
C278  C     C_2   0.584125 0.099820 0.807082 0.990484
O91   O     O_2   0.608644 0.117505 0.792868 -0.624424
O92   O     O_R   0.585478 0.118313 0.829428 -0.693375
H94   H     H_    0.609272 0.142134 0.830967 0.352791
C279  C     C_2   0.099303 0.415317 0.807011 0.990558
O93   O     O_2   0.116975 0.390860 0.792751 -0.623753
O94   O     O_R   0.117835 0.413745 0.829350 -0.691020
H95   H     H_    0.141228 0.389601 0.830968 0.353474
C280  C     C_2   0.416448 0.899780 0.807174 0.991716
O95   O     O_2   0.391976 0.881988 0.792978 -0.624421
O96   O     O_R   0.415260 0.881285 0.829508 -0.691684
H96   H     H_    0.391380 0.857163 0.831142 0.351234
C281  C     C_2   0.570964 0.052140 0.613117 1.056580
O97   O     O_2   0.608938 0.039034 0.612084 -0.567612
O98   O     O_R   0.562759 0.096721 0.617551 -0.774749
H97   H     H_    0.591218 0.113231 0.620528 0.361868
C282  C     C_2   0.945599 0.568960 0.613121 1.050518
O99   O     O_2   0.957640 0.607340 0.612241 -0.565090
O100  O     O_R   0.900832 0.559594 0.617519 -0.776384
H98   H     H_    0.883859 0.587400 0.619927 0.362710
C283  C     C_2   0.429257 0.947442 0.613159 1.056488
O101  O     O_2   0.391228 0.960404 0.612147 -0.567807
O102  O     O_R   0.437654 0.902863 0.617579 -0.774392
H99   H     H_    0.409264 0.886249 0.620571 0.361996
C284  C     C_2   0.054263 0.430957 0.613140 1.050157
O103  O     O_2   0.042223 0.392582 0.612251 -0.565348
O104  O     O_R   0.099027 0.440275 0.617578 -0.776138
H100  H     H_    0.115945 0.412466 0.619950 0.363313
C285  C     C_2   0.569043 0.945737 0.386860 1.050157
O105  O     O_2   0.607418 0.957777 0.387749 -0.565348
O106  O     O_R   0.559725 0.900973 0.382422 -0.776138
H101  H     H_    0.587534 0.884055 0.380050 0.363313
C286  C     C_2   0.947860 0.429036 0.386883 1.056580
O107  O     O_2   0.960965 0.391062 0.387916 -0.567612
O108  O     O_R   0.903279 0.437241 0.382449 -0.774749
H102  H     H_    0.886769 0.408782 0.379472 0.361868
C287  C     C_2   0.431040 0.054401 0.386879 1.050518
O109  O     O_2   0.392660 0.042360 0.387759 -0.565090
O110  O     O_R   0.440406 0.099167 0.382480 -0.776384
H103  H     H_    0.412599 0.116141 0.380073 0.362710
C288  C     C_2   0.052557 0.570743 0.386841 1.056488
O111  O     O_2   0.039595 0.608772 0.387853 -0.567807
O112  O     O_R   0.097137 0.562345 0.382421 -0.774392
H104  H     H_    0.113750 0.590736 0.379429 0.361996
C289  C     C_2   0.070964 0.552140 0.113117 1.056579
O113  O     O_2   0.108938 0.539034 0.112084 -0.567612
O114  O     O_R   0.062759 0.596721 0.117551 -0.774749
H105  H     H_    0.091218 0.613230 0.120527 0.361868
C290  C     C_2   0.445599 0.068960 0.113121 1.050518
O115  O     O_2   0.457640 0.107340 0.112241 -0.565090
O116  O     O_R   0.400832 0.059594 0.117520 -0.776384
H106  H     H_    0.383859 0.087401 0.119927 0.362710
C291  C     C_2   0.929257 0.447442 0.113159 1.056488
O117  O     O_2   0.891228 0.460404 0.112147 -0.567807
O118  O     O_R   0.937654 0.402863 0.117579 -0.774392
H107  H     H_    0.909263 0.386250 0.120571 0.361996
C292  C     C_2   0.554263 0.930956 0.113140 1.050157
O119  O     O_2   0.542223 0.892582 0.112251 -0.565348
O120  O     O_R   0.599027 0.940275 0.117578 -0.776138
H108  H     H_    0.615945 0.912466 0.119950 0.363313
C293  C     C_2   0.069043 0.445737 0.886859 1.050157
O121  O     O_2   0.107418 0.457777 0.887749 -0.565348
O122  O     O_R   0.059725 0.400973 0.882422 -0.776138
H109  H     H_    0.087534 0.384055 0.880050 0.363313
C294  C     C_2   0.447860 0.929036 0.886883 1.056579
O123  O     O_2   0.460965 0.891062 0.887916 -0.567612
O124  O     O_R   0.403279 0.937241 0.882449 -0.774749
H110  H     H_    0.386769 0.908782 0.879472 0.361868
C295  C     C_2   0.931040 0.554401 0.886879 1.050518
O125  O     O_2   0.892660 0.542360 0.887759 -0.565090
O126  O     O_R   0.940406 0.599167 0.882480 -0.776384
H111  H     H_    0.912599 0.616141 0.880073 0.362710
C296  C     C_2   0.552557 0.070743 0.886841 1.056488
O127  O     O_2   0.539595 0.108772 0.887853 -0.567807
O128  O     O_R   0.597137 0.062345 0.882421 -0.774392
H112  H     H_    0.613750 0.090736 0.879429 0.361996
O129  O     O_3   0.459650 0.776601 0.462701 -0.610895
C297  C     C_3   0.491103 0.758660 0.447276 -0.261865
H113  H     H_    0.510547 0.731821 0.455433 0.167919
H114  H     H_    0.513812 0.784460 0.440475 0.169026
H115  H     H_    0.473479 0.743944 0.432266 0.203797
O130  O     O_3   0.223794 0.457345 0.463545 -0.611129
C298  C     C_3   0.242648 0.487758 0.447798 -0.262600
H116  H     H_    0.267720 0.509259 0.456081 0.164697
H117  H     H_    0.217197 0.508689 0.439366 0.171217
H118  H     H_    0.260000 0.469058 0.433997 0.202855
O131  O     O_3   0.540336 0.223446 0.462691 -0.610907
C299  C     C_3   0.508863 0.241381 0.447281 -0.261934
H119  H     H_    0.489469 0.268255 0.455436 0.168023
H120  H     H_    0.486114 0.215587 0.440528 0.168968
H121  H     H_    0.526466 0.256046 0.432237 0.203809
O132  O     O_3   0.776249 0.542600 0.463506 -0.611124
C300  C     C_3   0.757367 0.512189 0.447784 -0.262638
H122  H     H_    0.732340 0.490645 0.456092 0.164586
H123  H     H_    0.782809 0.491291 0.439321 0.171258
H124  H     H_    0.739955 0.530892 0.434006 0.202803
O133  O     O_3   0.457400 0.223751 0.536494 -0.611124
C301  C     C_3   0.487811 0.242633 0.552216 -0.262638
H125  H     H_    0.509355 0.267659 0.543908 0.164586
H126  H     H_    0.508709 0.217191 0.560678 0.171258
H127  H     H_    0.469108 0.260045 0.565994 0.202803
O134  O     O_3   0.223399 0.540350 0.537299 -0.610895
C302  C     C_3   0.241340 0.508897 0.552724 -0.261865
H128  H     H_    0.268179 0.489453 0.544567 0.167919
H129  H     H_    0.215540 0.486188 0.559525 0.169026
H130  H     H_    0.256056 0.526521 0.567734 0.203797
O135  O     O_3   0.542655 0.776206 0.536455 -0.611129
C303  C     C_3   0.512242 0.757352 0.552202 -0.262600
H131  H     H_    0.490741 0.732280 0.543918 0.164697
H132  H     H_    0.491311 0.782803 0.560634 0.171217
H133  H     H_    0.530941 0.740000 0.566003 0.202855
O136  O     O_3   0.776554 0.459664 0.537309 -0.610907
C304  C     C_3   0.758618 0.491137 0.552719 -0.261934
H134  H     H_    0.731745 0.510531 0.544564 0.168023
H135  H     H_    0.784413 0.513886 0.559472 0.168968
H136  H     H_    0.743954 0.473534 0.567762 0.203809
O137  O     O_3   0.959650 0.276601 0.962701 -0.610895
C305  C     C_3   0.991103 0.258660 0.947276 -0.261862
H137  H     H_    0.010547 0.231821 0.955433 0.167919
H138  H     H_    0.013813 0.284460 0.940475 0.169025
H139  H     H_    0.973480 0.243945 0.932265 0.203797
O138  O     O_3   0.723794 0.957345 0.963545 -0.611130
C306  C     C_3   0.742648 0.987758 0.947798 -0.262599
H140  H     H_    0.767720 0.009259 0.956082 0.164697
H141  H     H_    0.717197 0.008688 0.939366 0.171216
H142  H     H_    0.760000 0.969058 0.933997 0.202854
O139  O     O_3   0.040336 0.723446 0.962690 -0.610907
C307  C     C_3   0.008863 0.741381 0.947281 -0.261938
H143  H     H_    0.989469 0.768255 0.955436 0.168024
H144  H     H_    0.986113 0.715587 0.940528 0.168969
H145  H     H_    0.026465 0.756046 0.932237 0.203810
O140  O     O_3   0.276249 0.042601 0.963506 -0.611125
C308  C     C_3   0.257368 0.012189 0.947784 -0.262640
H146  H     H_    0.232340 0.990645 0.956092 0.164586
H147  H     H_    0.282809 0.991291 0.939322 0.171258
H148  H     H_    0.239955 0.030893 0.934006 0.202803
O141  O     O_3   0.957399 0.723751 0.036494 -0.611125
C309  C     C_3   0.987811 0.742632 0.052216 -0.262640
H149  H     H_    0.009354 0.767659 0.043908 0.164586
H150  H     H_    0.008709 0.717191 0.060678 0.171258
H151  H     H_    0.969107 0.760045 0.065993 0.202803
O142  O     O_3   0.723399 0.040350 0.037299 -0.610895
C310  C     C_3   0.741340 0.008897 0.052724 -0.261862
H152  H     H_    0.768179 0.989453 0.044567 0.167919
H153  H     H_    0.715539 0.986187 0.059525 0.169025
H154  H     H_    0.756055 0.026520 0.067735 0.203797
O143  O     O_3   0.042655 0.276206 0.036455 -0.611130
C311  C     C_3   0.012242 0.257352 0.052202 -0.262599
H155  H     H_    0.990741 0.232280 0.043918 0.164697
H156  H     H_    0.991311 0.282803 0.060634 0.171216
H157  H     H_    0.030942 0.240000 0.066003 0.202854
O144  O     O_3   0.276554 0.959664 0.037310 -0.610907
C312  C     C_3   0.258619 0.991137 0.052719 -0.261938
H158  H     H_    0.231745 0.010531 0.044564 0.168024
H159  H     H_    0.284413 0.013887 0.059472 0.168969
H160  H     H_    0.243954 0.973535 0.067763 0.203810

loop_
_geom_bond_atom_site_label_1
_geom_bond_atom_site_label_2
_ccdc_geom_bond_type
C85   H37   S    
O131  C299  S    
O26   Zn6   S    
C216  C272  S    
C33   C45   A    
C296  O127  D    
O116  H106  S    
C120  C144  A    
C303  H133  S    
O80   H88   S    
C119  C161  A    
C197  C213  A    
O129  C297  S    
C117  C163  A    
C108  C164  S    
C297  H115  S    
C123  H59   S    
C15   C287  S    
O33   Zn9   S    
C14   C30   A    
O30   Zn8   S    
C142  H70   S    
C137  C153  A    
C19   C61   A    
C7    O11   A    
C309  H149  S    
C22   C38   A    
C191  C247  A    
C299  H119  S    
C200  H8    S    
C272  O79   D    
O135  C303  S    
O142  C310  S    
C278  O92   S    
C17   C61   A    
C124  C168  A    
O98   H97   S    
C270  O76   S    
C95   C101  A    
O134  C302  S    
C169  C185  A    
O3    Zn3   S    
C257  N5    A    
O27   Zn7   S    
C138  C154  A    
C265  O66   S    
C308  H147  S    
C76   C112  A    
C82   C98   A    
O46   Zn12  S    
C182  C192  A    
C176  C188  A    
C53   O45   A    
C5    C101  S    
C190  C246  A    
C171  C185  A    
O82   H89   S    
C84   C100  A    
C236  C246  A    
C177  C189  A    
C171  C195  A    
C217  C233  A    
C285  O106  S    
C305  H137  S    
C169  C193  A    
C230  C254  A    
C275  O85   D    
C237  C261  A    
C223  C279  S    
C221  C237  A    
C218  C274  S    
C54   O48   A    
C306  H141  S    
C130  O18   A    
C11   C27   A    
C127  C165  A    
O22   Zn4   S    
C80   C112  A    
C259  O59   S    
O130  C298  S    
C212  C268  S    
C255  N3    A    
O4    Zn4   S    
C291  O118  S    
C257  O57   S    
C8    C104  S    
C73   O137  S    
C312  H158  S    
C57   N1    S    
C140  C156  A    
C147  H75   S    
C253  N3    A    
C55   C160  S    
C204  C220  A    
C275  O86   S    
C262  N8    A    
C96   C104  A    
C121  C145  A    
C113  C137  A    
C172  C196  A    
C111  C167  S    
O36   Zn9   S    
C197  H5    S    
C35   C45   A    
C63   N7    S    
O88   H92   S    
C213  C229  A    
C39   C47   A    
C234  C258  A    
C22   C294  S    
C297  H113  S    
C118  C162  A    
C37   H29   S    
C50   O34   A    
C89   C101  A    
C51   O39   A    
O20   Zn4   S    
O66   H81   S    
C91   C103  A    
C144  H72   S    
C305  H139  S    
C74   C110  A    
C302  H130  S    
C82   H34   S    
C44   C132  S    
C263  N7    A    
O141  C309  S    
C45   C133  S    
C299  H121  S    
C56   O46   A    
C74   C90   A    
C175  C187  A    
C69   O133  S    
C276  O87   D    
C113  H49   S    
C277  O90   S    
C223  C239  A    
C76   C92   A    
C116  H52   S    
C233  C245  A    
C285  O105  D    
C131  O23   A    
C78   C94   A    
C8    O12   A    
C136  O30   A    
C260  N6    A    
C310  H154  S    
C122  C146  A    
C115  C163  A    
C269  O73   D    
O41   Zn11  S    
C230  C244  A    
C92   C104  A    
C113  C161  A    
C196  C212  A    
C283  O102  S    
C94   C102  A    
C295  O126  S    
C205  H13   S    
C58   N2    S    
C19   C35   A    
C286  O108  S    
C217  C273  S    
C201  H9    S    
C91   H43   S    
C301  H126  S    
C198  C214  A    
C207  C223  A    
C264  N8    A    
C252  O52   S    
C181  C205  A    
O139  C307  S    
C194  H2    S    
C180  C204  A    
C183  C207  A    
C93   C103  A    
C69   C107  A    
C186  C242  A    
C139  H67   S    
C265  O65   D    
C4    C100  S    
C195  C211  A    
C118  H54   S    
C293  O121  D    
C31   C43   A    
C199  C215  A    
O10   Zn6   S    
C146  H74   S    
C303  H132  S    
C62   N6    S    
C148  C160  A    
C226  C242  A    
C301  H127  S    
C263  O63   S    
O143  C311  S    
C311  H155  S    
C237  C247  A    
C77   C111  A    
C16   C60   A    
C119  H55   S    
C16   C32   A    
C90   C102  A    
C312  H160  S    
C224  C240  A    
C129  O19   A    
C127  C151  A    
C54   C159  S    
O28   Zn8   S    
O14   Zn8   S    
C172  C181  A    
C128  C152  A    
C35   H27   S    
C72   C108  A    
C86   H38   S    
C14   C286  S    
C274  O83   D    
O2    Zn2   S    
C36   C46   A    
C34   C46   A    
C37   C47   A    
C38   C48   A    
C75   C91   A    
C6    C102  S    
C50   O40   A    
C283  O101  D    
O32   Zn6   S    
C24   C296  S    
C66   O130  S    
C143  C153  A    
C239  C263  A    
C240  C264  A    
C65   C105  A    
C304  H135  S    
C216  C232  A    
C254  N4    A    
C278  O91   D    
C18   C34   A    
C84   H36   S    
O11   Zn7   S    
C236  C260  A    
C312  H159  S    
C173  C197  A    
C219  C235  A    
C2    O2    A    
C42   C130  S    
O23   Zn3   S    
C18   C62   A    
C87   C97   A    
C131  O21   A    
O21   Zn1   S    
C52   C153  S    
C22   C64   A    
C136  O32   A    
O45   Zn12  S    
C143  H71   S    
C209  C265  S    
C282  O100  S    
C20   C36   A    
C144  C156  A    
C169  C184  A    
C279  O93   D    
C85   C99   A    
C60   N4    S    
C194  C210  A    
C288  O112  S    
O122  H109  S    
C179  C189  A    
C139  C155  A    
C50   C155  S    
C175  C199  A    
C307  H143  S    
O17   Zn1   S    
C290  O115  D    
C125  H61   S    
C17   C33   A    
C142  C154  A    
C280  O96   S    
C95   H47   S    
C53   O41   A    
C210  C266  S    
C121  H57   S    
C179  C203  A    
C250  O50   S    
C39   H31   S    
C177  C201  A    
C196  H4    S    
C1    O1    A    
O108  H102  S    
C69   C85   A    
C68   O132  S    
C240  C248  A    
O86   H91   S    
C173  C187  A    
C148  H76   S    
C221  C277  S    
C47   C135  S    
C249  N1    A    
C48   C136  S    
C31   H23   S    
C107  C163  S    
O136  C304  S    
C32   H24   S    
C261  N7    A    
O112  H104  S    
C15   C31   A    
C146  C158  A    
C276  O88   S    
C121  C165  A    
O7    Zn3   S    
C192  C248  A    
C311  H157  S    
C18   C290  S    
C202  C218  A    
C289  O114  S    
C251  N1    A    
C6    O14   A    
C309  H150  S    
C206  C222  A    
C274  O84   S    
C299  H120  S    
C149  H77   S    
C114  C138  A    
C214  C270  S    
O19   Zn3   S    
C198  H6    S    
C40   H32   S    
C120  C164  A    
C213  C269  S    
O76   H86   S    
C11   C283  S    
C3    C99   S    
C204  H12   S    
O31   Zn7   S    
C270  O75   D    
C238  C248  A    
O94   H95   S    
C38   H30   S    
C51   O35   A    
C5    O15   A    
C268  O72   S    
C281  O97   D    
C49   O33   A    
C267  O69   D    
O106  H101  S    
C309  H151  S    
C83   H35   S    
C224  C280  S    
C80   O144  S    
C308  H146  S    
C129  O17   A    
C79   O143  S    
C296  O128  S    
O124  H110  S    
C114  H50   S    
C13   C285  S    
C9    C25   A    
C59   N3    S    
C67   C83   A    
C124  C148  A    
C26   C42   A    
C53   C158  S    
C227  C251  A    
C253  O53   S    
C12   C28   A    
C151  C157  A    
C13   C29   A    
C19   C291  S    
O47   Zn12  S    
C182  C206  A    
O5    Zn1   S    
C4    O4    A    
C287  O109  D    
C178  C190  A    
C305  H138  S    
C114  C162  A    
C225  C241  A    
C307  H145  S    
C87   H39   S    
C206  H14   S    
C239  C247  A    
O39   Zn10  S    
C271  O78   S    
C180  C190  A    
C135  O31   A    
C202  H10   S    
C266  O68   S    
C88   H40   S    
C29   H21   S    
C184  C192  A    
O43   Zn11  S    
C27   H19   S    
C231  C255  A    
C23   C63   A    
O12   Zn8   S    
O78   H87   S    
C24   C64   A    
C83   C99   A    
C291  O117  D    
C29   C43   A    
C272  O80   S    
C30   C44   A    
C54   O42   A    
C199  H7    S    
C209  C225  A    
C176  C200  A    
C302  H129  S    
C262  O62   S    
C251  O51   S    
C175  C178  A    
C249  O49   S    
C267  O70   S    
C119  C143  A    
C297  H114  S    
O74   H85   S    
C68   C84   A    
C133  O25   A    
C49   C154  S    
O104  H100  S    
C187  C243  A    
C70   C106  A    
C170  C194  A    
C79   C109  A    
C208  C224  A    
C141  C155  A    
C185  C241  A    
C92   H44   S    
C173  C180  A    
O137  C305  S    
C93   H45   S    
C298  H116  S    
C183  C191  A    
O132  C300  S    
C71   O135  S    
C127  H63   S    
C117  C141  A    
O128  H112  S    
C149  C159  A    
C79   C95   A    
C295  O125  D    
C294  O124  S    
C89   H41   S    
C52   O38   A    
C65   C81   A    
C178  C202  A    
O102  H99   S    
C170  C186  A    
C310  H153  S    
C5    O9    A    
C132  O22   A    
C88   C100  A    
C109  C165  S    
C43   C131  S    
C96   H48   S    
C71   C87   A    
C174  C188  A    
O40   Zn10  S    
C308  H148  S    
O1    Zn1   S    
C71   C105  A    
C70   O134  S    
C220  C276  S    
C56   O44   A    
C141  H69   S    
C238  C262  A    
C76   O140  S    
C2    O6    A    
C25   C41   A    
C214  C230  A    
C55   O43   A    
C287  O110  S    
C14   C60   A    
C226  C250  A    
O48   Zn12  S    
O35   Zn9   S    
C150  C158  A    
C10   C58   A    
O42   Zn11  S    
C232  C244  A    
C15   C59   A    
O90   H93   S    
C10   C26   A    
C126  C166  A    
C33   H25   S    
C73   C109  A    
C201  C217  A    
C125  C167  A    
O25   Zn5   S    
C1    O7    A    
C75   C111  A    
C16   C288  S    
C184  C208  A    
C3    O5    A    
C210  C226  A    
C73   C89   A    
C72   O136  S    
C28   H20   S    
C292  O120  S    
C135  O29   A    
C306  H142  S    
O8    Zn2   S    
C181  C191  A    
C74   O138  S    
O138  C306  S    
C10   C282  S    
C77   C93   A    
O13   Zn5   S    
C311  H156  S    
C77   O141  S    
C106  C162  S    
C20   C62   A    
C86   C98   A    
C252  N2    A    
C21   C63   A    
C78   C110  A    
C212  C228  A    
C302  H128  S    
C21   C37   A    
C235  C259  A    
O38   Zn10  S    
C30   H22   S    
C222  C278  S    
C255  O55   S    
C11   C57   A    
C256  O56   S    
C12   C284  S    
O114  H105  S    
C228  C252  A    
C112  C168  S    
C152  C160  A    
C122  C166  A    
C170  C183  A    
C300  H124  S    
C126  C150  A    
C133  O27   A    
C171  C182  A    
C310  H152  S    
C232  C256  A    
O70   H83   S    
C147  C159  A    
C304  H134  S    
C6    O10   A    
C75   O139  S    
O110  H103  S    
C138  H66   S    
C284  O103  D    
C277  O89   D    
C117  H53   S    
O92   H94   S    
C130  O20   A    
C286  O107  D    
C145  H73   S    
C150  H78   S    
C9    C281  S    
C229  C243  A    
O18   Zn2   S    
C66   C82   A    
C20   C292  S    
O34   Zn9   S    
O100  H98   S    
C219  C275  S    
C145  C157  A    
C282  O99   D    
C205  C221  A    
C269  O74   S    
C40   C48   A    
C132  O24   A    
C49   O37   A    
C200  C216  A    
C220  C236  A    
C172  C186  A    
C307  H144  S    
O118  H107  S    
C128  H64   S    
C105  C161  S    
C80   C96   A    
C115  H51   S    
C280  O95   D    
C134  O28   A    
C12   C58   A    
C124  H60   S    
C140  H68   S    
C301  H125  S    
C258  O58   S    
C211  C227  A    
C300  H122  S    
C67   O131  S    
C66   C106  A    
C4    O8    A    
C72   C88   A    
C298  H117  S    
C273  O82   S    
C65   O129  S    
C51   C156  S    
C174  C198  A    
C26   H18   S    
C215  C271  S    
C189  C245  A    
C3    O3    A    
C258  N6    A    
C55   O47   A    
C303  H131  S    
C218  C234  A    
C78   O142  S    
C284  O104  S    
C1    C97   S    
C306  H140  S    
O37   Zn10  S    
C233  C257  A    
C203  H11   S    
C292  O119  D    
C23   C295  S    
C21   C293  S    
C222  C238  A    
C52   O36   A    
O29   Zn5   S    
C273  O81   D    
C81   H33   S    
C234  C246  A    
C56   C157  S    
C27   C41   A    
C193  C209  A    
O84   H90   S    
O96   H96   S    
O16   Zn6   S    
C126  H62   S    
C294  O123  D    
C32   C44   A    
C228  C242  A    
C259  N5    A    
C151  H79   S    
C254  O54   S    
C64   N8    S    
C137  H65   S    
C122  H58   S    
C17   C289  S    
C176  C177  A    
C260  O60   S    
C123  C147  A    
C266  O67   D    
O44   Zn11  S    
C261  O61   S    
C8    O16   A    
C36   H28   S    
C61   N5    S    
C70   C86   A    
O120  H108  S    
C304  H136  S    
O144  C312  S    
C207  H15   S    
C288  O111  D    
C208  H16   S    
C225  C249  A    
C94   H46   S    
C116  C164  A    
C115  C139  A    
C118  C142  A    
C300  H123  S    
C227  C241  A    
C229  C253  A    
C90   H42   S    
C250  N2    A    
C46   C134  S    
O24   Zn2   S    
C290  O116  S    
C68   C108  A    
C256  N4    A    
C203  C219  A    
C298  H118  S    
C193  H1    S    
C281  O98   S    
C123  C167  A    
O72   H84   S    
C279  O94   S    
C211  C267  S    
C41   C129  S    
C195  H3    S    
C110  C166  S    
C67   C107  A    
C268  O71   D    
C81   C97   A    
C23   C39   A    
C152  H80   S    
C28   C42   A    
O140  C308  S    
C24   C40   A    
O9    Zn5   S    
C9    C57   A    
C120  H56   S    
C271  O77   D    
C125  C149  A    
C188  C244  A    
C134  O26   A    
O68   H82   S    
C7    O13   A    
C231  C243  A    
C293  O122  S    
O15   Zn7   S    
C2    C98   S    
O6    Zn4   S    
O133  C301  S    
C128  C168  A    
C215  C231  A    
C7    C103  S    
O126  H111  S    
C116  C140  A    
C13   C59   A    
C289  O113  D    
C25   H17   S    
C174  C179  A    
C235  C245  A    
C34   H26   S    
C264  O64   S    
