data_mof_unit_23734.cif
_audit_creation_date              2012-12-10T17:02:29-0500
_audit_creation_method            fapswitch 2.2
_symmetry_space_group_name_H-M    P1
_symmetry_Int_Tables_number       1
_space_group_crystal_system       triclinic
_cell_length_a                    10.854299
_cell_length_b                    11.04678
_cell_length_c                    9.873295
_cell_angle_alpha                 111.342118
_cell_angle_beta                  100.853045
_cell_angle_gamma                 90.265442
_cell_volume                      1079.48165939

loop_
_atom_site_label
_atom_site_type_symbol
_atom_type_description
_atom_site_fract_x
_atom_site_fract_y
_atom_site_fract_z
_atom_type_partial_charge
C1    C     C_R   0.490802 0.253858 0.440321 0.856285
C2    C     C_R   0.509198 0.746142 0.559679 0.856285
C3    C     C_2   0.485840 0.114353 0.406501 -0.316421
C4    C     C_2   0.514160 0.885647 0.593499 -0.316420
C5    C     C_2   0.502279 0.069605 0.516534 -0.139905
C6    C     C_2   0.497721 0.930394 0.483466 -0.139906
C7    C     C_2   0.508220 0.510939 0.082451 0.057135
C8    C     C_2   0.491780 0.489061 0.917549 0.057135
C9    C     C_R   0.262329 0.513096 0.500599 0.794121
C10   C     C_R   0.737671 0.486904 0.499401 0.794121
C11   C     C_R   0.163837 0.652934 0.768558 -0.106981
C12   C     C_R   0.836163 0.347066 0.231441 -0.106980
C13   C     C_R   0.131509 0.675047 0.904892 -0.128716
C14   C     C_R   0.868490 0.324953 0.095108 -0.128716
C15   C     C_R   0.021174 0.614517 0.909835 -0.116726
C16   C     C_R   0.978826 0.385482 0.090165 -0.116721
C17   C     C_R   0.938098 0.540932 0.778229 -0.060561
C18   C     C_R   0.061902 0.459067 0.221771 -0.060558
C19   C     C_R   0.963673 0.527734 0.637957 0.064745
C20   C     C_R   0.036327 0.472266 0.362043 0.064743
C21   C     C_R   0.085437 0.569472 0.634330 0.079875
C22   C     C_R   0.914563 0.430528 0.365670 0.079874
C23   C     C_R   0.873744 0.472603 0.502119 -0.219464
C24   C     C_R   0.126256 0.527397 0.497880 -0.219464
Cu1   Cu    Cu3+1 0.521920 0.521810 0.644910 1.046929
Cu2   Cu    Cu3+1 0.478080 0.478190 0.355090 1.046929
H1    H     H_    0.000620 0.374279 0.983979 0.174354
H2    H     H_    0.999380 0.625719 0.016021 0.174353
H3    H     H_    0.250106 0.702735 0.769084 0.153449
H4    H     H_    0.749893 0.297265 0.230916 0.153449
H5    H     H_    0.480702 0.864081 0.367869 0.200648
H6    H     H_    0.519298 0.135919 0.632131 0.200648
H7    H     H_    0.531224 0.952171 0.708932 0.183521
H8    H     H_    0.468776 0.047829 0.291068 0.183520
H9    H     H_    0.423077 0.413734 0.837653 0.188127
H10   H     H_    0.576923 0.586266 0.162347 0.188127
N1    N     N_2   0.445130 0.445420 0.137360 -0.019133
N2    N     N_2   0.554870 0.554580 0.862640 -0.019133
O1    O     O_R   0.511700 0.332340 0.577400 -0.613892
O2    O     O_R   0.488300 0.667660 0.422600 -0.613892
O3    O     O_R   0.474680 0.295500 0.332650 -0.516777
O4    O     O_R   0.525320 0.704500 0.667350 -0.516776
O5    O     O_R   0.338170 0.518410 0.622370 -0.597667
O6    O     O_R   0.661830 0.481590 0.377630 -0.597667
O7    O     O_R   0.301150 0.481570 0.377630 -0.549375
O8    O     O_R   0.698850 0.518430 0.622370 -0.549375
H11   H     H_    0.193902 0.736153 0.006848 0.145690
H12   H     H_    0.806097 0.263847 0.993152 0.145690
H13   H     H_    0.857600 0.490325 0.789180 0.181670
H14   H     H_    0.142400 0.509674 0.210819 0.181671
S1    S     S_3+6 0.666323 0.679303 0.980054 0.064200
O9    O     O_2   0.603636 0.783395 0.084786 -0.322823
O10   O     O_2   0.764930 0.626515 0.067832 -0.351399
O11   O     O_3   0.736041 0.745365 0.882134 -0.484704
H15   H     H_    0.800901 0.811507 0.956866 0.353794
S2    S     S_3+6 0.333677 0.320697 0.019945 0.064199
O12   O     O_2   0.235070 0.373484 0.932168 -0.351395
O13   O     O_2   0.396364 0.216605 0.915214 -0.322827
O14   O     O_3   0.263960 0.254635 0.117866 -0.484707
H16   H     H_    0.199106 0.188485 0.043134 0.353795

loop_
_geom_bond_atom_site_label_1
_geom_bond_atom_site_label_2
_ccdc_geom_bond_type
Cu1   O4    S    
C10   O8    A    
C19   C23   A    
Cu2   N1    S    
C9    O7    A    
C2    O2    A    
C10   C23   S    
C7    H10   S    
C2    C4    S    
Cu2   O7    S    
S2    O14   S    
C3    C5    D    
S1    O11   S    
Cu1   O5    S    
C16   H1    S    
C6    H5    S    
C7    N1    D    
Cu2   O6    S    
O14   H16   S    
C9    C24   S    
C5    H6    S    
Cu1   O1    S    
C11   C13   A    
Cu2   O2    S    
C15   H2    S    
C8    N2    D    
C2    O4    A    
C18   H14   S    
C1    O3    A    
S2    O13   D    
C19   C21   A    
C12   C14   A    
C18   C20   A    
C13   C15   A    
C5    C6    S    
Cu1   N2    S    
C14   C16   A    
C9    O5    A    
C4    C6    D    
C1    O1    A    
S1    O10   D    
C10   O6    A    
S1    O9    D    
C12   C22   A    
C7    C8    S    
S2    O12   D    
C11   H3    S    
C16   C18   A    
C21   C24   A    
C17   H13   S    
C15   C17   A    
O11   H15   S    
C17   C19   A    
C14   H12   S    
N2    S1    S    
C3    H8    S    
C12   H4    S    
Cu1   Cu2   S    
C4    H7    S    
N1    S2    S    
C13   H11   S    
Cu1   O8    S    
C11   C21   A    
C22   C23   A    
C20   C24   A    
Cu2   O3    S    
C20   C22   A    
C1    C3    S    
C8    H9    S    
