data_mof_unit_62522.cif
_audit_creation_date              2012-12-10T19:17:11-0500
_audit_creation_method            fapswitch 2.2
_symmetry_space_group_name_H-M    P1
_symmetry_Int_Tables_number       1
_space_group_crystal_system       triclinic
_cell_length_a                    22.331009
_cell_length_b                    22.314734
_cell_length_c                    14.972166
_cell_angle_alpha                 90.032524
_cell_angle_beta                  89.999126
_cell_angle_gamma                 90.000524
_cell_volume                      7460.78670841

loop_
_atom_site_label
_atom_site_type_symbol
_atom_type_description
_atom_site_fract_x
_atom_site_fract_y
_atom_site_fract_z
_atom_type_partial_charge
Br1   Br    Br    0.795641 0.296197 0.299548 -0.463355
Br2   Br    Br    0.716314 0.394191 0.418521 -0.342151
Br3   Br    Br    0.714098 0.603583 0.569976 -0.340319
Br4   Br    Br    0.717763 0.631186 0.374337 -0.372192
Br5   Br    Br    0.213262 0.873321 0.612997 -0.368752
Br6   Br    Br    0.216995 0.893508 0.415361 -0.343104
Br7   Br    Br    0.212607 0.102080 0.560723 -0.338815
Br8   Br    Br    0.220781 0.134208 0.366928 -0.374733
Br9   Br    Br    0.822196 0.287273 0.694759 -0.448667
Br10  Br    Br    0.827894 0.718425 0.308167 -0.451475
Br11  Br    Br    0.789764 0.697916 0.700292 -0.461872
Br12  Br    Br    0.297283 0.794550 0.299643 -0.463995
Br13  Br    Br    0.320593 0.788881 0.695445 -0.448227
Br14  Br    Br    0.332325 0.222867 0.311001 -0.452721
Br15  Br    Br    0.285156 0.193297 0.699631 -0.459944
Br16  Br    Br    0.714202 0.372377 0.615827 -0.369562
C1    C     C_R   0.080974 0.418996 0.499975 0.896422
C2    C     C_1   0.834476 0.659887 0.499876 0.141686
C3    C     C_1   0.334463 0.840124 0.499967 0.141714
C4    C     C_1   0.334498 0.159910 0.499783 0.141646
C5    C     C_1   0.873391 0.376190 0.499958 -0.064319
C6    C     C_1   0.873397 0.623814 0.500019 -0.064380
C7    C     C_1   0.373391 0.876190 0.499952 -0.064308
C8    C     C_1   0.373408 0.123826 0.500001 -0.064370
C9    C     C_3   0.014279 0.436783 0.052116 -0.362118
C10   C     C_3   0.014278 0.436783 0.947776 -0.358763
C11   C     C_3   0.047221 0.544202 0.052205 -0.364127
C12   C     C_R   0.080974 0.581004 0.500020 0.896736
C13   C     C_3   0.047221 0.544202 0.947867 -0.366360
C14   C     C_3   0.518244 0.937825 0.052117 -0.362579
C15   C     C_3   0.518242 0.937824 0.947777 -0.359486
C16   C     C_3   0.544338 0.047112 0.052207 -0.363542
C17   C     C_3   0.544338 0.047111 0.947870 -0.366092
C18   C     C_3   0.999767 0.500009 0.089790 0.216680
C19   C     C_3   0.999767 0.500008 0.910209 0.216981
C20   C     C_3   0.499769 0.000006 0.089790 0.216687
C21   C     C_3   0.499769 0.000005 0.910209 0.217363
C22   C     C_3   0.937791 0.519040 0.947843 -0.345287
C23   C     C_R   0.580974 0.918995 0.499977 0.896436
C24   C     C_3   0.937791 0.519041 0.052192 -0.343851
C25   C     C_3   0.436715 0.015081 0.947840 -0.345269
C26   C     C_3   0.436715 0.015083 0.052189 -0.343884
C27   C     C_1   0.999798 0.500004 0.809378 0.035678
C28   C     C_1   0.999798 0.500005 0.190622 0.036456
C29   C     C_1   0.499799 0.000003 0.809378 0.035192
C30   C     C_1   0.499799 0.000004 0.190622 0.036713
C31   C     C_R   0.918945 0.419111 0.499984 0.903845
C32   C     C_R   0.918945 0.580888 0.500015 0.904121
C33   C     C_R   0.418946 0.919111 0.499984 0.903800
C34   C     C_R   0.580974 0.081005 0.500021 0.896865
C35   C     C_R   0.418946 0.080889 0.500014 0.904327
C36   C     C_3   0.796943 0.251962 0.580736 0.039913
C37   C     C_3   0.794423 0.255537 0.415217 0.009908
C38   C     C_3   0.791904 0.741941 0.587426 0.010038
C39   C     C_3   0.799281 0.750374 0.422627 0.039866
C40   C     C_3   0.296275 0.752632 0.581623 0.039841
C41   C     C_3   0.295113 0.754845 0.416017 0.010006
C42   C     C_3   0.289879 0.239913 0.589280 0.009986
C43   C     C_3   0.301059 0.252156 0.425496 0.039918
C44   C     C_3   0.248647 0.702931 0.418948 -0.065290
C45   C     C_1   0.160044 0.665459 0.500352 0.003515
C46   C     C_3   0.239958 0.713217 0.592028 -0.059459
C47   C     C_3   0.245446 0.292267 0.412895 -0.058927
C48   C     C_3   0.243562 0.291984 0.587104 -0.065752
C49   C     C_3   0.747980 0.203599 0.418049 -0.065266
C50   C     C_3   0.740714 0.212460 0.591448 -0.059371
C51   C     C_3   0.743385 0.790204 0.410840 -0.059152
C52   C     C_3   0.745538 0.793958 0.584956 -0.065524
C53   C     C_1   0.123911 0.626571 0.500112 -0.203822
C54   C     C_1   0.123939 0.373456 0.499835 -0.203897
C55   C     C_1   0.623913 0.126569 0.500119 -0.203702
C56   C     C_1   0.160104 0.334597 0.499414 0.003521
C57   C     C_1   0.623925 0.873442 0.499853 -0.203932
C58   C     C_3   0.787235 0.296057 0.499990 -0.075126
C59   C     C_3   0.787252 0.703956 0.499704 -0.075031
C60   C     C_3   0.287234 0.796058 0.499905 -0.075188
C61   C     C_3   0.287281 0.203986 0.499471 -0.074973
C62   C     C_3   0.204370 0.712805 0.500452 0.149383
C63   C     C_3   0.204449 0.287270 0.498972 0.149472
C64   C     C_3   0.704376 0.212799 0.500530 0.149369
C65   C     C_3   0.704409 0.787230 0.499186 0.149467
C66   C     C_3   0.172248 0.776631 0.488669 0.146664
C67   C     C_1   0.660049 0.165454 0.500382 0.003494
C68   C     C_3   0.172006 0.223117 0.497738 0.146688
C69   C     C_3   0.672164 0.276715 0.490500 0.146251
C70   C     C_3   0.671994 0.723109 0.502923 0.146756
C71   C     C_3   0.722878 0.326945 0.503595 0.486698
C72   C     C_3   0.723091 0.673264 0.489888 0.486677
C73   C     C_3   0.222854 0.826968 0.501771 0.486816
C74   C     C_3   0.223404 0.173575 0.484783 0.486635
C75   C     C_3   0.254412 0.651610 0.634060 -0.851626
C76   C     C_3   0.280399 0.641426 0.415290 -0.890858
C77   C     C_3   0.274706 0.352890 0.603292 -0.890483
C78   C     C_1   0.660075 0.834569 0.499499 0.003520
C79   C     C_3   0.262142 0.356113 0.381448 -0.852146
C80   C     C_3   0.755509 0.150513 0.632085 -0.851697
C81   C     C_3   0.779695 0.142130 0.412689 -0.890986
C82   C     C_3   0.777005 0.855182 0.596387 -0.890703
C83   C     C_3   0.759304 0.853272 0.375287 -0.851892
C84   C     C_3   0.118661 0.784591 0.555225 -0.781577
C85   C     C_3   0.141521 0.781386 0.394927 -0.776494
C86   C     C_3   0.135749 0.212822 0.585928 -0.778016
C87   C     C_3   0.122701 0.219438 0.423443 -0.780428
C88   C     C_3   0.619128 0.284123 0.558169 -0.781700
C89   C     C_1   0.834464 0.340123 0.500001 0.141660
C90   C     C_3   0.640671 0.282238 0.397421 -0.775332
C91   C     C_3   0.637804 0.714887 0.593406 -0.778194
C92   C     C_3   0.621002 0.717744 0.431442 -0.780440
H1    H     H_    0.835691 0.222311 0.565257 0.156425
H2    H     H_    0.212162 0.734919 0.643645 0.217462
H3    H     H_    0.220980 0.273893 0.355036 0.217464
H4    H     H_    0.213370 0.287997 0.645560 0.213908
H5    H     H_    0.720960 0.204410 0.355961 0.213757
H6    H     H_    0.713346 0.233735 0.643961 0.217447
H7    H     H_    0.717605 0.770517 0.355255 0.217481
H8    H     H_    0.716720 0.791348 0.645104 0.213825
H9    H     H_    0.058849 0.421863 0.923062 0.172930
H10   H     H_    0.058851 0.421865 0.076801 0.172928
H11   H     H_    0.092482 0.531533 0.923156 0.171787
H12   H     H_    0.840570 0.236541 0.416677 0.163633
H13   H     H_    0.092482 0.531534 0.076893 0.171858
H14   H     H_    0.563666 0.925752 0.923065 0.172675
H15   H     H_    0.563668 0.925754 0.076804 0.172685
H16   H     H_    0.590309 0.037329 0.923161 0.171863
H17   H     H_    0.590308 0.037331 0.076898 0.171823
H18   H     H_    0.037842 0.590288 0.076944 0.179706
H19   H     H_    0.037843 0.590288 0.923206 0.178440
H20   H     H_    0.980680 0.403897 0.076790 0.186858
H21   H     H_    0.980679 0.403896 0.923048 0.188512
H22   H     H_    0.532068 0.092513 0.076946 0.180667
H23   H     H_    0.838032 0.760919 0.590221 0.163813
H24   H     H_    0.532070 0.092512 0.923207 0.178847
H25   H     H_    0.486789 0.902879 0.076789 0.185997
H26   H     H_    0.486786 0.902879 0.923048 0.187341
H27   H     H_    0.902599 0.487869 0.076870 0.194441
H28   H     H_    0.902599 0.487867 0.923117 0.195217
H29   H     H_    0.926126 0.564602 0.076935 0.191404
H30   H     H_    0.926124 0.564600 0.923178 0.189355
H31   H     H_    0.403560 0.981749 0.076864 0.194175
H32   H     H_    0.403560 0.981746 0.923111 0.195079
H33   H     H_    0.422197 0.059814 0.076930 0.192032
H34   H     H_    0.837508 0.779507 0.442543 0.156508
H35   H     H_    0.422196 0.059812 0.923174 0.189778
H36   H     H_    0.282868 0.623115 0.591555 0.251047
H37   H     H_    0.278329 0.658147 0.698371 0.275852
H38   H     H_    0.212547 0.626854 0.649406 0.246176
H39   H     H_    0.319575 0.639471 0.460553 0.240526
H40   H     H_    0.249294 0.604099 0.430772 0.256156
H41   H     H_    0.297874 0.633820 0.346715 0.264312
H42   H     H_    0.316458 0.357424 0.563950 0.240463
H43   H     H_    0.244510 0.391125 0.588764 0.256710
H44   H     H_    0.287918 0.356239 0.674682 0.264127
H45   H     H_    0.335144 0.722858 0.567395 0.156415
H46   H     H_    0.287771 0.381809 0.431285 0.251056
H47   H     H_    0.289903 0.353399 0.320031 0.276141
H48   H     H_    0.221282 0.381864 0.363883 0.245533
H49   H     H_    0.783612 0.122372 0.588547 0.251074
H50   H     H_    0.779953 0.156524 0.696068 0.275900
H51   H     H_    0.713772 0.125629 0.647743 0.246064
H52   H     H_    0.819240 0.139806 0.457192 0.240503
H53   H     H_    0.748716 0.104677 0.428056 0.256229
H54   H     H_    0.796604 0.135090 0.343666 0.264231
H55   H     H_    0.817818 0.858774 0.554705 0.240508
H56   H     H_    0.341244 0.735866 0.418666 0.163675
H57   H     H_    0.746471 0.893078 0.581467 0.256474
H58   H     H_    0.791863 0.860172 0.666840 0.264196
H59   H     H_    0.786059 0.880090 0.422422 0.251042
H60   H     H_    0.785626 0.849122 0.312648 0.276012
H61   H     H_    0.718045 0.878626 0.358529 0.245822
H62   H     H_    0.130549 0.779451 0.626388 0.242158
H63   H     H_    0.098546 0.829872 0.547633 0.275396
H64   H     H_    0.082444 0.751728 0.541356 0.232358
H65   H     H_    0.113443 0.741407 0.380821 0.226850
H66   H     H_    0.111433 0.821011 0.391382 0.274639
H67   H     H_    0.335902 0.258791 0.595423 0.163823
H68   H     H_    0.173693 0.786511 0.339456 0.273671
H69   H     H_    0.164451 0.204219 0.644582 0.274237
H70   H     H_    0.106772 0.251900 0.601522 0.226073
H71   H     H_    0.105728 0.173265 0.580054 0.273917
H72   H     H_    0.102406 0.173956 0.422154 0.275499
H73   H     H_    0.085650 0.251462 0.436754 0.232669
H74   H     H_    0.138828 0.228838 0.355164 0.242203
H75   H     H_    0.631598 0.278398 0.629010 0.242056
H76   H     H_    0.598957 0.329463 0.551774 0.275446
H77   H     H_    0.582796 0.251375 0.544362 0.232461
H78   H     H_    0.338784 0.280790 0.448857 0.156545
H79   H     H_    0.612476 0.242376 0.383100 0.227076
H80   H     H_    0.610557 0.321887 0.395150 0.274782
H81   H     H_    0.672384 0.287822 0.341465 0.273575
H82   H     H_    0.667850 0.707632 0.650957 0.274136
H83   H     H_    0.609181 0.754319 0.608460 0.226168
H84   H     H_    0.607689 0.675236 0.591119 0.274065
H85   H     H_    0.600710 0.672275 0.433544 0.275436
H86   H     H_    0.584266 0.750085 0.444991 0.232497
H87   H     H_    0.635535 0.725540 0.361928 0.242297
H88   H     H_    0.222139 0.703230 0.356360 0.213731
N1    N     N_1   0.999850 0.500000 0.731150 -0.072486
N2    N     N_1   0.999850 0.500000 0.268850 -0.072279
N3    N     N_1   0.499850 0.000000 0.731150 -0.072616
N4    N     N_1   0.499850 0.000000 0.268850 -0.072200
O1    O     O_R   0.061440 0.438650 0.574260 -0.613135
O2    O     O_R   0.938580 0.438650 0.425740 -0.596932
O3    O     O_R   0.938580 0.561350 0.574260 -0.597843
O4    O     O_R   0.938580 0.561350 0.425740 -0.590180
O5    O     O_R   0.438580 0.938650 0.574260 -0.591029
O6    O     O_R   0.438580 0.938650 0.425740 -0.596669
O7    O     O_R   0.438580 0.061350 0.574260 -0.598671
O8    O     O_R   0.438580 0.061350 0.425740 -0.589575
O9    O     O_R   0.061440 0.438650 0.425740 -0.615154
O10   O     O_R   0.061440 0.561350 0.574260 -0.615392
O11   O     O_R   0.061440 0.561350 0.425740 -0.613078
O12   O     O_R   0.561440 0.938650 0.574260 -0.613217
O13   O     O_R   0.561440 0.938650 0.425740 -0.615142
O14   O     O_R   0.561440 0.061350 0.574260 -0.615511
O15   O     O_R   0.561440 0.061350 0.425740 -0.612854
O16   O     O_R   0.938580 0.438650 0.574260 -0.590784
Zn1   Zn    Zn3+2 0.000010 0.500000 0.599130 1.013737
Zn2   Zn    Zn3+2 0.000010 0.500000 0.400870 1.014699
Zn3   Zn    Zn3+2 0.500010 0.000000 0.599130 1.013119
Zn4   Zn    Zn3+2 0.500010 0.000000 0.400870 1.015259

loop_
_geom_bond_atom_site_label_1
_geom_bond_atom_site_label_2
_ccdc_geom_bond_type
O8    Zn4   S    
C80   H50   S    
C28   N2    T    
C2    C59   S    
C40   C60   S    
C76   H40   S    
C87   H74   S    
C68   C86   S    
C25   C26   S    
C6    C32   S    
C42   H67   S    
C10   H9    S    
C9    H10   S    
C43   C61   S    
C16   H22   S    
C82   H55   S    
C11   H13   S    
C37   H12   S    
C47   C63   S    
C12   O11   A    
C38   H23   S    
C13   H11   S    
C32   O3    A    
C44   C62   S    
O10   Zn1   S    
C4    C61   S    
C18   C24   S    
O9    Zn2   S    
C16   C20   S    
C41   C60   S    
C3    C60   S    
C9    H20   S    
C48   C77   S    
C25   H35   S    
C56   C63   S    
C1    O9    A    
O14   Zn3   S    
C64   C67   S    
C63   C68   S    
C11   H18   S    
C35   O7    A    
C48   H4    S    
C38   C52   S    
C34   O14   A    
C12   O10   A    
C47   C79   S    
C11   C13   S    
C43   H78   S    
C79   H48   S    
C83   H60   S    
C51   H7    S    
C25   H32   S    
Br1   C37   S    
C5    C89   T    
C42   C61   S    
C85   H65   S    
C70   C91   S    
C32   O4    A    
C91   H84   S    
Br16  C71   S    
C20   C30   S    
C22   H28   S    
C58   C71   S    
C37   C49   S    
C83   H59   S    
C65   C70   S    
C51   C83   S    
C9    C18   S    
Br13  C40   S    
C39   C59   S    
C8    C35   S    
C44   C76   S    
C80   H49   S    
Br3   C72   S    
C1    C54   S    
C39   H34   S    
C2    C6    T    
C5    C31   S    
C46   C75   S    
C84   H63   S    
C21   C25   S    
C86   H71   S    
C12   C53   S    
C77   H42   S    
N2    Zn2   S    
Br9   C36   S    
C68   C74   S    
C57   C78   T    
C15   H26   S    
N1    Zn1   S    
O13   Zn4   S    
C55   C67   T    
C69   C71   S    
C11   C18   S    
C42   C48   S    
C24   H27   S    
C10   H21   S    
C61   C74   S    
C23   O13   A    
C84   H62   S    
C59   C72   S    
C81   H52   S    
C4    C8    T    
C87   H72   S    
C19   C22   S    
N3    Zn3   S    
O16   Zn1   S    
O3    Zn1   S    
C35   O8    A    
C41   C44   S    
O6    Zn4   S    
C9    C10   S    
Br7   C74   S    
C17   C21   S    
C15   C21   S    
C31   O2    A    
O4    Zn2   S    
C16   H17   S    
C3    C7    T    
C34   C55   S    
C64   C69   S    
C88   H77   S    
C17   H16   S    
C62   C66   S    
C30   N4    T    
C46   H2    S    
C45   C62   S    
C14   H25   S    
C31   O16   A    
C88   H75   S    
C26   H33   S    
C22   H30   S    
C18   C28   S    
Br2   C71   S    
C27   N1    T    
C14   H15   S    
C92   H87   S    
C1    O1    A    
Br10  C39   S    
C66   C73   S    
C82   H58   S    
C69   C88   S    
C52   H8    S    
C24   H29   S    
Br4   C72   S    
Br12  C41   S    
C17   H24   S    
Br11  C38   S    
C85   H66   S    
C33   O5    A    
C51   C65   S    
C81   H53   S    
C13   H19   S    
N4    Zn4   S    
Br15  C42   S    
C40   C46   S    
C43   C47   S    
C77   H43   S    
Br8   C74   S    
C52   C65   S    
C21   C29   S    
C69   C90   S    
C75   H37   S    
C36   C50   S    
C84   H64   S    
C44   H88   S    
C50   C80   S    
C75   H36   S    
C45   C53   T    
C68   C87   S    
O11   Zn2   S    
C13   C19   S    
O5    Zn3   S    
C50   H6    S    
C88   H76   S    
C26   H31   S    
C87   H73   S    
C49   H5    S    
C46   C62   S    
C70   C92   S    
C15   H14   S    
C40   H45   S    
C77   H44   S    
C20   C26   S    
C90   H79   S    
C39   C51   S    
C83   H61   S    
O12   Zn3   S    
C36   H1    S    
C29   N3    T    
Br6   C73   S    
C50   C64   S    
C60   C73   S    
O7    Zn3   S    
C14   C20   S    
C79   H46   S    
C16   C17   S    
O2    Zn2   S    
C19   C27   S    
O1    Zn1   S    
O15   Zn4   S    
C58   C89   S    
C22   C24   S    
C65   C78   S    
C14   C15   S    
C41   H56   S    
C34   O15   A    
C86   H70   S    
C91   H82   S    
C66   C84   S    
C48   C63   S    
C66   C85   S    
C23   O12   A    
C70   C72   S    
C79   H47   S    
C23   C57   S    
C47   H3    S    
C52   C82   S    
C82   H57   S    
C7    C33   S    
C90   H80   S    
C38   C59   S    
C10   C19   S    
C80   H51   S    
C33   O6    A    
C49   C81   S    
C81   H54   S    
C91   H83   S    
C76   H41   S    
C49   C64   S    
C86   H69   S    
C85   H68   S    
C54   C56   T    
C36   C58   S    
C90   H81   S    
Br14  C43   S    
C92   H85   S    
C92   H86   S    
C75   H38   S    
Br5   C73   S    
C76   H39   S    
C37   C58   S    
