data_mof_unit_22927.cif
_audit_creation_date              2013-03-05T16:43:03-0500
_audit_creation_method            fapswitch 2.2
_symmetry_space_group_name_H-M    P1
_symmetry_Int_Tables_number       1
_space_group_crystal_system       triclinic
_cell_length_a                    10.674139
_cell_length_b                    10.755397
_cell_length_c                    9.930641
_cell_angle_alpha                 89.843416
_cell_angle_beta                  89.712456
_cell_angle_gamma                 91.01171
_cell_volume                      1139.886669

loop_
_atom_site_label
_atom_site_type_symbol
_atom_site_description
_atom_site_fract_x
_atom_site_fract_y
_atom_site_fract_z
_atom_type_partial_charge
O1    O     O_R   0.500020 0.316790 0.614690 -0.620276
O2    O     O_R   0.500000 0.316760 0.385350 -0.602270
C1    C     C_R   0.503417 0.260539 0.500415 0.940597
O3    O     O_R   0.314800 0.500000 0.614670 -0.578799
O4    O     O_R   0.314790 0.499960 0.385330 -0.562011
C2    C     C_R   0.257740 0.500728 0.500148 0.965773
Zn1   Zn    Zn3+2 0.500010 0.500020 0.653130 1.011076
Zn2   Zn    Zn3+2 0.499990 0.499980 0.346870 1.046526
O5    O     O_R   0.500000 0.683240 0.614650 -0.625133
O6    O     O_R   0.499980 0.683210 0.385310 -0.591256
O7    O     O_R   0.685210 0.500040 0.614670 -0.633609
O8    O     O_R   0.685200 0.500000 0.385330 -0.652146
C3    C     C_R   0.496148 0.739780 0.499042 0.906631
C4    C     C_R   0.741837 0.501096 0.499977 0.845732
C5    C     C_3   0.068496 0.491599 0.645560 -0.263287
H1    H     H_    0.110739 0.563922 0.711280 0.266000
H2    H     H_    0.090678 0.399757 0.688029 0.271939
C6    C     C_3   0.927483 0.504834 0.646609 -0.326513
H3    H     H_    0.885429 0.428925 0.709659 0.232686
H4    H     H_    0.902328 0.594622 0.694442 0.210078
H5    H     H_    0.888278 0.701930 0.465657 0.230221
C7    C     C_3   0.073415 0.620274 0.429354 0.109620
C8    C     C_3   0.067991 0.385286 0.417685 0.129785
C9    C     C_3   0.120666 0.499398 0.499841 -0.218099
H6    H     H_    0.087883 0.405585 0.310303 0.100673
C10   C     C_3   0.877773 0.499748 0.500082 -0.023241
C11   C     C_3   0.928886 0.615836 0.422927 -0.526279
C12   C     C_3   0.923378 0.378594 0.431261 0.208538
H7    H     H_    0.883620 0.371290 0.327574 0.099505
H8    H     H_    0.108988 0.621240 0.323525 0.165295
H9    H     H_    0.899277 0.611417 0.315644 0.182601
C13   C     C_R   0.478270 0.063228 0.619443 0.191785
C14   C     C_R   0.499410 0.128581 0.500464 -0.180432
C15   C     C_R   0.502813 0.066504 0.377798 -0.198706
H10   H     H_    0.520682 0.116584 0.285574 0.230084
C16   C     C_R   0.486608 0.939284 0.372478 0.350401
C17   C     C_R   0.482922 0.871834 0.495547 -0.220352
C18   C     C_R   0.472218 0.935834 0.617144 0.162469
C19   C     C_3   0.547192 0.924536 0.743217 -0.431918
C20   C     C_3   0.555025 0.065073 0.744902 -0.463668
H11   H     H_    0.490601 0.885139 0.827923 0.251087
H12   H     H_    0.639430 0.880446 0.726396 0.203594
H13   H     H_    0.504359 0.106168 0.831151 0.205491
H14   H     H_    0.651520 0.102933 0.728057 0.221986
C21   C     C_R   0.473671 0.392894 0.071306 0.057562
N1    N     N_R   0.499150 0.499140 0.142800 -0.089433
C22   C     C_R   0.546365 0.598577 0.071224 -0.014684
H15   H     H_    0.583470 0.678273 0.124352 0.184639
C23   C     C_R   0.547625 0.598086 0.927655 -0.026843
H16   H     H_    0.585319 0.677785 0.873744 0.132483
N2    N     N_R   0.499150 0.499180 0.857150 -0.072186
C24   C     C_R   0.463542 0.397121 0.929966 -0.051656
C25   C     C_3   0.338923 0.330047 0.930466 0.026479
C26   C     C_3   0.359388 0.310152 0.080985 0.719684
H17   H     H_    0.336564 0.244336 0.868328 0.121857
N3    N     N_R   0.478010 0.882312 0.242168 0.218313
O9    O     O_R   0.376468 0.820901 0.209848 -0.294517
O10   O     O_R   0.554999 0.917433 0.146782 -0.446535
N4    N     N_R   0.231367 0.410198 0.907781 0.228172
O11   O     O_R   0.119679 0.361162 0.921399 -0.407000
O12   O     O_R   0.243972 0.530709 0.913989 -0.352850
O13   O     O_3   0.266355 0.358451 0.163931 -0.678438
H18   H     H_    0.195358 0.297936 0.158796 0.380879
O14   O     O_3   0.385077 0.185911 0.113739 -0.742112
H19   H     H_    0.457157 0.158786 0.058204 0.308607
N5    N     N_R   0.119191 0.734839 0.494678 0.229914
O15   O     O_R   0.076506 0.768869 0.611644 -0.364937
O16   O     O_R   0.193066 0.810811 0.428514 -0.318013
N6    N     N_R   0.124904 0.264463 0.448748 0.275154
O17   O     O_R   0.101071 0.169864 0.370995 -0.286553
O18   O     O_R   0.198015 0.248765 0.551629 -0.387394
O19   O     O_3   0.885203 0.273546 0.507222 -0.692163
H20   H     H_    0.798393 0.251570 0.479409 0.319389

loop_
_geom_bond_atom_site_label_1
_geom_bond_atom_site_label_2
_geom_bond_distance
_ccdc_geom_bond_type
O4    Zn2   2.011522 S    
N5    O16   1.300117 A    
C8    C9    1.572828 S    
Zn1   O5    2.006288 S    
O13   H18   0.991806 S    
C16   N3    1.435978 S    
C13   C18   1.370814 A    
C5    C6    1.514398 S    
C21   C24   1.408964 A    
C26   O13   1.395291 S    
C8    N6    1.476639 S    
C10   C12   1.557543 S    
C22   H15   1.078201 S    
C6    C10   1.552109 S    
O8    C4    1.291732 A    
Zn2   O8    2.015389 S    
N6    O17   1.301250 A    
C2    C9    1.462982 S    
C13   C14   1.388586 A    
C23   H16   1.080021 S    
C25   H17   1.110711 S    
C14   C15   1.391344 A    
C25   N4    1.465757 S    
Zn1   N2    2.026019 S    
N4    O11   1.301348 A    
C19   H11   1.111729 S    
O1    Zn1   2.008368 S    
C25   C26   1.526748 S    
C4    C10   1.451333 S    
Zn1   O7    2.011520 S    
C12   H7    1.118107 S    
C10   C11   1.552483 S    
C12   O19   1.409825 S    
C26   O14   1.406430 S    
C16   C17   1.419564 A    
O3    Zn1   2.015391 S    
O4    C2    1.290055 A    
O14   H19   0.992863 S    
Zn2   O6    2.008368 S    
C5    C9    1.549445 S    
C17   C18   1.396765 A    
N3    O10   1.301761 A    
C21   C26   1.499772 S    
N5    O15   1.301398 A    
C19   H12   1.112379 S    
O2    C1    1.292315 A    
C7    C11   1.544263 S    
C8    H6    1.106662 S    
H5    C11   1.113483 S    
C18   C19   1.495117 S    
O7    C4    1.286675 A    
C7    C9    1.567255 S    
N4    O12   1.302402 A    
O3    C2    1.292864 A    
C5    H2    1.103020 S    
C1    C14   1.419151 S    
C11   H9    1.113697 S    
C5    H1    1.108002 S    
C21   N1    1.370848 A    
C20   H14   1.112561 S    
C13   C20   1.494551 S    
C6    H3    1.114245 S    
N3    O9    1.301317 A    
C15   C16   1.377346 A    
C6    H4    1.113866 S    
C22   C23   1.425748 A    
C15   H10   1.075733 S    
C19   C20   1.512504 S    
N6    O18   1.301177 A    
O5    C3    1.298874 A    
N1    C22   1.369761 A    
C7    N5    1.471106 S    
C7    H8    1.115609 S    
Zn2   N1    2.026655 S    
C23   N2    1.370344 A    
C8    C12   1.549214 S    
C3    C17   1.430109 S    
C20   H13   1.107838 S    
O2    Zn2   2.006288 S    
N2    C24   1.360309 A    
C24   C25   1.501971 S    
O19   H20   0.992957 S    
O1    C1    1.288135 A    
O6    C3    1.285171 A    
