data_mof_unit_41336.cif
_audit_creation_date              2012-12-11T15:26:56-0500
_audit_creation_method            fapswitch 2.2
_symmetry_space_group_name_H-M    P1
_symmetry_Int_Tables_number       1
_space_group_crystal_system       triclinic
_cell_length_a                    13.894444
_cell_length_b                    13.893625
_cell_length_c                    27.440623
_cell_angle_alpha                 89.998953
_cell_angle_beta                  89.998798
_cell_angle_gamma                 119.998996
_cell_volume                      4587.60204514

loop_
_atom_site_label
_atom_site_type_symbol
_atom_type_description
_atom_site_fract_x
_atom_site_fract_y
_atom_site_fract_z
_atom_type_partial_charge
C1    C     C_R   0.234057 0.787306 0.568556 0.542143
C2    C     C_R   0.212694 0.446751 0.568555 0.542128
C3    C     C_R   0.553247 0.765942 0.568557 0.542140
C4    C     C_3   0.684953 0.746596 0.785214 -0.205884
C5    C     C_3   0.253391 0.938375 0.785207 -0.205884
C6    C     C_3   0.061660 0.315055 0.785215 -0.205883
C7    C     C_3   0.650771 0.729091 0.730911 -0.215112
C8    C     C_3   0.270891 0.921702 0.730903 -0.215112
C9    C     C_3   0.078321 0.349219 0.730909 -0.215120
C10   C     C_1   0.757284 0.883015 0.852340 -0.076287
C11   C     C_1   0.116990 0.874271 0.852341 -0.076278
C12   C     C_1   0.125735 0.242712 0.852341 -0.076269
C13   C     C_1   0.636525 0.820239 0.656555 -0.077700
C14   C     C_1   0.179756 0.816295 0.656554 -0.077699
C15   C     C_1   0.183706 0.363463 0.656554 -0.077697
C16   C     C_1   0.604404 0.799192 0.615217 -0.017086
C17   C     C_1   0.200804 0.805217 0.615215 -0.017084
C18   C     C_1   0.194783 0.395587 0.615215 -0.017077
C19   C     C_R   0.072227 0.164590 0.941538 0.518980
C20   C     C_R   0.835410 0.907636 0.941536 0.518980
C21   C     C_R   0.092369 0.927775 0.941537 0.518986
C22   C     C_R   0.623185 0.808311 0.387714 0.025574
C23   C     C_R   0.191860 0.814923 0.387664 0.025644
C24   C     C_R   0.185123 0.376775 0.387720 0.025529
C25   C     C_R   0.647490 0.910149 0.366674 -0.126977
C26   C     C_R   0.089625 0.737766 0.366793 -0.126925
C27   C     C_R   0.262691 0.352540 0.366670 -0.126909
C28   C     C_R   0.694900 0.938226 0.320352 -0.122249
C29   C     C_R   0.061526 0.757097 0.320469 -0.122146
C30   C     C_R   0.243334 0.305066 0.320361 -0.122173
C31   C     C_R   0.716993 0.864048 0.294611 0.036898
C32   C     C_R   0.136052 0.852997 0.294580 0.036880
C33   C     C_R   0.146996 0.282826 0.294639 0.036881
C34   C     C_R   0.233219 0.788189 0.431665 0.544586
C35   C     C_R   0.211817 0.445006 0.431675 0.544602
C36   C     C_R   0.554998 0.766811 0.431678 0.544600
C37   C     C_R   0.697938 0.765330 0.317054 -0.118303
C38   C     C_R   0.235257 0.932282 0.316829 -0.118409
C39   C     C_R   0.067290 0.301791 0.317099 -0.118233
C40   C     C_R   0.653188 0.738630 0.363306 -0.123806
C41   C     C_R   0.262019 0.914243 0.363064 -0.123688
C42   C     C_R   0.085375 0.346620 0.363339 -0.123752
C43   C     C_R   0.821684 0.845493 0.225734 -0.112352
C44   C     C_R   0.154653 0.976261 0.225723 -0.112339
C45   C     C_R   0.023767 0.178060 0.225760 -0.112274
C46   C     C_R   0.842294 0.848249 0.176433 -0.139348
C47   C     C_R   0.151839 0.994106 0.176423 -0.139267
C48   C     C_R   0.005909 0.157465 0.176456 -0.139361
C49   C     C_R   0.732470 0.935915 0.161062 -0.124577
C50   C     C_R   0.063820 0.796556 0.161096 -0.124658
C51   C     C_R   0.203375 0.267426 0.161077 -0.124570
C52   C     C_R   0.706828 0.928447 0.210590 -0.127541
C53   C     C_R   0.071242 0.778381 0.210627 -0.127597
C54   C     C_R   0.221547 0.293057 0.210605 -0.127522
C55   C     C_R   0.751966 0.883535 0.243339 0.027957
C56   C     C_R   0.116398 0.868471 0.243341 0.027936
C57   C     C_R   0.131512 0.247845 0.243363 0.028006
C58   C     C_R   0.802635 0.897524 0.144184 0.014910
C59   C     C_R   0.102401 0.905139 0.144193 0.014886
C60   C     C_R   0.094836 0.197217 0.144198 0.014858
C61   C     C_R   0.069726 0.159102 0.093960 0.508884
C62   C     C_R   0.840854 0.910603 0.093963 0.508829
C63   C     C_R   0.089382 0.930264 0.093960 0.508887
C64   C     C_3   0.592395 0.873427 0.736362 -0.192853
C65   C     C_3   0.126606 0.718981 0.736362 -0.192855
C66   C     C_3   0.281021 0.407607 0.736357 -0.192858
C67   C     C_3   0.789768 0.929997 0.714390 -0.221402
C68   C     C_3   0.069984 0.859759 0.714394 -0.221405
C69   C     C_3   0.140225 0.210215 0.714393 -0.221404
C70   C     C_3   0.820555 0.947621 0.769097 -0.234135
C71   C     C_3   0.052364 0.872921 0.769103 -0.234135
C72   C     C_3   0.127051 0.179425 0.769101 -0.234143
C73   C     C_1   0.791485 0.894585 0.893402 -0.030329
C74   C     C_1   0.105422 0.896902 0.893404 -0.030326
C75   C     C_1   0.103101 0.208514 0.893404 -0.030328
C76   C     C_3   0.667039 0.838353 0.708202 0.062228
C77   C     C_3   0.161644 0.828694 0.708201 0.062226
C78   C     C_3   0.171309 0.332951 0.708202 0.062223
C79   C     C_3   0.624933 0.892533 0.791516 -0.080718
C80   C     C_3   0.107494 0.732406 0.791517 -0.080722
C81   C     C_3   0.267605 0.375049 0.791510 -0.080720
C82   C     C_3   0.720901 0.867031 0.801239 0.088290
C83   C     C_3   0.132971 0.853874 0.801239 0.088294
C84   C     C_3   0.146133 0.279091 0.801239 0.088297
Cr1   Cr    Cr6+3 0.164410 0.584450 0.499910 1.016671
Cr2   Cr    Cr6+3 0.415550 0.579960 0.499910 1.016639
Cr3   Cr    Cr6+3 0.420040 0.835590 0.499910 1.016622
Cr4   Cr    Cr6+3 0.156760 0.076070 0.017830 1.015131
Cr5   Cr    Cr6+3 0.923930 0.080690 0.017830 1.015150
Cr6   Cr    Cr6+3 0.919310 0.843240 0.017830 1.015132
H1    H     H_    0.656956 0.981975 0.799871 0.126549
H2    H     H_    0.018060 0.674979 0.799872 0.126555
H3    H     H_    0.325007 0.342999 0.799850 0.126546
H4    H     H_    0.503548 0.808551 0.731546 0.115956
H5    H     H_    0.191496 0.695030 0.731544 0.115963
H6    H     H_    0.304969 0.496454 0.731548 0.115965
H7    H     H_    0.754904 0.730241 0.790642 0.104518
H8    H     H_    0.269726 0.024676 0.790637 0.104510
H9    H     H_    0.975355 0.245111 0.790653 0.104518
H10   H     H_    0.625869 0.965727 0.385039 0.123444
H11   H     H_    0.033699 0.660868 0.385305 0.123326
H12   H     H_    0.339940 0.374274 0.385013 0.123552
H13   H     H_    0.858510 0.811088 0.249835 0.112684
H14   H     H_    0.189314 0.047505 0.249824 0.112787
H15   H     H_    0.952543 0.141172 0.249866 0.112759
H16   H     H_    0.889154 0.811534 0.163183 0.117043
H17   H     H_    0.188671 0.077698 0.163161 0.117097
H18   H     H_    0.922336 0.110562 0.163212 0.117019
H19   H     H_    0.711047 0.015959 0.304144 0.096334
H20   H     H_    0.983471 0.695816 0.304377 0.096366
H21   H     H_    0.304958 0.288989 0.304146 0.096394
H22   H     H_    0.650231 0.955531 0.222982 0.110628
H23   H     H_    0.043973 0.694681 0.223056 0.110730
H24   H     H_    0.305215 0.349715 0.222990 0.110632
H25   H     H_    0.698966 0.972429 0.136287 0.135408
H26   H     H_    0.027166 0.726514 0.136339 0.135389
H27   H     H_    0.273387 0.301012 0.136298 0.135403
H28   H     H_    0.711630 0.705000 0.298019 0.101097
H29   H     H_    0.295835 0.005963 0.297645 0.101255
H30   H     H_    0.993206 0.287977 0.298085 0.101138
H31   H     H_    0.601947 0.951465 0.720480 0.100534
H32   H     H_    0.048583 0.650484 0.720483 0.100532
H33   H     H_    0.349511 0.398079 0.720468 0.100535
H34   H     H_    0.635951 0.659678 0.378556 0.131788
H35   H     H_    0.341341 0.975646 0.378150 0.131842
H36   H     H_    0.023631 0.363794 0.378600 0.131838
H37   H     H_    0.845099 0.906154 0.694953 0.114139
H38   H     H_    0.093802 0.938928 0.694956 0.114140
H39   H     H_    0.061061 0.154879 0.694955 0.114138
H40   H     H_    0.803536 0.009322 0.698147 0.112231
H41   H     H_    0.990669 0.794189 0.698157 0.112231
H42   H     H_    0.205786 0.196452 0.698155 0.112236
H43   H     H_    0.847907 0.035110 0.779277 0.102041
H44   H     H_    0.964886 0.812778 0.779288 0.102041
H45   H     H_    0.187167 0.152053 0.779284 0.102035
H46   H     H_    0.890953 0.933464 0.775605 0.102730
H47   H     H_    0.066502 0.957473 0.775610 0.102728
H48   H     H_    0.042492 0.109034 0.775610 0.102733
H49   H     H_    0.562203 0.662423 0.727699 0.110095
H50   H     H_    0.337572 0.899820 0.727685 0.110101
H51   H     H_    0.100212 0.437787 0.727689 0.110096
H52   H     H_    0.701624 0.700511 0.710877 0.113339
H53   H     H_    0.299444 0.001133 0.710868 0.113340
H54   H     H_    0.998889 0.298349 0.710881 0.113342
H55   H     H_    0.614998 0.685220 0.808037 0.117682
H56   H     H_    0.314777 0.929805 0.808025 0.117678
H57   H     H_    0.070259 0.385026 0.808033 0.117675
O1    O     O_R   0.137310 0.468260 0.552980 -0.510688
O2    O     O_R   0.531740 0.669050 0.552980 -0.510687
O3    O     O_R   0.330950 0.862690 0.552980 -0.510656
O4    O     O_R   0.180530 0.983530 0.965090 -0.482999
O5    O     O_R   0.016470 0.197000 0.965090 -0.483006
O6    O     O_R   0.803000 0.819470 0.965090 -0.483001
O7    O     O_R   0.174120 0.688790 0.549730 -0.499690
O8    O     O_R   0.311210 0.485330 0.549730 -0.499679
O9    O     O_R   0.514670 0.825880 0.549730 -0.499681
O10   O     O_R   0.139940 0.470480 0.446230 -0.523424
O11   O     O_R   0.529520 0.669460 0.446230 -0.523502
O12   O     O_R   0.330540 0.860060 0.446230 -0.523552
O13   O     O_R   0.176560 0.690850 0.450770 -0.503351
O14   O     O_R   0.309150 0.485710 0.450770 -0.503452
O15   O     O_R   0.514290 0.823440 0.450770 -0.503481
O16   O     O_3   0.333333 0.666667 0.499990 -0.261486
O17   O     O_3   0.000000 0.000000 0.017910 -0.343695
O18   O     O_R   0.149710 0.171070 0.967700 -0.486557
O19   O     O_R   0.828930 0.978640 0.967700 -0.486551
O20   O     O_R   0.021360 0.850290 0.967700 -0.486561
O21   O     O_R   0.178510 0.985930 0.071830 -0.482975
O22   O     O_R   0.014070 0.192580 0.071830 -0.482932
O23   O     O_R   0.807420 0.821490 0.071830 -0.482978
O24   O     O_R   0.147830 0.173300 0.066650 -0.494055
O25   O     O_R   0.826700 0.974530 0.066650 -0.494042
O26   O     O_R   0.025470 0.852170 0.066650 -0.494040
C85   C     C_3   0.522455 0.826566 0.824188 -0.422901
H58   H     H_    0.462985 0.856726 0.818118 0.113228
H59   H     H_    0.479724 0.736590 0.815640 0.132760
H60   H     H_    0.546002 0.838907 0.863292 0.158322
C86   C     C_3   0.173468 0.695903 0.824187 -0.422932
H61   H     H_    0.143365 0.606293 0.818105 0.113219
H62   H     H_    0.263436 0.743181 0.815654 0.132774
H63   H     H_    0.161083 0.707057 0.863286 0.158321
C87   C     C_3   0.304160 0.477524 0.824190 -0.422901
H64   H     H_    0.393762 0.537022 0.818079 0.113214
H65   H     H_    0.256868 0.520227 0.815689 0.132784
H66   H     H_    0.293070 0.453973 0.863294 0.158303

loop_
_geom_bond_atom_site_label_1
_geom_bond_atom_site_label_2
_ccdc_geom_bond_type
C58   C62   S    
C15   C18   T    
Cr3   O16   S    
C2    O8    A    
Cr6   O20   S    
C2    C18   S    
C24   C42   A    
C79   C85   S    
C24   C27   A    
C6    C9    S    
C86   H61   S    
C44   H14   S    
C71   H47   S    
C25   C28   A    
Cr6   O26   S    
C45   C57   A    
C35   O14   A    
C50   C59   A    
C29   C32   A    
C4    C7    S    
C26   H11   S    
C5    C83   S    
C10   C73   T    
C14   C77   S    
C15   C78   S    
C52   H22   S    
C2    O1    A    
C39   H30   S    
C54   H24   S    
C12   C84   S    
C23   C26   A    
C87   H64   S    
C51   H27   S    
C85   H58   S    
Cr5   O5    S    
C37   H28   S    
C53   H23   S    
Cr4   O21   S    
Cr3   O3    S    
C70   H43   S    
Cr1   O1    S    
C48   C60   A    
C61   O24   A    
Cr1   O13   S    
C32   C38   A    
C68   H38   S    
Cr5   O17   S    
C79   H1    S    
C44   C47   A    
C36   O11   A    
Cr1   O7    S    
C34   O12   A    
C49   C52   A    
C72   H48   S    
Cr4   O24   S    
C4    H7    S    
C46   C58   A    
C27   C30   A    
C70   H46   S    
C14   C17   T    
C69   C78   S    
Cr1   O10   S    
C81   C87   S    
C71   H44   S    
C80   C83   S    
C40   H34   S    
C9    H54   S    
C45   H15   S    
C63   O26   A    
C39   C42   A    
C87   H65   S    
C62   O23   A    
C3    O2    A    
C24   C35   S    
C6    C84   S    
C20   O6    A    
C50   C53   A    
C41   H35   S    
C29   H20   S    
C65   C77   S    
C38   C41   A    
Cr2   O2    S    
C9    H51   S    
C72   H45   S    
C11   C83   S    
Cr4   O17   S    
C47   C59   A    
C21   C74   S    
C22   C25   A    
C49   C58   A    
C31   C37   A    
Cr6   O17   S    
C60   C61   S    
C87   H66   S    
C80   C86   S    
C80   H2    S    
C68   H41   S    
Cr2   O8    S    
C35   O10   A    
C67   H37   S    
C5    C8    S    
C81   H3    S    
C44   C56   A    
C25   H10   S    
C13   C76   S    
C23   C34   S    
C22   C40   A    
Cr6   O23   S    
C19   O5    A    
C64   C76   S    
C1    O3    A    
Cr2   O14   S    
C33   C39   A    
C65   H32   S    
Cr6   O6    S    
Cr2   O11   S    
C85   H60   S    
C72   C84   S    
C38   H29   S    
C66   C78   S    
C43   C55   A    
C63   O21   A    
C49   H25   S    
C47   H17   S    
C8    C77   S    
Cr1   O16   S    
Cr4   O4    S    
C13   C16   T    
C67   H40   S    
C61   O22   A    
Cr3   O12   S    
C69   H42   S    
C81   C84   S    
C62   O25   A    
C66   H6    S    
C45   C48   A    
C68   C77   S    
C33   C57   S    
C5    H56   S    
C30   C33   A    
C66   H33   S    
C59   C63   S    
C20   O19   A    
C28   C31   A    
Cr5   O25   S    
C69   C72   S    
C11   C74   T    
C21   O20   A    
C79   C82   S    
C86   H62   S    
C52   C55   A    
C7    C76   S    
Cr2   O16   S    
C28   H19   S    
C37   C40   A    
C22   C36   S    
C27   H12   S    
C1    C17   S    
C23   C41   A    
C30   H21   S    
C8    H50   S    
C67   C70   S    
C6    H9    S    
C51   C54   A    
C51   C60   A    
C19   C75   S    
Cr5   O22   S    
C66   C81   S    
C7    H49   S    
C6    H57   S    
C48   H18   S    
C36   O15   A    
C68   C71   S    
C4    H55   S    
C46   H16   S    
C3    O9    A    
C64   C79   S    
C85   H59   S    
C10   C82   S    
C20   C73   S    
C8    H53   S    
C50   H26   S    
C9    C78   S    
C21   O4    A    
C1    O7    A    
C70   C82   S    
C43   C46   A    
C43   H13   S    
Cr5   O19   S    
C86   H63   S    
C42   H36   S    
C64   H4    S    
C65   H5    S    
Cr3   O15   S    
C4    C82   S    
C5    H8    S    
C26   C29   A    
C69   H39   S    
Cr4   O18   S    
C12   C75   T    
C53   C56   A    
C65   C80   S    
Cr3   O9    S    
C71   C83   S    
C67   C76   S    
C19   O18   A    
C31   C55   S    
C32   C56   S    
C7    H52   S    
C3    C16   S    
C64   H31   S    
C54   C57   A    
C34   O13   A    
