data_mof_unit_31146.cif
_audit_creation_date              2012-12-10T17:09:56-0500
_audit_creation_method            fapswitch 2.2
_symmetry_space_group_name_H-M    P1
_symmetry_Int_Tables_number       1
_space_group_crystal_system       triclinic
_cell_length_a                    10.855993
_cell_length_b                    13.133596
_cell_length_c                    11.798995
_cell_angle_alpha                 100.299768
_cell_angle_beta                  94.846518
_cell_angle_gamma                 91.046777
_cell_volume                      1648.29724677

loop_
_atom_site_label
_atom_site_type_symbol
_atom_type_description
_atom_site_fract_x
_atom_site_fract_y
_atom_site_fract_z
_atom_type_partial_charge
C1    C     C_R   0.506389 0.299320 0.478643 0.855904
C2    C     C_R   0.068200 0.527464 0.602644 0.015626
C3    C     C_R   0.125727 0.516280 0.497817 -0.149313
C4    C     C_R   0.051305 0.492084 0.391390 -0.091643
C5    C     C_R   0.925785 0.466335 0.390844 -0.102789
C6    C     C_R   0.871656 0.471874 0.496543 -0.097775
C7    C     C_R   0.484186 0.815041 0.534741 -0.177719
C8    C     C_R   0.516083 0.185047 0.467040 -0.075858
C9    C     C_R   0.514558 0.012530 0.346594 -0.078886
C10   C     C_R   0.527615 0.121162 0.358278 -0.095614
C11   C     C_R   0.512938 0.138474 0.565998 -0.100652
C12   C     C_R   0.262136 0.508734 0.500016 0.798936
C13   C     C_R   0.486896 0.031580 0.553859 -0.019910
C14   C     C_R   0.487232 0.967905 0.443564 0.095190
C15   C     C_R   0.463407 0.860688 0.434944 -0.043964
C16   C     C_R   0.487232 0.880257 0.644973 -0.060029
C17   C     C_R   0.464937 0.985929 0.650946 -0.078467
C18   C     C_R   0.372550 0.410711 0.021757 -0.121378
C19   C     C_R   0.395297 0.409688 0.141309 0.169121
C20   C     C_R   0.550644 0.542960 0.159434 0.103976
C21   C     C_R   0.544983 0.535448 0.035236 -0.007129
C22   C     C_R   0.452025 0.469291 0.965213 -0.050535
C23   C     C_R   0.496035 0.700913 0.521829 0.819320
C24   C     C_R   0.444503 0.462219 0.841325 0.100564
C25   C     C_R   0.613391 0.582367 0.856103 0.099114
C26   C     C_R   0.627549 0.591246 0.977766 -0.153196
C27   C     C_R   0.736863 0.487893 0.498933 0.861068
C28   C     C_R   0.122035 0.584687 0.708684 -0.049255
C29   C     C_R   0.078688 0.568930 0.813312 -0.065051
C30   C     C_R   0.979531 0.498019 0.810943 -0.102444
C31   C     C_R   0.914453 0.453611 0.704137 -0.047174
C32   C     C_R   0.949582 0.483067 0.600917 0.075281
Cu1   Cu    Cu3+1 0.509250 0.507730 0.615930 0.983489
Cu2   Cu    Cu3+1 0.490750 0.492270 0.384070 0.993933
N1    N     N_R   0.523180 0.519350 0.790130 -0.236085
N2    N     N_R   0.476820 0.480650 0.209890 -0.245782
O1    O     O_R   0.506570 0.354460 0.582000 -0.586736
O2    O     O_R   0.490940 0.341410 0.386200 -0.590730
O3    O     O_R   0.327470 0.506530 0.597920 -0.580459
O4    O     O_R   0.311840 0.493480 0.402120 -0.618607
O5    O     O_R   0.509060 0.658590 0.613800 -0.586225
O6    O     O_R   0.493430 0.645540 0.418000 -0.580947
O7    O     O_R   0.688160 0.506520 0.597880 -0.597298
O8    O     O_R   0.672530 0.493470 0.402080 -0.586120
C33   C     C_1   0.098494 0.503388 0.282563 0.300131
N3    N     N_1   0.135125 0.513393 0.195785 -0.258499
C34   C     C_2   0.404433 0.046110 0.750478 0.410211
H1    H     H_    0.351861 0.113292 0.737731 0.093688
O9    O     O_2   0.411002 0.022283 0.846087 -0.506750
C35   C     C_2   0.571462 0.165108 0.260443 0.447496
H2    H     H_    0.529370 0.139546 0.173111 0.106438
O10   O     O_2   0.659729 0.226424 0.276249 -0.501569
C36   C     C_1   0.556231 0.195769 0.680023 0.329848
N4    N     N_1   0.589894 0.239716 0.771719 -0.279379
C37   C     C_1   0.359207 0.389986 0.765501 0.328649
N5    N     N_1   0.290920 0.331823 0.704576 -0.285998
C38   C     C_1   0.696950 0.640980 0.800758 0.329125
N6    N     N_1   0.764505 0.688735 0.758208 -0.275770
C39   C     C_1   0.260525 0.356467 0.963321 0.307065
N7    N     N_1   0.170758 0.312881 0.918592 -0.216613
C40   C     C_1   0.731491 0.655634 0.038385 0.260437
N8    N     N_1   0.815182 0.707062 0.084559 -0.189664
C41   C     C_2   0.331428 0.328046 0.189949 0.394436
H3    H     H_    0.293658 0.343378 0.272130 0.119090
O11   O     O_2   0.319920 0.239418 0.136096 -0.555949
C42   C     C_1   0.635054 0.615499 0.235645 0.372958
N9    N     N_1   0.703027 0.673476 0.297157 -0.217454
C43   C     C_1   0.200259 0.674594 0.707948 0.283801
N10   N     N_1   0.260139 0.747874 0.706867 -0.275926
C44   C     C_1   0.138364 0.623227 0.922602 0.280725
N11   N     N_1   0.186184 0.666522 0.009676 -0.207490
C45   C     C_1   0.943688 0.472515 0.918060 0.236224
N12   N     N_1   0.915099 0.451868 0.003538 -0.239311
C46   C     C_2   0.823436 0.366775 0.699989 0.427183
H4    H     H_    0.779355 0.358009 0.776714 0.094701
O12   O     O_2   0.800189 0.302401 0.611941 -0.538191
C47   C     C_1   0.855461 0.426310 0.281084 0.373980
N13   N     N_1   0.798994 0.393749 0.194129 -0.201382
C48   C     C_1   0.401409 0.801650 0.328901 0.314650
N14   N     N_1   0.351569 0.754660 0.244619 -0.229276
C49   C     C_1   0.508095 0.841788 0.752397 0.447454
N15   N     N_1   0.523275 0.813257 0.839661 -0.243594
C50   C     C_2   0.545984 0.947141 0.236792 0.376145
H5    H     H_    0.506862 0.962348 0.154049 0.095543
O13   O     O_2   0.619516 0.878086 0.238297 -0.500914

loop_
_geom_bond_atom_site_label_1
_geom_bond_atom_site_label_2
_ccdc_geom_bond_type
C6    C32   A    
C37   N5    T    
C41   O11   D    
C1    C8    S    
Cu2   O6    S    
C21   C26   A    
C49   N15   T    
C34   O9    D    
C36   N4    T    
C24   C37   S    
Cu1   O3    S    
C23   O6    A    
C46   O12   D    
Cu2   O4    S    
C20   C42   S    
C28   C29   A    
C28   C43   S    
C26   C40   S    
C19   N2    A    
C5    C6    A    
C2    C32   A    
C18   C19   A    
C3    C12   S    
C27   O8    A    
C15   C48   S    
C6    C27   S    
C19   C41   S    
C43   N10   T    
C35   O10   D    
C44   N11   T    
C9    C10   A    
C11   C36   S    
C1    O1    A    
C7    C15   A    
C42   N9    T    
C39   N7    T    
Cu2   O2    S    
C21   C22   A    
C25   C38   S    
C35   H2    S    
C4    C33   S    
C24   N1    A    
C46   H4    S    
Cu1   O7    S    
C34   H1    S    
Cu2   O8    S    
C16   C17   A    
C31   C46   S    
C25   C26   A    
C47   N13   T    
Cu1   O1    S    
C48   N14   T    
C12   O4    A    
C9    C14   A    
C29   C30   A    
C27   O7    A    
C50   H5    S    
Cu1   Cu2   S    
C1    O2    A    
C9    C50   S    
C7    C16   A    
C50   O13   D    
C25   N1    A    
C22   C24   A    
C5    C47   S    
C3    C4    A    
C10   C35   S    
C29   C44   S    
C18   C22   A    
C31   C32   A    
C17   C34   S    
C45   N12   T    
C30   C45   S    
C23   O5    A    
C13   C17   A    
Cu1   O5    S    
C12   O3    A    
C2    C3    A    
C11   C13   A    
C38   N6    T    
C30   C31   A    
C8    C11   A    
C7    C23   S    
C16   C49   S    
Cu1   N1    S    
Cu2   N2    S    
C40   N8    T    
C41   H3    S    
C20   N2    A    
C33   N3    T    
C18   C39   S    
C4    C5    A    
C20   C21   A    
C8    C10   A    
C14   C15   A    
C2    C28   A    
C13   C14   A    
