data_mof_unit_23554.cif
_audit_creation_date              2012-12-11T15:35:23-0500
_audit_creation_method            fapswitch 2.2
_symmetry_space_group_name_H-M    P1
_symmetry_Int_Tables_number       1
_space_group_crystal_system       triclinic
_cell_length_a                    17.456543
_cell_length_b                    24.303173
_cell_length_c                    14.857224
_cell_angle_alpha                 89.64872
_cell_angle_beta                  124.589964
_cell_angle_gamma                 90.908087
_cell_volume                      5188.31062824

loop_
_atom_site_label
_atom_site_type_symbol
_atom_type_description
_atom_site_fract_x
_atom_site_fract_y
_atom_site_fract_z
_atom_type_partial_charge
C1    C     C_R   0.357593 0.152940 0.910783 -0.158477
C2    C     C_R   0.322487 0.861737 0.910047 -0.142255
C3    C     C_R   0.835159 0.644782 0.909561 -0.153189
C4    C     C_R   0.809507 0.376190 0.910796 -0.142153
C5    C     C_R   0.648137 0.151383 0.093341 -0.111872
C6    C     C_R   0.686415 0.874594 0.091617 -0.094510
C7    C     C_R   0.144628 0.652087 0.093515 -0.135049
C8    C     C_R   0.171678 0.360372 0.092440 -0.085234
C9    C     C_R   0.599002 0.877467 0.908771 -0.130454
C10   C     C_R   0.558742 0.153601 0.912963 -0.124631
C11   C     C_R   0.083149 0.359496 0.909836 -0.100999
C12   C     C_R   0.053208 0.654874 0.913644 -0.105970
C13   C     C_R   0.432171 0.000229 0.628749 0.004080
C14   C     C_R   0.031666 0.501580 0.702071 0.000615
C15   C     C_R   0.799426 0.001234 0.365151 0.014773
C16   C     C_R   0.324895 0.501386 0.288547 0.008806
C17   C     C_R   0.615978 0.186308 0.005024 0.084890
C18   C     C_R   0.682955 0.861074 0.999409 0.162905
C19   C     C_R   0.109797 0.687126 0.005648 0.067298
C20   C     C_R   0.161378 0.339308 0.001468 0.144888
C21   C     C_3   0.021848 0.949439 0.628602 -0.472783
C22   C     C_3   0.025349 0.051345 0.628198 -0.478502
C23   C     C_3   0.568805 0.440462 0.485136 -0.456030
C24   C     C_3   0.545895 0.519143 0.575178 -0.468581
C25   C     C_3   0.924222 0.943990 0.521368 -0.181353
C26   C     C_3   0.918624 0.044468 0.550479 -0.171214
C27   C     C_3   0.464346 0.441008 0.396043 -0.170433
C28   C     C_3   0.443457 0.524096 0.480544 -0.151911
C29   C     C_3   0.060766 0.999844 0.506146 -0.462684
C30   C     C_3   0.589750 0.536976 0.440307 -0.431797
C31   C     C_3   0.072925 0.999677 0.618260 0.377970
C32   C     C_3   0.604038 0.498802 0.533227 0.338342
C33   C     C_3   0.897424 0.001473 0.458571 0.289911
C34   C     C_3   0.427371 0.501968 0.371392 0.281900
C35   C     C_R   0.416471 0.859551 0.092440 -0.153265
C36   C     C_R   0.446061 0.152719 0.091916 -0.128353
C37   C     C_R   0.903532 0.374209 0.094355 -0.133452
C38   C     C_R   0.929801 0.646025 0.094057 -0.125735
C39   C     C_3   0.960292 0.014751 0.413967 0.067596
C40   C     C_3   0.485797 0.537182 0.339123 0.064255
C41   C     C_R   0.170530 0.804462 0.909196 -0.226885
C42   C     C_R   0.252763 0.206823 0.993133 -0.221678
C43   C     C_R   0.657259 0.317802 0.909625 -0.216204
C44   C     C_R   0.719991 0.719213 0.949078 -0.228858
C45   C     C_R   0.602913 0.275269 0.909553 0.012982
C46   C     C_R   0.675799 0.765764 0.946990 0.004957
C47   C     C_R   0.104588 0.772680 0.911056 0.012151
C48   C     C_R   0.195196 0.244827 0.992675 -0.012912
C49   C     C_R   0.635695 0.246358 0.007813 -0.017211
C50   C     C_R   0.729151 0.814271 0.996256 -0.062214
C51   C     C_R   0.130757 0.746377 0.009179 0.010136
C52   C     C_R   0.220278 0.300330 0.002195 -0.057432
C53   C     C_R   0.702811 0.273463 0.107134 0.445321
C54   C     C_R   0.826149 0.815285 0.050886 0.461133
C55   C     C_R   0.206919 0.768598 0.107715 0.455949
C56   C     C_R   0.301642 0.318523 0.012315 0.461830
C57   C     C_R   0.274273 0.798152 0.105710 -0.283332
C58   C     C_R   0.359013 0.279959 0.012821 -0.265368
C59   C     C_R   0.757283 0.315416 0.106151 -0.247791
C60   C     C_R   0.869734 0.767520 0.054759 -0.259797
C61   C     C_R   0.259446 0.812222 0.005519 0.073087
C62   C     C_R   0.333464 0.224813 0.002818 0.053128
C63   C     C_R   0.741015 0.332927 0.007004 0.062807
C64   C     C_R   0.815756 0.720377 0.003248 0.051816
C65   C     C_R   0.377490 0.953060 0.449975 -0.169499
C66   C     C_R   0.396703 0.051622 0.463283 -0.231340
C67   C     C_R   0.105343 0.452560 0.622870 -0.157722
C68   C     C_R   0.105880 0.551285 0.621529 -0.225196
C69   C     C_R   0.369356 0.953928 0.351445 0.017424
C70   C     C_R   0.385877 0.052797 0.363469 0.027888
C71   C     C_R   0.129029 0.452180 0.548082 0.015075
C72   C     C_R   0.127429 0.551437 0.544648 0.018284
C73   C     C_R   0.390790 0.003089 0.319037 0.068350
C74   C     C_R   0.120844 0.501516 0.492575 0.063528
C75   C     C_R   0.477751 0.046360 0.244419 -0.110026
C76   C     C_R   0.481321 0.955482 0.252362 -0.139973
C77   C     C_R   0.053164 0.545720 0.305146 -0.114948
C78   C     C_R   0.053456 0.455106 0.306125 -0.148165
C79   C     C_R   0.399699 0.001412 0.512324 0.104793
C80   C     C_R   0.079435 0.501893 0.646348 0.113171
C81   C     C_R   0.230562 0.952882 0.728020 0.018673
C82   C     C_R   0.230876 0.045568 0.737999 0.017474
C83   C     C_R   0.748366 0.453112 0.694914 -0.004400
C84   C     C_R   0.747831 0.544900 0.694276 0.007950
C85   C     C_R   0.389120 0.183997 0.002075 0.104212
C86   C     C_R   0.331763 0.841143 0.002681 0.095300
C87   C     C_R   0.857545 0.671426 0.003140 0.097799
C88   C     C_R   0.814011 0.361810 0.004484 0.093947
C89   C     C_R   0.443981 0.001427 0.269522 0.047032
C90   C     C_R   0.077122 0.500708 0.373178 0.056486
C91   C     C_R   0.173768 0.998750 0.701625 -0.004242
C92   C     C_R   0.702444 0.498628 0.629961 0.010830
C93   C     C_R   0.446076 0.045436 0.694073 0.040001
C94   C     C_R   0.448339 0.954721 0.694619 0.020334
C95   C     C_R   0.005185 0.546649 0.735329 0.044466
C96   C     C_R   0.002013 0.455471 0.731183 0.042988
C97   C     C_R   0.751193 0.954880 0.304710 -0.115857
C98   C     C_R   0.753461 0.046702 0.302050 -0.130434
C99   C     C_R   0.268306 0.454718 0.260435 -0.094673
C100  C     C_R   0.268121 0.547208 0.254668 -0.128431
H1    H     H_    0.324692 0.169797 0.829934 0.098764
H2    H     H_    0.272030 0.848972 0.828109 0.090630
H3    H     H_    0.788773 0.659152 0.826971 0.100484
H4    H     H_    0.750166 0.372581 0.827755 0.094514
H5    H     H_    0.015263 0.956466 0.697958 0.161519
H6    H     H_    0.046398 0.057068 0.713705 0.156532
H7    H     H_    0.577293 0.412234 0.548964 0.153351
H8    H     H_    0.551962 0.489540 0.636449 0.158289
H9    H     H_    0.873908 0.935350 0.543570 0.125000
H10   H     H_    0.893442 0.026170 0.598463 0.142000
H11   H     H_    0.430791 0.418901 0.431550 0.113258
H12   H     H_    0.402364 0.497142 0.500092 0.128971
H13   H     H_    0.078761 0.959036 0.490794 0.167573
H14   H     H_    0.111325 0.028897 0.507433 0.158119
H15   H     H_    0.636516 0.523739 0.416238 0.155616
H16   H     H_    0.611186 0.579533 0.471309 0.160605
H17   H     H_    0.151853 0.821797 0.832134 0.116320
H18   H     H_    0.234881 0.163349 0.985899 0.136709
H19   H     H_    0.635830 0.336258 0.832421 0.115675
H20   H     H_    0.679939 0.681655 0.911143 0.130155
H21   H     H_    0.337307 0.809857 0.182524 0.145862
H22   H     H_    0.422194 0.292592 0.020175 0.180265
H23   H     H_    0.814161 0.332414 0.183204 0.157495
H24   H     H_    0.944636 0.767147 0.096068 0.189068
H25   H     H_    0.369662 0.913517 0.476180 0.147639
H26   H     H_    0.408566 0.090730 0.502717 0.136653
H27   H     H_    0.107112 0.414264 0.661235 0.147992
H28   H     H_    0.107601 0.589924 0.658050 0.135989
H29   H     H_    0.451384 0.845429 0.175470 0.086548
H30   H     H_    0.486904 0.166549 0.176074 0.115459
H31   H     H_    0.931426 0.368453 0.179714 0.098420
H32   H     H_    0.968552 0.659885 0.178150 0.110104
H33   H     H_    0.468726 0.089204 0.251174 0.111991
H34   H     H_    0.480171 0.914122 0.276629 0.088526
H35   H     H_    0.068761 0.588450 0.327724 0.111191
H36   H     H_    0.068759 0.412749 0.330129 0.088078
H37   H     H_    0.758539 0.912863 0.331592 0.101926
H38   H     H_    0.767685 0.089814 0.321439 0.118504
H39   H     H_    0.288552 0.412941 0.284734 0.088133
H40   H     H_    0.287855 0.590121 0.269415 0.123497
H41   H     H_    0.689032 0.161397 0.178750 0.167243
H42   H     H_    0.739823 0.864446 0.175586 0.115125
H43   H     H_    0.183171 0.662791 0.178651 0.167793
H44   H     H_    0.218296 0.346162 0.175237 0.079138
H45   H     H_    0.573996 0.870268 0.824692 0.119543
H46   H     H_    0.517474 0.166566 0.829514 0.113466
H47   H     H_    0.051962 0.344609 0.828125 0.107401
H48   H     H_    0.004972 0.669642 0.832406 0.107673
H49   H     H_    0.057240 0.910060 0.649332 0.159157
H50   H     H_    0.044297 0.089060 0.603190 0.191163
H51   H     H_    0.609618 0.424530 0.454777 0.179861
H52   H     H_    0.573129 0.559063 0.619070 0.161640
N1    N     N_R   0.392140 0.102630 0.941800 -0.042351
N2    N     N_R   0.392140 0.897370 0.941800 -0.041311
N3    N     N_R   0.892140 0.602630 0.941800 -0.043003
N4    N     N_R   0.892140 0.397370 0.941800 -0.046791
N5    N     N_R   0.450890 0.896450 0.057150 -0.037063
N6    N     N_R   0.450890 0.103550 0.057150 -0.045695
N7    N     N_R   0.950890 0.396450 0.057150 -0.044148
N8    N     N_R   0.950890 0.603550 0.057150 -0.041288
N9    N     N_R   0.525160 0.027960 0.206160 -0.044397
N10   N     N_R   0.525160 0.972040 0.206160 -0.039582
N11   N     N_R   0.025160 0.527960 0.206160 -0.043557
N12   N     N_R   0.025160 0.472040 0.206160 -0.039909
N13   N     N_R   0.317870 0.971120 0.792790 -0.060644
N14   N     N_R   0.317870 0.028880 0.792790 -0.061731
N15   N     N_R   0.817870 0.471120 0.792790 -0.059204
N16   N     N_R   0.817870 0.528880 0.792790 -0.057497
N17   N     N_R   0.473480 0.027920 0.793480 -0.058863
N18   N     N_R   0.473480 0.972080 0.793480 -0.059692
N19   N     N_R   0.973480 0.527920 0.793480 -0.062406
N20   N     N_R   0.973480 0.472080 0.793480 -0.061448
N21   N     N_R   0.681610 0.971120 0.207570 -0.036670
N22   N     N_R   0.681610 0.028880 0.207570 -0.040159
N23   N     N_R   0.181610 0.471120 0.207570 -0.042612
N24   N     N_R   0.181610 0.528880 0.207570 -0.041108
N25   N     N_R   0.605410 0.102620 0.056870 -0.047416
N26   N     N_R   0.605410 0.897380 0.056870 -0.053059
N27   N     N_R   0.105410 0.602620 0.056870 -0.045885
N28   N     N_R   0.105410 0.397380 0.056870 -0.044649
N29   N     N_R   0.549680 0.896430 0.944180 -0.051875
N30   N     N_R   0.549680 0.103570 0.944180 -0.043579
N31   N     N_R   0.049680 0.396430 0.944180 -0.048137
N32   N     N_R   0.049680 0.603570 0.944180 -0.042316
Ni1   Ni    Ni4+2 0.433410 0.064680 0.868830 0.195586
Ni2   Ni    Ni4+2 0.433410 0.935320 0.868830 0.197819
Ni3   Ni    Ni4+2 0.933410 0.564680 0.868830 0.201217
Ni4   Ni    Ni4+2 0.933410 0.435320 0.868830 0.202608
Ni5   Ni    Ni4+2 0.565650 0.934380 0.131170 0.210615
Ni6   Ni    Ni4+2 0.565650 0.065620 0.131170 0.223185
Ni7   Ni    Ni4+2 0.065650 0.434380 0.131170 0.208247
Ni8   Ni    Ni4+2 0.065650 0.565620 0.131170 0.224485
N33   N     N_3   0.920178 0.896747 0.457035 -0.216709
H53   H     H_    0.984868 0.889030 0.471214 0.132777
H54   H     H_    0.903250 0.861410 0.483229 0.098403
N34   N     N_3   0.872885 0.097967 0.512655 -0.216901
H55   H     H_    0.905805 0.123787 0.487718 0.137800
H56   H     H_    0.878624 0.117851 0.578539 0.118743
N35   N     N_3   0.440538 0.410152 0.297958 -0.178488
H57   H     H_    0.492387 0.414095 0.283576 0.180775
H58   H     H_    0.436955 0.368233 0.311870 0.115026
N36   N     N_3   0.411302 0.580662 0.472339 -0.208355
H59   H     H_    0.460440 0.609310 0.481155 0.139392
H60   H     H_    0.404912 0.587557 0.537228 0.113708
N37   N     N_3   0.929367 0.983810 0.313021 -0.194650
H61   H     H_    0.968447 0.997092 0.283425 0.141084
H62   H     H_    0.941366 0.941865 0.326898 0.162209
N38   N     N_3   0.957901 0.073974 0.389548 -0.213294
H63   H     H_    0.010795 0.084146 0.379022 0.100707
H64   H     H_    0.896934 0.082652 0.313742 0.115436
N39   N     N_3   0.479662 0.512421 0.245015 -0.201022
H65   H     H_    0.410149 0.510812 0.177792 0.154447
H66   H     H_    0.515656 0.537390 0.222694 0.108117
N40   N     N_3   0.453532 0.594458 0.311545 -0.222638
H67   H     H_    0.503187 0.618600 0.310488 0.101609
H68   H     H_    0.394498 0.596211 0.231237 0.098021
N41   N     N_3   0.515303 0.262235 0.810069 -0.223779
H69   H     H_    0.527025 0.253477 0.750013 0.094268
H70   H     H_    0.473890 0.297191 0.785277 0.119727
N42   N     N_3   0.577635 0.763060 0.899285 -0.211893
H71   H     H_    0.565352 0.732858 0.940285 0.112533
H72   H     H_    0.543635 0.750779 0.817659 0.105825
N43   N     N_3   0.012496 0.766874 0.813805 -0.219481
H73   H     H_    0.017622 0.752327 0.751311 0.091617
H74   H     H_    0.983413 0.806013 0.791097 0.118692
N44   N     N_3   0.111851 0.227472 0.982879 -0.212548
H75   H     H_    0.130487 0.200747 0.047482 0.109216
H76   H     H_    0.070525 0.205283 0.909907 0.108466
Cl1   Cl    Cl    0.717359 0.260969 0.232827 -0.729372
Cl2   Cl    Cl    0.893965 0.875139 0.114827 -0.690334
Cl3   Cl    Cl    0.217941 0.763807 0.232937 -0.711214
Cl4   Cl    Cl    0.332030 0.388862 0.022536 -0.695784
N45   N     N_3   0.337243 0.904913 0.285785 -0.179604
H77   H     H_    0.321092 0.912906 0.207652 0.123765
H78   H     H_    0.389740 0.875706 0.324669 0.111662
N46   N     N_3   0.371791 0.104494 0.309710 -0.225760
H79   H     H_    0.426660 0.131196 0.363479 0.096326
H80   H     H_    0.310427 0.121220 0.293760 0.109526
N47   N     N_3   0.166005 0.402704 0.535848 -0.211886
H81   H     H_    0.111335 0.374540 0.489513 0.100393
H82   H     H_    0.200336 0.410907 0.497998 0.097367
N48   N     N_3   0.155254 0.601879 0.520100 -0.222634
H83   H     H_    0.215769 0.616344 0.592067 0.114909
H84   H     H_    0.103267 0.630781 0.496198 0.100653
N49   N     N_3   0.206802 0.906421 0.656770 -0.219780
H85   H     H_    0.171656 0.876193 0.670056 0.071521
H86   H     H_    0.268125 0.887638 0.678143 0.099210
N50   N     N_3   0.203081 0.098679 0.689251 -0.232947
H87   H     H_    0.191718 0.122953 0.738206 0.103201
H88   H     H_    0.254674 0.116274 0.683041 0.089936
N51   N     N_3   0.752000 0.400748 0.653448 -0.217089
H89   H     H_    0.706857 0.373411 0.656340 0.079404
H90   H     H_    0.817455 0.384278 0.708710 0.107164
N52   N     N_3   0.743094 0.598712 0.652286 -0.229732
H91   H     H_    0.694543 0.620817 0.656751 0.081729
H92   H     H_    0.807554 0.618490 0.702498 0.098481
N53   N     N_3   0.400002 0.096929 0.652577 -0.231070
H93   H     H_    0.397447 0.116342 0.713063 0.091851
H94   H     H_    0.330335 0.088251 0.590585 0.095174
N54   N     N_3   0.412258 0.900338 0.655533 -0.224375
H95   H     H_    0.419278 0.877065 0.719035 0.099578
H96   H     H_    0.340523 0.903757 0.598708 0.103326
N55   N     N_3   0.984398 0.600146 0.686596 -0.225278
H97   H     H_    0.930404 0.615859 0.688968 0.086687
H98   H     H_    0.953643 0.594954 0.602869 0.098345
N56   N     N_3   0.973767 0.404403 0.672328 -0.227754
H99   H     H_    0.928700 0.383645 0.685929 0.094173
H100  H     H_    0.933285 0.413553 0.588845 0.114997

loop_
_geom_bond_atom_site_label_1
_geom_bond_atom_site_label_2
_ccdc_geom_bond_type
C77   N11   A    
C24   C32   S    
C29   H14   S    
C22   H50   S    
C30   C40   S    
C58   C62   A    
N13   N14   A    
C65   C79   A    
N38   H64   S    
C11   H47   S    
C63   C88   S    
N14   Ni1   S    
C45   N41   S    
N17   N18   A    
C37   C88   A    
C76   N10   A    
N43   H73   S    
C41   C61   A    
N19   N20   A    
C26   N34   S    
C7    H43   S    
N9    N10   A    
C53   C59   A    
C13   C79   S    
C43   C63   A    
N51   H89   S    
C30   H16   S    
N37   H61   S    
C44   C64   A    
C78   N12   A    
C83   C92   A    
N2    Ni2   S    
C40   N39   S    
C93   N17   A    
C50   C54   A    
N36   H60   S    
C98   H38   S    
C34   C40   S    
N43   H74   S    
C84   N16   A    
N20   Ni4   S    
C67   H27   S    
N6    Ni6   S    
N23   Ni7   S    
C98   N22   A    
C35   C86   A    
N40   H68   S    
N51   H90   S    
C5    C17   A    
C44   H20   S    
C10   C17   A    
N25   N30   A    
N46   H80   S    
C2    H2    S    
C39   N37   S    
N46   H79   S    
C56   Cl4   S    
N53   H93   S    
C53   Cl1   S    
C14   C96   A    
N1    N6    A    
C60   H24   S    
C69   N45   S    
N52   H92   S    
C100  H40   S    
C16   C34   S    
C95   N19   A    
C60   C64   A    
C33   C39   S    
C94   N54   S    
N27   Ni8   S    
N47   H81   S    
N50   H88   S    
N38   H63   S    
N33   H54   S    
C38   H32   S    
C100  N24   A    
N48   H84   S    
C84   C92   A    
C69   C73   A    
N11   Ni8   S    
C24   H8    S    
C23   C27   S    
C6    H42   S    
N12   Ni7   S    
C24   H52   S    
N45   H77   S    
C26   H10   S    
C64   C87   S    
C51   C55   A    
N28   N31   A    
C25   H9    S    
C76   C89   A    
C83   N51   S    
C55   Cl3   S    
C95   N55   S    
C27   H11   S    
N35   H57   S    
C2    N2    A    
N16   Ni3   S    
N49   H85   S    
C6    N26   A    
C59   H23   S    
N18   Ni2   S    
C81   N49   S    
C99   H39   S    
N42   H72   S    
C15   C97   A    
C35   H29   S    
C97   H37   S    
N42   H71   S    
C44   C46   A    
C46   C50   A    
N5    Ni5   S    
C30   H15   S    
N4    Ni4   S    
C27   C34   S    
C96   N56   S    
C6    C18   A    
C62   C85   S    
C77   C90   A    
C58   H22   S    
C97   N21   A    
C22   C31   S    
C3    C87   A    
C70   N46   S    
N26   N29   A    
N7    Ni7   S    
N55   H97   S    
C27   N35   S    
N8    Ni8   S    
N2    N5    A    
N34   H56   S    
N36   H59   S    
C47   N43   S    
N15   N16   A    
N26   Ni5   S    
C76   H34   S    
N40   H67   S    
C16   C100  A    
C54   C60   A    
N41   H69   S    
N21   N22   A    
C83   N15   A    
C11   C20   A    
N28   Ni7   S    
C28   H12   S    
C82   C91   A    
C37   H31   S    
C13   C93   A    
N53   H94   S    
N30   Ni1   S    
C65   H25   S    
C42   C48   A    
C35   N5    A    
N52   H91   S    
C66   C79   A    
C7    N27   A    
C36   H30   S    
C48   N44   S    
C8    N28   A    
C26   C33   S    
C5    H41   S    
N39   H65   S    
C25   C33   S    
C45   C49   A    
C68   C72   A    
C23   H7    S    
C39   N38   S    
C21   C31   S    
C70   C73   A    
C3    N3    A    
N48   H83   S    
C41   C47   A    
C11   N31   A    
C21   H49   S    
N47   H82   S    
C8    C20   A    
C1    N1    A    
N45   H78   S    
C5    N25   A    
N56   H100  S    
C10   H46   S    
C66   C70   A    
C93   N53   S    
C72   C74   A    
N39   H66   S    
N24   Ni8   S    
N22   Ni6   S    
N33   H53   S    
C7    C19   A    
C14   C80   S    
N49   H86   S    
C84   N52   S    
C68   H28   S    
C10   N30   A    
N56   H99   S    
C1    C85   A    
C15   C98   A    
C17   C49   S    
C68   C80   A    
C43   H19   S    
C1    H1    S    
C14   C95   A    
C25   N33   S    
N50   H87   S    
C18   C50   S    
N27   N32   A    
C82   N14   A    
C3    H3    S    
C29   C39   S    
N55   H98   S    
C21   C25   S    
C8    H44   S    
N25   Ni6   S    
N21   Ni5   S    
C4    N4    A    
N3    N8    A    
C72   N48   S    
C59   C63   A    
N54   H96   S    
N4    N7    A    
C42   H18   S    
C67   C80   A    
C24   C28   S    
C31   C91   S    
C15   C33   S    
N34   H55   S    
C57   H21   S    
C96   N20   A    
C71   C74   A    
C47   C51   A    
N29   Ni2   S    
C75   H33   S    
C16   C99   A    
C57   C61   A    
C4    C88   A    
C36   N6    A    
C36   C85   A    
N41   H70   S    
C20   C52   S    
C13   C94   A    
N44   H76   S    
N13   Ni2   S    
N32   Ni3   S    
C82   N50   S    
C38   C87   A    
C75   N9    A    
C28   N36   S    
C23   C32   S    
C74   C90   S    
C55   C57   A    
C49   C53   A    
N17   Ni1   S    
C73   C89   S    
C43   C45   A    
N23   N24   A    
C22   H6    S    
C12   H48   S    
N54   H95   S    
C30   C32   S    
C37   N7    A    
C12   N32   A    
N1    Ni1   S    
C78   C90   A    
C19   C51   S    
C65   C69   A    
N15   Ni4   S    
C4    H4    S    
C12   C19   A    
C9    H45   S    
C56   C58   A    
C2    C86   A    
C67   C71   A    
C28   C34   S    
N9    Ni6   S    
C29   H13   S    
N11   N12   A    
C9    N29   A    
C61   C86   S    
C32   C92   S    
C23   H51   S    
C81   C91   A    
C66   H26   S    
C9    C18   A    
C48   C52   A    
C99   N23   A    
C46   N42   S    
C29   C31   S    
N44   H75   S    
C22   C26   S    
C75   C89   A    
C40   N40   S    
N35   H58   S    
C81   N13   A    
N3    Ni3   S    
C77   H35   S    
C41   H17   S    
C42   C62   A    
N31   Ni4   S    
N37   H62   S    
C78   H36   S    
N19   Ni3   S    
C54   Cl2   S    
N10   Ni5   S    
C94   N18   A    
C21   H5    S    
C52   C56   A    
C71   N47   S    
C38   N8    A    
