data_mof_unit_33184.cif
_audit_creation_date              2012-12-10T20:42:37-0500
_audit_creation_method            fapswitch 2.2
_symmetry_space_group_name_H-M    P1
_symmetry_Int_Tables_number       1
_space_group_crystal_system       triclinic
_cell_length_a                    8.909462
_cell_length_b                    10.698794
_cell_length_c                    9.891643
_cell_angle_alpha                 90.212173
_cell_angle_beta                  89.542694
_cell_angle_gamma                 90.786321
_cell_volume                      942.751432437

loop_
_atom_site_label
_atom_site_type_symbol
_atom_type_description
_atom_site_fract_x
_atom_site_fract_y
_atom_site_fract_z
_atom_type_partial_charge
C1    C     C_R   0.496363 0.259922 0.499862 0.867980
C2    C     C_R   0.440985 0.934226 0.380143 -0.190662
C3    C     C_R   0.467330 0.870958 0.501496 -0.132311
C4    C     C_R   0.466654 0.936455 0.623609 -0.111656
C5    C     C_3   0.572470 0.929038 0.741626 0.366952
C6    C     C_3   0.584233 0.071224 0.736148 0.295956
C7    C     C_R   0.435577 0.403558 0.071787 0.121497
C8    C     C_R   0.582266 0.585437 0.071853 -0.244353
C9    C     C_R   0.587161 0.582729 0.927146 0.566253
C10   C     C_R   0.430039 0.406148 0.930414 0.175717
C11   C     C_3   0.268706 0.361287 0.932778 -0.015411
C12   C     C_R   0.218778 0.500007 0.500302 0.925139
C13   C     C_3   0.280077 0.354320 0.086656 -0.480325
C14   C     C_R   0.493734 0.739921 0.500306 0.868828
C15   C     C_R   0.781223 0.500316 0.499698 0.934322
C16   C     C_1   0.065408 0.500268 0.500415 -0.228327
C17   C     C_1   0.934597 0.500364 0.499551 -0.221522
C18   C     C_R   0.473775 0.064297 0.622752 0.024952
C19   C     C_R   0.473770 0.128149 0.500376 -0.132969
C20   C     C_R   0.443590 0.063591 0.379706 -0.210890
H1    H     H_    0.432491 0.111894 0.284335 0.165509
H2    H     H_    0.253517 0.267574 0.885365 0.194653
H3    H     H_    0.206793 0.419463 0.143889 0.227810
H4    H     H_    0.278086 0.256859 0.125186 0.173629
H5    H     H_    0.429341 0.884889 0.284862 0.175326
H6    H     H_    0.680302 0.883964 0.714350 0.075281
H7    H     H_    0.695559 0.108982 0.701684 0.011984
H8    H     H_    0.643708 0.657089 0.126530 0.174197
N1    N     N_R   0.499010 0.499140 0.142800 -0.125954
N2    N     N_R   0.499010 0.499180 0.857150 -0.164904
O1    O     O_R   0.500020 0.316790 0.614690 -0.595016
O2    O     O_R   0.500000 0.316760 0.385350 -0.624749
O3    O     O_R   0.285350 0.500020 0.614650 -0.624391
O4    O     O_R   0.285340 0.499980 0.385310 -0.616514
O5    O     O_R   0.500000 0.683240 0.614650 -0.576231
O6    O     O_R   0.499980 0.683210 0.385310 -0.626126
O7    O     O_R   0.714660 0.500020 0.614690 -0.601600
O8    O     O_R   0.714650 0.499980 0.385350 -0.615521
Zn1   Zn    Zn3+2 0.500010 0.500020 0.653130 0.983045
Zn2   Zn    Zn3+2 0.499990 0.499980 0.346870 0.935720
O9    O     O_3   0.515262 0.885108 0.868657 -0.537427
C21   C     C_3   0.358831 0.861605 0.871700 -0.183957
H9    H     H_    0.327432 0.784724 0.801207 0.161536
H10   H     H_    0.295242 0.947724 0.849524 0.163224
H11   H     H_    0.326625 0.830969 0.975070 0.148103
O10   O     O_3   0.522417 0.130382 0.851237 -0.573856
C22   C     C_3   0.636738 0.149917 0.947302 -0.265077
H12   H     H_    0.711919 0.228424 0.915435 0.141679
H13   H     H_    0.703440 0.064267 0.964848 0.175556
H14   H     H_    0.584239 0.175294 0.045405 0.174832
O11   O     O_3   0.671725 0.669501 0.856015 -0.546897
C23   C     C_3   0.825177 0.646078 0.875460 -0.331842
H15   H     H_    0.891674 0.707925 0.807212 0.181967
H16   H     H_    0.852527 0.547990 0.848425 0.171352
H17   H     H_    0.859837 0.667695 0.980782 0.146704
C24   C     C_3   0.151543 0.456245 0.888993 -0.872069
H18   H     H_    0.110772 0.432501 0.786657 0.258501
H19   H     H_    0.051932 0.450105 0.956889 0.219098
H20   H     H_    0.196549 0.553607 0.891527 0.243260

loop_
_geom_bond_atom_site_label_1
_geom_bond_atom_site_label_2
_ccdc_geom_bond_type
C7    C10   A    
O5    Zn1   S    
C24   H20   S    
C15   O8    A    
C7    N1    A    
C5    H6    S    
C2    H5    S    
O9    C21   S    
C10   N2    A    
C11   H2    S    
C19   C20   A    
C9    O11   S    
C23   H17   S    
C7    C13   S    
C4    C18   A    
C23   H16   S    
C2    C3    A    
O7    Zn1   S    
C23   H15   S    
C20   H1    S    
O8    Zn2   S    
C11   C13   S    
C6    H7    S    
O3    Zn1   S    
C3    C14   S    
C21   H10   S    
C9    N2    A    
O4    Zn2   S    
C8    N1    A    
N1    Zn2   S    
C24   H19   S    
N2    Zn1   S    
C22   H14   S    
O2    Zn2   S    
C14   O6    A    
C5    C6    S    
C8    H8    S    
C6    C18   S    
C1    C19   S    
C16   C17   T    
C21   H9    S    
C2    C20   A    
O11   C23   S    
C22   H12   S    
C12   C16   S    
C1    O1    A    
C24   H18   S    
C13   H3    S    
C22   H13   S    
C18   C19   A    
C10   C11   S    
C14   O5    A    
C15   C17   S    
C5    O9    S    
O10   C22   S    
C8    C9    A    
O6    Zn2   S    
C6    O10   S    
C12   O3    A    
C12   O4    A    
C1    O2    A    
C15   O7    A    
C11   C24   S    
C3    C4    A    
C13   H4    S    
O1    Zn1   S    
C4    C5    S    
C21   H11   S    
