data_mof_unit_8205.cif
_audit_creation_date              2012-12-11T14:48:40-0500
_audit_creation_method            fapswitch 2.2
_symmetry_space_group_name_H-M    P1
_symmetry_Int_Tables_number       1
_space_group_crystal_system       triclinic
_cell_length_a                    7.231667
_cell_length_b                    19.024599
_cell_length_c                    19.123826
_cell_angle_alpha                 89.999897
_cell_angle_beta                  87.362308
_cell_angle_gamma                 90.000372
_cell_volume                      2628.26009344

loop_
_atom_site_label
_atom_site_type_symbol
_atom_type_description
_atom_site_fract_x
_atom_site_fract_y
_atom_site_fract_z
_atom_type_partial_charge
O1    O     O_R   0.350610 0.187000 0.656530 -0.533972
O2    O     O_R   0.649390 0.813000 0.343470 -0.534080
O3    O     O_R   0.149390 0.687000 0.343470 -0.533943
O4    O     O_R   0.850610 0.313000 0.656530 -0.534070
O5    O     O_R   0.655920 0.179060 0.799470 -0.537774
O6    O     O_R   0.344080 0.820940 0.200530 -0.537829
O7    O     O_R   0.844080 0.679060 0.200530 -0.537769
O8    O     O_R   0.155920 0.320940 0.799470 -0.537820
O9    O     O_R   0.826150 0.314000 0.799910 -0.526905
O10   O     O_R   0.173850 0.686000 0.200090 -0.526845
O11   O     O_R   0.673850 0.814000 0.200090 -0.526911
O12   O     O_R   0.326150 0.186000 0.799910 -0.526860
C1    C     C_R   0.485416 0.161750 0.822931 0.727017
C2    C     C_R   0.514584 0.838262 0.177079 0.726956
C3    C     C_R   0.014583 0.661751 0.177067 0.727001
C4    C     C_R   0.985416 0.338267 0.822916 0.726945
O13   O     O_R   0.680230 0.178680 0.657050 -0.541239
O14   O     O_R   0.319770 0.821320 0.342950 -0.541268
O15   O     O_R   0.819770 0.678680 0.342950 -0.541250
O16   O     O_R   0.180230 0.321320 0.657050 -0.541271
C5    C     C_R   0.514991 0.161933 0.634312 0.698932
C6    C     C_R   0.485012 0.838074 0.365681 0.698909
C7    C     C_R   0.985005 0.661935 0.365692 0.698924
C8    C     C_R   0.014989 0.338076 0.634321 0.698916
O17   O     O_3   0.504860 0.294770 0.728200 -0.376760
O18   O     O_3   0.495140 0.705230 0.271800 -0.376528
O19   O     O_3   0.995140 0.794770 0.271800 -0.376782
O20   O     O_3   0.004860 0.205230 0.728200 -0.376569
V1    V     V_3+5 0.779710 0.242290 0.728230 1.424351
V2    V     V_3+5 0.220290 0.757710 0.271770 1.424357
V3    V     V_3+5 0.720290 0.742290 0.271770 1.424369
V4    V     V_3+5 0.279710 0.257710 0.728230 1.424316
C9    C     C_1   0.027591 0.611815 0.119052 -0.149986
C10   C     C_1   0.972408 0.388248 0.880891 -0.149893
C11   C     C_1   0.472412 0.111811 0.880945 -0.149970
C12   C     C_1   0.527593 0.888230 0.119092 -0.149937
C13   C     C_2   0.065157 0.523843 0.009076 -0.084215
C14   C     C_2   0.934813 0.476277 0.990817 -0.084308
C15   C     C_2   0.434876 0.023845 0.990926 -0.084164
C16   C     C_2   0.565159 0.976235 0.009144 -0.084220
C17   C     C_1   0.959072 0.428948 0.930235 -0.024506
C18   C     C_1   0.040921 0.571148 0.069679 -0.024548
C19   C     C_1   0.540922 0.928919 0.069737 -0.024535
C20   C     C_1   0.459094 0.071145 0.930318 -0.024555
C21   C     C_R   0.016643 0.390876 0.577485 -0.083284
C22   C     C_R   0.983337 0.609142 0.422538 -0.083305
C23   C     C_R   0.483370 0.890873 0.422520 -0.083256
C24   C     C_R   0.516642 0.109140 0.577467 -0.083264
H1    H     H_    0.809534 0.593198 0.589485 0.138984
H2    H     H_    0.190391 0.406811 0.410537 0.138952
H3    H     H_    0.690039 0.093263 0.410462 0.138994
H4    H     H_    0.310022 0.906743 0.589524 0.138968
C25   C     C_R   0.880401 0.577203 0.540999 -0.174078
C26   C     C_R   0.119574 0.422818 0.459029 -0.174058
C27   C     C_R   0.619344 0.077239 0.458973 -0.174065
C28   C     C_R   0.380678 0.922776 0.541009 -0.174041
C29   C     C_R   0.893907 0.626074 0.486705 -0.198452
C30   C     C_R   0.106029 0.373940 0.513312 -0.198420
C31   C     C_R   0.605870 0.126103 0.513272 -0.198454
C32   C     C_R   0.394171 0.873907 0.486717 -0.198442
C33   C     C_R   0.058881 0.541200 0.412271 -0.060249
C34   C     C_R   0.941170 0.458830 0.587769 -0.060212
C35   C     C_R   0.441257 0.041175 0.587754 -0.060247
C36   C     C_R   0.558720 0.958844 0.412224 -0.060211
C37   C     C_R   0.045141 0.490911 0.467444 0.101367
C38   C     C_R   0.954891 0.509119 0.532596 0.101402
C39   C     C_R   0.454964 0.990892 0.532577 0.101376
C40   C     C_R   0.545018 0.009130 0.467398 0.101403
H5    H     H_    0.166530 0.322292 0.505226 0.119513
H6    H     H_    0.833349 0.677712 0.494779 0.119528
H7    H     H_    0.333794 0.822240 0.494818 0.119487
H8    H     H_    0.666285 0.177763 0.505178 0.119502
C41   C     C_R   0.861656 0.478298 0.657739 0.054641
C42   C     C_R   0.673993 0.465947 0.675450 -0.094861
C43   C     C_R   0.600789 0.484150 0.741959 -0.095817
C44   C     C_R   0.714431 0.514954 0.790662 -0.093899
C45   C     C_R   0.901250 0.527475 0.773109 -0.134383
C46   C     C_R   0.975112 0.508999 0.706879 -0.150747
H9    H     H_    0.585243 0.442119 0.637968 0.111546
H10   H     H_    0.456181 0.474367 0.755740 0.114698
H11   H     H_    0.658429 0.528954 0.842116 0.156020
H12   H     H_    0.989022 0.551069 0.811009 0.128623
H13   H     H_    0.120322 0.518514 0.693824 0.112434
C47   C     C_R   0.138565 0.521744 0.342319 0.055145
C48   C     C_R   0.024965 0.491470 0.292975 -0.150602
C49   C     C_R   0.099033 0.472946 0.226788 -0.134477
C50   C     C_R   0.286189 0.485017 0.209469 -0.093559
C51   C     C_R   0.399966 0.515414 0.258370 -0.095830
C52   C     C_R   0.326554 0.533649 0.324845 -0.095197
H14   H     H_    0.879504 0.482306 0.305848 0.112056
H15   H     H_    0.011151 0.449668 0.188741 0.128587
H16   H     H_    0.342366 0.470979 0.158049 0.155993
H17   H     H_    0.544828 0.524841 0.244764 0.114285
H18   H     H_    0.415409 0.557139 0.362493 0.111359
C53   C     C_R   0.638290 0.978302 0.342260 0.054577
C54   C     C_R   0.825931 0.965908 0.324566 -0.094764
C55   C     C_R   0.899200 0.984060 0.258053 -0.095777
C56   C     C_R   0.785636 0.014859 0.209328 -0.093954
C57   C     C_R   0.598841 0.027435 0.226867 -0.134356
C58   C     C_R   0.524913 0.009007 0.293102 -0.150820
H19   H     H_    0.914617 0.942076 0.362064 0.111547
H20   H     H_    0.043786 0.974237 0.244282 0.114716
H21   H     H_    0.841685 0.028806 0.157867 0.156073
H22   H     H_    0.511123 0.051023 0.188950 0.128670
H23   H     H_    0.379719 0.018553 0.306142 0.112479
C59   C     C_R   0.361641 0.021714 0.657713 0.055000
C60   C     C_R   0.475216 0.991368 0.707018 -0.150639
C61   C     C_R   0.401204 0.972870 0.773220 -0.134476
C62   C     C_R   0.214133 0.985030 0.790587 -0.093635
C63   C     C_R   0.100383 0.015492 0.741723 -0.095823
C64   C     C_R   0.173736 0.033707 0.675239 -0.095140
H24   H     H_    0.620617 0.982138 0.694108 0.112159
H25   H     H_    0.489066 0.949546 0.811242 0.128643
H26   H     H_    0.158000 0.971017 0.842019 0.156007
H27   H     H_    0.955590 0.024988 0.755366 0.114414
H28   H     H_    0.084904 0.057255 0.637624 0.111410
C65   C     C_1   0.763027 0.469891 0.031816 0.358372
N1    N     N_1   0.625382 0.464686 0.064645 -0.385179
C66   C     C_1   0.236905 0.530247 0.968058 0.358503
N2    N     N_1   0.374510 0.535467 0.935210 -0.385201
C67   C     C_1   0.736845 0.969789 0.968085 0.358235
N3    N     N_1   0.874405 0.964535 0.935209 -0.385260
C68   C     C_1   0.263206 0.030305 0.031994 0.358344
N4    N     N_1   0.125660 0.035571 0.064879 -0.385288

loop_
_geom_bond_atom_site_label_1
_geom_bond_atom_site_label_2
_ccdc_geom_bond_type
C50   C51   A    
O1    C5    A    
C27   C31   A    
O13   V1    S    
C41   C42   A    
O3    C7    A    
C53   C54   A    
O15   V3    S    
C55   C56   A    
C68   N4    T    
C26   C37   A    
C45   C46   A    
C16   C67   S    
C58   H23   S    
H2    C26   S    
C8    C21   S    
C36   C40   A    
O20   V1    S    
O9    C4    A    
C1    C11   S    
O10   C3    A    
C2    C12   S    
O4    C8    A    
O11   C2    A    
C59   C60   A    
C56   H21   S    
C21   C34   A    
C13   C18   S    
C15   C68   S    
C61   C62   A    
C60   H24   S    
C52   H18   S    
C63   C64   A    
C4    C10   S    
C23   C32   A    
C14   C65   S    
C46   H13   S    
C16   C19   S    
O16   C8    A    
O2    C6    A    
C60   C61   A    
C34   C41   S    
C64   H28   S    
O14   V2    S    
C29   H6    S    
C43   H10   S    
O5    C1    A    
O4    V1    S    
O9    V1    S    
C31   H8    S    
C5    C24   S    
O17   V4    S    
O7    C3    A    
C6    C23   S    
O11   V3    S    
O18   V3    S    
O8    C4    A    
C7    C22   S    
O14   C6    A    
C54   H19   S    
O12   V4    S    
O19   V2    S    
C10   C17   T    
C27   C40   A    
O5    V1    S    
C59   C64   A    
C35   C39   A    
C21   C30   A    
O7    V3    S    
C42   C43   A    
C34   C38   A    
C22   C33   A    
C39   C40   A    
O8    V4    S    
C47   C48   A    
C14   C17   S    
C66   N2    T    
C15   C16   D    
C25   C29   A    
C49   C50   A    
C24   C35   A    
C32   H7    S    
C48   C49   A    
O1    V4    S    
O13   C5    A    
C28   C32   A    
O2    V3    S    
C61   H25   S    
O3    V2    S    
O15   C7    A    
C43   C44   A    
C13   C14   D    
C25   C38   A    
O6    C2    A    
O10   V2    S    
C57   C58   A    
C13   C66   S    
C41   C46   A    
C54   C55   A    
C26   C30   A    
C44   C45   A    
C35   C59   S    
C11   C20   T    
C67   N3    T    
C62   H26   S    
O6    V2    S    
C56   C57   A    
C42   H9    S    
C22   C29   A    
C47   C52   A    
C9    C18   T    
C23   C36   A    
C50   H16   S    
C24   C31   A    
O16   V4    S    
C51   H17   S    
C53   C58   A    
C55   H20   S    
C36   C53   S    
C33   C47   S    
C44   H11   S    
C48   H14   S    
C30   H5    S    
C15   C20   S    
C28   C39   A    
C49   H15   S    
C65   N1    T    
C45   H12   S    
H1    C25   S    
C57   H22   S    
H3    C27   S    
C33   C37   A    
C51   C52   A    
C37   C38   A    
C12   C19   T    
O12   C1    A    
C62   C63   A    
C63   H27   S    
C3    C9    S    
H4    C28   S    
