data_mof_unit_17946.cif
_audit_creation_date              2012-10-26T19:46:06-0400
_audit_creation_method            fapswitch 2.2
_symmetry_space_group_name_H-M    P1
_symmetry_Int_Tables_number       1
_space_group_crystal_system       triclinic
_cell_length_a                    10.889128
_cell_length_b                    9.62445
_cell_length_c                    15.898977
_cell_angle_alpha                 90.354368
_cell_angle_beta                  93.739518
_cell_angle_gamma                 90.150781
_cell_volume                      1662.65535268

loop_
_atom_site_label
_atom_site_type_symbol
_atom_type_description
_atom_site_fract_x
_atom_site_fract_y
_atom_site_fract_z
_atom_type_partial_charge
C1    C     C_R   0.262664 0.499831 0.497958 0.573667
C2    C     C_R   0.939406 0.630014 0.488895 -0.018508
C3    C     C_R   0.871659 0.502300 0.484509 0.043318
C4    C     C_R   0.129169 0.500175 0.491538 0.000636
C5    C     C_R   0.425022 0.073211 0.443563 0.351700
C6    C     C_R   0.425735 0.925347 0.443103 0.350839
C7    C     C_R   0.499659 0.499612 0.340515 0.588412
C8    C     C_R   0.571527 0.926175 0.559858 0.077874
C9    C     C_R   0.574689 0.075015 0.558090 0.086356
C10   C     C_R   0.737436 0.500486 0.494465 0.522761
C11   C     C_R   0.500459 0.500348 0.659482 0.524748
C12   C     C_3   0.567039 0.632774 0.955388 -0.009222
C13   C     C_3   0.360346 0.499078 0.043491 0.409373
C14   C     C_3   0.568540 0.362501 0.052029 0.408519
C15   C     C_3   0.569072 0.364402 0.952864 -0.072673
C16   C     C_3   0.361512 0.496334 0.944287 -0.082801
C17   C     C_1   0.500177 0.500773 0.748828 -0.048671
C18   C     C_3   0.497360 0.494576 0.083224 0.040114
C19   C     C_3   0.498467 0.496663 0.916618 0.021185
C20   C     C_3   0.273520 0.387935 0.899939 -0.369664
C21   C     C_3   0.536784 0.223680 0.908687 -0.380611
C22   C     C_3   0.636555 0.852531 0.634598 -0.338324
C23   C     C_3   0.565573 0.627106 0.053902 -0.241193
C24   C     C_3   0.660874 0.147829 0.623395 -0.332559
C25   C     C_3   0.504438 0.770024 0.923314 -0.377049
C26   C     C_3   0.703186 0.643768 0.930778 -0.375703
C27   C     C_3   0.873575 0.241245 0.443230 -0.345752
C28   C     C_3   0.882099 0.773041 0.485217 -0.356637
C29   C     C_1   0.499544 0.499504 0.824171 -0.063692
C30   C     C_1   0.498698 0.497044 0.175672 0.125937
C31   C     C_1   0.499334 0.498551 0.251090 0.119353
C32   C     C_R   0.064147 0.376798 0.476762 -0.094176
C33   C     C_R   0.067020 0.625872 0.494538 -0.093872
C34   C     C_R   0.936109 0.376185 0.470323 -0.025457
Cl1   Cl    Cl    0.265511 0.365567 0.085618 -0.405576
Cl2   Cl    Cl    0.509044 0.203112 0.092870 -0.448609
Cl3   Cl    Cl    0.725619 0.363471 0.095716 -0.550401
Cl4   Cl    Cl    0.284598 0.655503 0.075258 -0.513306
Cl5   Cl    Cl    0.323513 0.160044 0.370896 -0.438388
Cl6   Cl    Cl    0.323637 0.836811 0.370597 -0.445128
Cu1   Cu    Cu3+1 0.500020 0.640660 0.500000 1.001524
Cu2   Cu    Cu3+1 0.500020 0.359340 0.500000 1.010892
H1    H     H_    0.665546 0.376537 0.936157 0.163158
H2    H     H_    0.450115 0.177375 0.927081 0.185411
H3    H     H_    0.532712 0.232855 0.839066 0.117453
H4    H     H_    0.610249 0.147179 0.926169 0.169980
H5    H     H_    0.673709 0.751334 0.618525 0.187058
H6    H     H_    0.719796 0.905426 0.662150 0.071627
H7    H     H_    0.572228 0.842186 0.685584 0.133709
H8    H     H_    0.672038 0.259049 0.617982 0.198767
H9    H     H_    0.630375 0.127910 0.687563 0.105078
H10   H     H_    0.756090 0.109437 0.618823 0.078355
H11   H     H_    0.412849 0.786554 0.947848 0.181666
H12   H     H_    0.319585 0.594040 0.919930 0.160030
H13   H     H_    0.559893 0.862042 0.945210 0.153811
H14   H     H_    0.495053 0.773016 0.853397 0.129003
H15   H     H_    0.744016 0.745488 0.951118 0.157009
H16   H     H_    0.763979 0.565004 0.962111 0.178310
H17   H     H_    0.709543 0.635018 0.861547 0.130034
H18   H     H_    0.939647 0.164507 0.419891 0.148281
H19   H     H_    0.830888 0.192848 0.496999 0.136757
H20   H     H_    0.803497 0.259941 0.390626 0.191775
H21   H     H_    0.840121 0.796316 0.544997 0.128256
H22   H     H_    0.951139 0.856211 0.476784 0.127616
H23   H     H_    0.522915 0.722114 0.079243 0.192719
H24   H     H_    0.813723 0.780671 0.430519 0.183586
H25   H     H_    0.660510 0.630931 0.084144 0.177888
H26   H     H_    0.113417 0.280332 0.469155 0.175881
H27   H     H_    0.118486 0.722283 0.501465 0.163783
H28   H     H_    0.282591 0.283238 0.927123 0.196189
H29   H     H_    0.176758 0.420203 0.906977 0.178914
H30   H     H_    0.285834 0.381013 0.831366 0.120256
N1    N     N_R   0.500030 0.852070 0.500020 -0.254516
N2    N     N_R   0.500030 0.147930 0.500020 -0.253925
O1    O     O_R   0.319660 0.618740 0.500000 -0.469616
O2    O     O_R   0.319660 0.381260 0.500000 -0.472704
O3    O     O_R   0.500020 0.618840 0.379440 -0.451412
O4    O     O_R   0.500020 0.381160 0.379440 -0.436909
O5    O     O_R   0.680370 0.618830 0.500010 -0.533597
O6    O     O_R   0.680370 0.381170 0.500010 -0.537293
O7    O     O_R   0.500010 0.618730 0.620560 -0.522150
O8    O     O_R   0.500010 0.381270 0.620560 -0.519473

loop_
_geom_bond_atom_site_label_1
_geom_bond_atom_site_label_2
_ccdc_geom_bond_type
C24   H10   S    
C22   H6    S    
Cu2   O6    S    
C17   C29   T    
Cu1   Cu2   S    
C14   C18   S    
Cu2   O8    S    
C25   H14   S    
C11   O7    A    
C15   C19   S    
C12   C23   S    
C13   C18   S    
C25   H11   S    
C13   Cl1   S    
C27   H18   S    
Cu1   O3    S    
C5    C6    A    
C23   H25   S    
C5    N2    A    
C27   H19   S    
C8    C9    A    
C8    C22   S    
C20   H29   S    
C18   C30   S    
C26   H17   S    
C33   H27   S    
C32   H26   S    
C24   H9    S    
C22   H5    S    
C11   O8    A    
C20   H28   S    
C21   H3    S    
C27   C34   S    
C24   H8    S    
Cu2   N2    S    
C7    C31   S    
C18   C23   S    
C1    O1    A    
C10   O6    A    
C3    C34   A    
C12   C26   S    
C32   C34   A    
C28   H24   S    
C27   H20   S    
Cu1   O1    S    
C21   H2    S    
C16   C20   S    
Cu1   O7    S    
C26   H16   S    
C13   Cl4   S    
C4    C32   A    
C7    O4    A    
C28   H22   S    
C2    C33   A    
Cu2   O4    S    
C22   H7    S    
C6    Cl6   S    
C9    N2    A    
C19   C29   S    
C6    N1    A    
C21   H4    S    
C4    C33   A    
C11   C17   S    
C1    O2    A    
C25   H13   S    
Cu1   O5    S    
C10   O5    A    
C9    C24   S    
Cu2   O2    S    
C7    O3    A    
C12   C25   S    
C1    C4    S    
C23   H23   S    
C5    Cl5   S    
C2    C3    A    
C15   H1    S    
C3    C10   S    
C14   Cl3   S    
C14   Cl2   S    
C30   C31   T    
C16   C19   S    
C12   C19   S    
C8    N1    A    
C26   H15   S    
C16   H12   S    
Cu1   N1    S    
C28   H21   S    
C15   C21   S    
C13   C16   S    
C14   C15   S    
C20   H30   S    
C2    C28   S    
