data_mof_unit_5325.cif
_audit_creation_date              2012-12-10T18:45:09-0500
_audit_creation_method            fapswitch 2.2
_symmetry_space_group_name_H-M    P1
_symmetry_Int_Tables_number       1
_space_group_crystal_system       triclinic
_cell_length_a                    10.643241
_cell_length_b                    9.908705
_cell_length_c                    10.717745
_cell_angle_alpha                 90.138359
_cell_angle_beta                  93.714725
_cell_angle_gamma                 90.923716
_cell_volume                      1127.77314867

loop_
_atom_site_label
_atom_site_type_symbol
_atom_type_description
_atom_site_fract_x
_atom_site_fract_y
_atom_site_fract_z
_atom_type_partial_charge
C1    C     C_R   0.260281 0.498856 0.499904 0.860674
C2    C     C_R   0.487477 0.500128 0.738893 0.873134
C3    C     C_R   0.569381 0.749236 0.110799 -0.208031
C4    C     C_R   0.419652 0.743825 0.887997 -0.211792
C5    C     C_R   0.535649 0.870238 0.051578 -0.177513
C6    C     C_R   0.452549 0.867399 0.945430 -0.173208
C7    C     C_R   0.469391 0.622934 0.938622 0.105290
C8    C     C_R   0.522284 0.624850 0.060865 0.109285
C9    C     C_R   0.522853 0.501890 0.127455 -0.136862
C10   C     C_R   0.473145 0.500376 0.871839 -0.135768
C11   C     C_R   0.508454 0.378844 0.063508 -0.221572
C12   C     C_R   0.739707 0.500459 0.499215 0.856937
C13   C     C_R   0.489729 0.378248 0.935601 -0.211992
C14   C     C_R   0.057884 0.417255 0.413487 -0.186104
C15   C     C_R   0.928507 0.419632 0.411707 -0.203163
C16   C     C_R   0.872166 0.500027 0.498643 -0.012712
C17   C     C_R   0.128016 0.496059 0.501617 0.020239
C18   C     C_R   0.711575 0.876602 0.625622 0.152576
C19   C     C_R   0.698291 0.821707 0.744080 -0.103722
C20   C     C_R   0.801605 0.806109 0.829785 -0.182585
C21   C     C_R   0.920465 0.851537 0.799715 -0.145004
C22   C     C_R   0.935570 0.909724 0.683126 -0.140106
C23   C     C_R   0.942429 0.573996 0.589518 -0.196357
C24   C     C_R   0.832549 0.920286 0.595738 -0.205571
C25   C     C_R   0.288247 0.860494 0.382958 0.153592
C26   C     C_R   0.290558 0.808180 0.262021 -0.102766
C27   C     C_R   0.182359 0.751505 0.200795 -0.166055
C28   C     C_R   0.069062 0.750415 0.259366 -0.121943
C29   C     C_R   0.064439 0.806901 0.378408 -0.119934
C30   C     C_R   0.173564 0.862095 0.440002 -0.155068
C31   C     C_R   0.071621 0.573289 0.590672 -0.193256
C32   C     C_R   0.597653 0.075978 0.555363 -0.110455
C33   C     C_R   0.401876 0.071138 0.444225 -0.122575
C34   C     C_R   0.599994 0.933182 0.555417 0.030628
C35   C     C_R   0.400677 0.928039 0.443846 0.025711
C36   C     C_R   0.511336 0.500537 0.260804 0.872718
H1    H     H_    0.511989 0.282947 0.111868 0.169267
H2    H     H_    0.127337 0.632027 0.660234 0.129544
H3    H     H_    0.674009 0.134517 0.601574 0.152426
H4    H     H_    0.323626 0.125274 0.399725 0.139007
H5    H     H_    0.606758 0.803030 0.774024 0.177737
H6    H     H_    0.788349 0.764721 0.921473 0.149182
H7    H     H_    0.000170 0.843769 0.867216 0.130924
H8    H     H_    0.026062 0.951282 0.662730 0.128319
H9    H     H_    0.844947 0.972743 0.508724 0.124652
H10   H     H_    0.375359 0.814226 0.214810 0.162063
H11   H     H_    0.186140 0.710260 0.107511 0.137326
H12   H     H_    0.488896 0.282176 0.887040 0.170622
H13   H     H_    0.984826 0.706872 0.212357 0.126552
H14   H     H_    0.976526 0.806045 0.423032 0.150071
H15   H     H_    0.170150 0.905296 0.532076 0.107906
H16   H     H_    0.628935 0.754119 0.196474 0.160206
H17   H     H_    0.360781 0.744124 0.801771 0.153749
H18   H     H_    0.567804 0.965820 0.092152 0.141554
H19   H     H_    0.419652 0.960743 0.903567 0.140542
H20   H     H_    0.103140 0.357084 0.345243 0.135335
H21   H     H_    0.872528 0.360506 0.342670 0.138686
H22   H     H_    0.896748 0.629151 0.659932 0.173959
N1    N     N_R   0.500000 0.857200 0.500000 -0.120780
N2    N     N_R   0.500000 0.142810 0.500000 -0.093159
O1    O     O_R   0.316770 0.614620 0.499990 -0.609418
O2    O     O_R   0.683230 0.614620 0.500010 -0.619205
O3    O     O_R   0.316800 0.385290 0.500000 -0.627433
O4    O     O_R   0.683200 0.385290 0.500000 -0.621842
O5    O     O_R   0.500010 0.614690 0.316770 -0.629176
O6    O     O_R   0.499990 0.614690 0.683230 -0.641522
O7    O     O_R   0.500040 0.385360 0.316770 -0.617983
O8    O     O_R   0.499960 0.385360 0.683230 -0.613204
Zn1   Zn    Zn3+2 0.500000 0.653120 0.500000 0.937507
Zn2   Zn    Zn3+2 0.500000 0.346880 0.500000 0.939921

loop_
_geom_bond_atom_site_label_1
_geom_bond_atom_site_label_2
_ccdc_geom_bond_type
C7    C10   A    
C20   H6    S    
C30   H15   S    
O3    Zn2   S    
C29   C30   A    
O4    Zn2   S    
C4    H17   S    
C23   H22   S    
C9    C11   A    
C28   H13   S    
C14   H20   S    
C19   C20   A    
C31   H2    S    
N2    Zn2   S    
C6    H19   S    
C3    H16   S    
O7    Zn2   S    
C36   O5    A    
C36   O7    A    
C7    C8    A    
C21   C22   A    
C33   N2    A    
C15   H21   S    
C14   C17   A    
C26   C27   A    
C5    C6    A    
N1    Zn1   S    
C4    C7    A    
C18   C24   A    
C24   H9    S    
C1    O3    A    
C22   C24   A    
C4    C6    A    
C28   C29   A    
C33   C35   A    
C17   C31   A    
C25   C35   S    
C18   C19   A    
C16   C23   A    
C2    O8    A    
C29   H14   S    
C18   C34   S    
C34   N1    A    
C12   O4    A    
O5    Zn1   S    
C23   C31   A    
O6    Zn1   S    
C32   N2    A    
C27   H11   S    
C15   C16   A    
C33   H4    S    
C9    C36   S    
C19   H5    S    
C5    H18   S    
C11   C13   A    
C12   O2    A    
C20   C21   A    
C35   N1    A    
C3    C8    A    
C32   H3    S    
O1    Zn1   S    
C27   C28   A    
C11   H1    S    
O8    Zn2   S    
C26   H10   S    
C14   C15   A    
C25   C30   A    
C3    C5    A    
C25   C26   A    
C21   H7    S    
C1    C17   S    
C10   C13   A    
C2    C10   S    
C22   H8    S    
C12   C16   S    
O2    Zn1   S    
C1    O1    A    
C8    C9    A    
C2    O6    A    
C13   H12   S    
C32   C34   A    
