data_mof_unit_33285.cif
_audit_creation_date              2012-12-11T14:17:28-0500
_audit_creation_method            fapswitch 2.2
_symmetry_space_group_name_H-M    P1
_symmetry_Int_Tables_number       1
_space_group_crystal_system       triclinic
_cell_length_a                    6.938297
_cell_length_b                    13.681295
_cell_length_c                    20.419355
_cell_angle_alpha                 101.922816
_cell_angle_beta                  89.859798
_cell_angle_gamma                 90.884429
_cell_volume                      1896.26304989

loop_
_atom_site_label
_atom_site_type_symbol
_atom_type_description
_atom_site_fract_x
_atom_site_fract_y
_atom_site_fract_z
_atom_type_partial_charge
O1    O     O_R   0.506860 0.599390 0.449240 -0.544541
O2    O     O_R   0.180220 0.594600 0.586780 -0.551288
O3    O     O_R   0.004500 0.400610 0.550760 -0.544263
C1    C     C_R   0.348960 0.615515 0.613630 0.734470
O4    O     O_R   0.177490 0.611290 0.451970 -0.523807
O5    O     O_R   0.001750 0.417420 0.414990 -0.518558
C2    C     C_R   0.347177 0.638324 0.435509 0.730553
O6    O     O_R   0.509610 0.582580 0.585010 -0.546263
O7    O     O_3   0.337420 0.436370 0.488020 -0.372687
V1    V     V_3+5 0.064680 0.511800 0.502220 1.461985
O8    O     O_R   0.671710 0.405400 0.413220 -0.552024
C3    C     C_R   0.840155 0.386473 0.385609 0.794805
O9    O     O_R   0.674440 0.388710 0.548030 -0.540120
C4    C     C_R   0.842441 0.360981 0.563990 0.696351
V2    V     V_3+5 0.564010 0.488200 0.497780 1.439528
O10   O     O_3   0.841140 0.563630 0.511980 -0.376733
C5    C     C_R   0.824712 0.105675 0.610250 0.165160
H1    H     H_    0.762146 0.985517 0.700180 0.131536
C6    C     C_R   0.848283 0.282073 0.603482 -0.140930
C7    C     C_R   0.943985 0.308236 0.923976 -0.263676
C8    C     C_R   0.000655 0.376613 0.885421 0.045808
C9    C     C_R   0.978323 0.351111 0.815829 -0.066359
C10   C     C_R   0.887318 0.260345 0.784087 0.082836
C11   C     C_R   0.847819 0.188013 0.823302 0.062286
C12   C     C_R   0.851915 0.236189 0.713390 0.030632
C13   C     C_R   0.823301 0.134404 0.681402 0.073838
C14   C     C_R   0.792635 0.063239 0.721577 -0.180267
C15   C     C_R   0.796749 0.090351 0.790955 -0.197544
C16   C     C_R   0.839674 0.309955 0.673848 -0.116992
C17   C     C_R   0.847758 0.180020 0.571283 0.150190
C18   C     C_R   0.873357 0.213379 0.893651 -0.075878
H2    H     H_    0.967715 0.326160 0.977657 0.102913
H3    H     H_    0.040392 0.401125 0.786674 0.148332
H4    H     H_    0.768245 0.032478 0.818868 0.116492
C19   C     C_2   0.991536 0.316732 0.273138 0.039861
C20   C     C_2   0.848543 0.316749 0.319180 -0.328537
H5    H     H_    0.736125 0.259603 0.309619 0.109742
C21   C     C_2   0.007757 0.236435 0.211371 -0.223507
C22   C     C_2   0.855756 0.186736 0.178865 -0.305696
H6    H     H_    0.149562 0.224224 0.188686 0.131513
H7    H     H_    0.711502 0.202255 0.198564 0.131053
C23   C     C_2   0.210579 0.778751 0.785384 0.161849
C24   C     C_2   0.357264 0.837412 0.815077 -0.319070
H8    H     H_    0.478239 0.853250 0.784926 0.103910
C25   C     C_2   0.216852 0.736851 0.712049 0.160183
C26   C     C_2   0.358335 0.672709 0.684067 -0.034605
C27   C     C_R   0.340189 0.888922 0.387799 -0.154472
H9    H     H_    0.329875 0.838228 0.480459 0.103447
H10   H     H_    0.337734 0.013928 0.304372 0.122094
H11   H     H_    0.329957 0.966722 0.412703 0.113062
C28   C     C_R   0.356930 0.715610 0.395676 -0.035175
C29   C     C_R   0.358288 0.685461 0.072124 -0.161733
C30   C     C_R   0.357772 0.609723 0.108118 -0.122329
C31   C     C_R   0.358290 0.632547 0.177863 -0.140428
C32   C     C_R   0.358724 0.733019 0.213734 0.078945
C33   C     C_R   0.355002 0.810354 0.176421 0.067280
C34   C     C_R   0.359772 0.759249 0.285250 0.061006
C35   C     C_R   0.348613 0.861543 0.317657 0.140549
C36   C     C_R   0.344772 0.935776 0.279961 -0.201346
C37   C     C_R   0.349605 0.910842 0.210535 -0.193750
C38   C     C_R   0.370151 0.687517 0.325982 -0.162263
C39   C     C_R   0.341177 0.816173 0.426498 -0.185483
C40   C     C_R   0.356662 0.785452 0.105487 -0.080047
H12   H     H_    0.387031 0.609153 0.305268 0.130027
H13   H     H_    0.360249 0.666068 0.017908 0.131700
H14   H     H_    0.356160 0.569642 0.202019 0.120544
H15   H     H_    0.357670 0.532452 0.081739 0.116905
H16   H     H_    0.346596 0.971341 0.183754 0.118311
O11   O     O_R   0.203230 0.917310 0.915020 -0.537252
O12   O     O_R   0.535500 0.888690 0.048040 -0.538147
O13   O     O_R   0.711080 0.082610 0.085000 -0.545804
C41   C     C_R   0.366092 0.862482 0.065172 0.696357
O14   O     O_R   0.532630 0.905370 0.913230 -0.549388
O15   O     O_R   0.708190 0.099410 0.949230 -0.543476
C42   C     C_R   0.363650 0.887571 0.885987 0.762557
O16   O     O_R   0.206120 0.900510 0.050790 -0.538633
O17   O     O_3   0.375360 0.063570 0.011990 -0.376101
V3    V     V_3+5 0.648170 0.988200 0.997780 1.421690
O18   O     O_R   0.038240 0.111390 0.951940 -0.541630
C43   C     C_R   0.871180 0.136991 0.934432 0.700612
O19   O     O_R   0.041120 0.094710 0.086750 -0.543250
C44   C     C_R   0.872070 0.116195 0.113362 0.753703
V4    V     V_3+5 0.148810 0.011930 0.002180 1.423496
O20   O     O_3   0.871750 0.936430 0.988010 -0.371085
C45   C     C_3   0.864104 0.150376 0.495594 -0.773176
H17   H     H_    0.890783 0.214134 0.470869 0.183148
H18   H     H_    0.987398 0.099371 0.481936 0.208437
H19   H     H_    0.728576 0.112745 0.474285 0.206490
C46   C     C_3   0.036386 0.753811 0.823700 -0.655713
H20   H     H_    0.947308 0.693904 0.792329 0.205530
H21   H     H_    0.082121 0.726421 0.868690 0.230091
H22   H     H_    0.945218 0.820699 0.838728 0.196635
C47   C     C_3   0.053455 0.766221 0.671432 -0.780138
H23   H     H_    0.974074 0.830538 0.700905 0.198815
H24   H     H_    0.110430 0.789432 0.626000 0.192250
H25   H     H_    0.948520 0.703356 0.657380 0.222851
C48   C     C_3   0.525477 0.650202 0.725951 -0.741956
H26   H     H_    0.610195 0.587368 0.698605 0.225517
H27   H     H_    0.626297 0.714955 0.737638 0.188282
H28   H     H_    0.473108 0.629254 0.772701 0.257844
C49   C     C_3   0.804394 0.995675 0.577021 -0.797801
H29   H     H_    0.921729 0.952961 0.594477 0.204598
H30   H     H_    0.662599 0.966243 0.590151 0.201978
H31   H     H_    0.811549 0.979696 0.521772 0.222753
C50   C     C_2   0.789973 0.414765 0.704175 0.361687
H32   H     H_    0.856744 0.475990 0.685673 0.023096
O21   O     O_2   0.671271 0.432914 0.749171 -0.520199
C51   C     C_2   0.090694 0.472899 0.918482 0.379587
H33   H     H_    0.107522 0.490796 0.972509 0.032055
O22   O     O_2   0.147297 0.533292 0.886027 -0.539261
C52   C     C_2   0.139459 0.397730 0.279731 0.375864
H34   H     H_    0.281269 0.381774 0.257930 0.009907
O23   O     O_2   0.100753 0.483885 0.305345 -0.542150

loop_
_geom_bond_atom_site_label_1
_geom_bond_atom_site_label_2
_ccdc_geom_bond_type
C21   H6    S    
C32   C33   A    
C47   H23   S    
O12   V3    S    
C19   C20   D    
C28   C38   A    
C41   O16   A    
C25   C47   S    
C27   C39   A    
O19   C44   A    
C18   C43   S    
C22   H7    S    
C1    C26   S    
C30   C31   A    
C50   O21   D    
C13   C14   A    
C49   H29   S    
C5    C13   A    
C20   H5    S    
O5    C3    A    
C21   C22   D    
O17   V4    S    
V2    O10   S    
C51   H33   S    
C5    C49   S    
O19   V4    S    
O8    V2    S    
C52   H34   S    
C10   C11   A    
O1    V2    S    
C3    C20   S    
O7    V1    S    
C1    O6    A    
O13   C44   A    
C15   H4    S    
C36   C37   A    
C49   H30   S    
O15   C43   A    
C8    C9    A    
C12   C16   A    
C5    C17   A    
O14   C42   A    
C16   C50   S    
C28   C39   A    
O16   V4    S    
C48   H27   S    
C48   H26   S    
C27   H11   S    
C45   H18   S    
C24   C42   S    
C19   C21   S    
O4    C2    A    
C35   C36   A    
O17   V3    S    
C33   C37   A    
C46   H22   S    
C23   C25   S    
C38   H12   S    
O2    C1    A    
C24   H8    S    
O11   V4    S    
V3    O20   S    
H9    C39   S    
V4    O20   S    
O14   V3    S    
C33   C40   A    
C52   O23   D    
C7    C8    A    
C17   C45   S    
C45   H17   S    
O3    C4    A    
C26   C48   S    
C47   H25   S    
O9    V2    S    
C46   H21   S    
C23   C24   D    
O2    V1    S    
C48   H28   S    
C19   C52   S    
C29   C30   A    
C7    H2    S    
C45   H19   S    
C9    H3    S    
C31   C32   A    
O1    C2    A    
C4    C6    S    
H1    C14   S    
C11   C15   A    
C22   C44   S    
C29   C40   A    
O5    V1    S    
O8    C3    A    
C34   C38   A    
C31   H14   S    
O6    V2    S    
C50   H32   S    
H10   C36   S    
C23   C46   S    
C32   C34   A    
C12   C13   A    
C11   C18   A    
C2    C28   S    
O4    V1    S    
O3    V1    S    
V1    O10   S    
C27   C35   A    
O18   V4    S    
C34   C35   A    
C51   O22   D    
O11   C42   A    
C10   C12   A    
O7    V2    S    
C30   H15   S    
C8    C51   S    
O18   C43   A    
C25   C26   D    
C40   C41   S    
C37   H16   S    
C47   H24   S    
O15   V3    S    
C14   C15   A    
C9    C10   A    
O12   C41   A    
C49   H31   S    
C46   H20   S    
O9    C4    A    
C6    C17   A    
O13   V3    S    
C29   H13   S    
C7    C18   A    
C6    C16   A    
