data_mof_unit_43789.cif
_audit_creation_date              2012-12-10T17:21:39-0500
_audit_creation_method            fapswitch 2.2
_symmetry_space_group_name_H-M    P1
_symmetry_Int_Tables_number       1
_space_group_crystal_system       triclinic
_cell_length_a                    10.906263
_cell_length_b                    10.91682
_cell_length_c                    9.643081
_cell_angle_alpha                 89.662805
_cell_angle_beta                  88.645005
_cell_angle_gamma                 98.180913
_cell_volume                      1136.07065351

loop_
_atom_site_label
_atom_site_type_symbol
_atom_type_description
_atom_site_fract_x
_atom_site_fract_y
_atom_site_fract_z
_atom_type_partial_charge
C1    C     C_R   0.489528 0.260609 0.500129 0.737949
C2    C     C_3   0.878324 0.498091 0.499912 0.021604
C3    C     C_3   0.943169 0.598778 0.605435 0.314177
C4    C     C_3   0.937246 0.531536 0.352186 -0.530940
C5    C     C_R   0.338007 0.103357 0.717258 0.220449
C6    C     C_R   0.320184 0.049706 0.850332 0.108849
C7    C     C_R   0.347278 0.930022 0.871416 -0.015318
C8    C     C_R   0.374605 0.860305 0.755460 0.409458
C9    C     C_R   0.419592 0.922978 0.628104 -0.013123
C10   C     C_R   0.412787 0.052236 0.617681 -0.070324
C11   C     C_R   0.465525 0.122372 0.499187 -0.091194
C12   C     C_R   0.259799 0.496291 0.499971 0.865607
C13   C     C_R   0.495208 0.057346 0.379133 0.141610
C14   C     C_R   0.486332 0.930440 0.383763 -0.236564
C15   C     C_R   0.462630 0.863680 0.507165 -0.110779
C16   C     C_R   0.635605 0.705128 0.136371 0.077138
C17   C     C_R   0.653652 0.820267 0.065435 0.261827
C18   C     C_R   0.647957 0.820043 0.922517 0.026785
C19   C     C_R   0.630789 0.706035 0.853954 0.427447
C20   C     C_R   0.568612 0.598296 0.923181 0.025417
C21   C     C_R   0.568298 0.598730 0.072330 0.085628
C22   C     C_R   0.423729 0.416396 0.077070 -0.154054
C23   C     C_R   0.486488 0.734489 0.501801 0.853324
C24   C     C_R   0.418323 0.421095 0.929338 0.506016
C25   C     C_R   0.740232 0.501301 0.499095 0.860026
C26   C     C_3   0.050589 0.368181 0.549548 -0.049212
C27   C     C_3   0.905626 0.362214 0.537635 0.241812
C28   C     C_3   0.088191 0.599780 0.596187 -0.216786
C29   C     C_3   0.077497 0.524872 0.347555 0.249032
C30   C     C_3   0.121863 0.496097 0.496766 0.016501
Cu1   Cu    Cu3+1 0.499990 0.499990 0.640660 1.049466
Cu2   Cu    Cu3+1 0.500010 0.500010 0.359340 0.970704
H1    H     H_    0.072134 0.362680 0.661610 0.139520
H2    H     H_    0.925813 0.625642 0.321385 0.149721
H3    H     H_    0.505329 0.884025 0.288881 0.192427
H4    H     H_    0.360181 0.348851 0.135336 0.152439
H5    H     H_    0.120294 0.576944 0.700732 0.179769
H6    H     H_    0.127529 0.615866 0.311361 0.111338
H7    H     H_    0.889215 0.473999 0.269812 0.213369
N1    N     N_R   0.501200 0.501210 0.147910 -0.178176
N2    N     N_R   0.501250 0.501290 0.852040 -0.169273
O1    O     O_R   0.499990 0.319640 0.618810 -0.572247
O2    O     O_R   0.500000 0.319660 0.381240 -0.598828
O3    O     O_R   0.317680 0.499970 0.618790 -0.545776
O4    O     O_R   0.317700 0.499990 0.381210 -0.555273
O5    O     O_R   0.500000 0.680340 0.618760 -0.487962
O6    O     O_R   0.500010 0.680360 0.381190 -0.603070
O7    O     O_R   0.682300 0.500010 0.618790 -0.491838
O8    O     O_R   0.682320 0.500030 0.381210 -0.570478
N3    N     N_3   0.159697 0.721221 0.560416 -0.571528
H8    H     H_    0.144299 0.785053 0.636900 0.239902
H9    H     H_    0.136419 0.756193 0.465451 0.205311
N4    N     N_3   0.907649 0.721397 0.572148 -0.582813
H10   H     H_    0.939872 0.786557 0.646693 0.211986
H11   H     H_    0.940736 0.757801 0.476394 0.189584
N5    N     N_3   0.536330 0.115797 0.249355 -0.564886
H12   H     H_    0.466966 0.162235 0.210685 0.228640
H13   H     H_    0.618201 0.176432 0.262545 0.249019
N6    N     N_3   0.247629 0.174874 0.667279 -0.581528
H14   H     H_    0.173195 0.175014 0.737559 0.243111
H15   H     H_    0.286015 0.265664 0.647363 0.295621
N7    N     N_3   0.258220 0.109799 0.957334 -0.599202
H16   H     H_    0.312913 0.117884 0.045043 0.219319
H17   H     H_    0.173674 0.055597 0.982702 0.213069
N8    N     N_3   0.332619 0.872858 0.006479 -0.623666
H18   H     H_    0.390963 0.926303 0.074278 0.250603
H19   H     H_    0.240984 0.870367 0.041814 0.211942
O9    O     O_3   0.340757 0.733583 0.761331 -0.694897
H20   H     H_    0.295493 0.706824 0.849002 0.333540
N9    N     N_3   0.097467 0.261554 0.484942 -0.589991
H21   H     H_    0.046953 0.180118 0.525706 0.242567
H22   H     H_    0.087940 0.258029 0.378102 0.296341
N10   N     N_3   0.722146 0.689628 0.240761 -0.520484
H23   H     H_    0.810085 0.720023 0.197561 0.184065
H24   H     H_    0.710912 0.745405 0.326222 0.214325
O10   O     O_3   0.703599 0.930047 0.126430 -0.728819
H25   H     H_    0.708959 0.919032 0.227571 0.324418
N11   N     N_3   0.680524 0.933616 0.845612 -0.607943
H26   H     H_    0.620953 0.995642 0.877472 0.259586
H27   H     H_    0.771014 0.971569 0.869392 0.251528
O11   O     O_3   0.692633 0.696476 0.730512 -0.662386
H28   H     H_    0.717765 0.779294 0.688149 0.336236
O12   O     O_3   0.320375 0.356435 0.863582 -0.735318
H29   H     H_    0.250796 0.336933 0.931863 0.312239
N12   N     N_3   0.856106 0.271265 0.432365 -0.604090
H30   H     H_    0.761277 0.272450 0.421633 0.197727
H31   H     H_    0.898162 0.288278 0.334766 0.253663
N13   N     N_3   0.847019 0.318749 0.671741 -0.594227
H32   H     H_    0.877204 0.235265 0.699154 0.219917
H33   H     H_    0.751186 0.297064 0.662012 0.243918
N14   N     N_3   0.899393 0.567485 0.749526 -0.494934
H34   H     H_    0.942391 0.496692 0.791436 0.204311
H35   H     H_    0.925350 0.643084 0.813902 0.206653
O13   O     O_3   0.104688 0.436916 0.249913 -0.745178
H36   H     H_    0.095449 0.472632 0.156381 0.314554

loop_
_geom_bond_atom_site_label_1
_geom_bond_atom_site_label_2
_ccdc_geom_bond_type
C8    C9    A    
C16   C21   A    
Cu1   O1    S    
C11   C13   A    
N10   H23   S    
C19   C20   A    
C1    C11   S    
C20   N2    A    
C7    C8    A    
N4    H10   S    
C26   C27   S    
C29   C30   S    
C3    C28   S    
C24   O12   S    
C5    C6    A    
N11   H27   S    
N14   H35   S    
N5    H12   S    
C3    N14   S    
C18   C19   A    
Cu2   O4    S    
C27   N12   S    
N7    H17   S    
C28   N3    S    
C1    O2    A    
O12   H29   S    
O9    H20   S    
N8    H19   S    
Cu1   O5    S    
C29   H6    S    
C17   O10   S    
N3    H9    S    
C2    C27   S    
C9    C10   A    
C4    C29   S    
C13   N5    S    
C15   C23   S    
N6    H14   S    
C23   O5    A    
C13   C14   A    
C24   N2    A    
N10   H24   S    
C27   N13   S    
C17   C18   A    
N4    H11   S    
C4    H2    S    
N6    H15   S    
C23   O6    A    
Cu1   O3    S    
C5    N6    S    
N12   H31   S    
C16   N10   S    
O10   H25   S    
C14   H3    S    
N11   H26   S    
C16   C17   A    
N12   H30   S    
O11   H28   S    
C2    C4    S    
N7    H16   S    
C7    N8    S    
C26   H1    S    
Cu1   Cu2   S    
C4    H7    S    
C18   N11   S    
C22   N1    A    
N3    H8    S    
N13   H32   S    
C25   O7    A    
N9    H21   S    
N13   H33   S    
C26   C30   S    
Cu1   O7    S    
C26   N9    S    
Cu2   O6    S    
C22   C24   A    
N14   H34   S    
Cu1   N2    S    
C12   C30   S    
C12   O4    A    
C8    O9    S    
C6    C7    A    
C22   H4    S    
C6    N7    S    
C28   C30   S    
C2    C3    S    
C9    C15   A    
C5    C10   A    
C12   O3    A    
C3    N4    S    
C29   O13   S    
C21   N1    A    
C28   H5    S    
Cu2   O2    S    
N5    H13   S    
C2    C25   S    
Cu2   N1    S    
O13   H36   S    
C25   O8    A    
Cu2   O8    S    
C10   C11   A    
C1    O1    A    
C20   C21   A    
N8    H18   S    
C14   C15   A    
N9    H22   S    
C19   O11   S    
