data_mof_unit_12478.cif
_audit_creation_date              2012-12-11T16:25:33-0500
_audit_creation_method            fapswitch 2.2
_symmetry_space_group_name_H-M    P1
_symmetry_Int_Tables_number       1
_space_group_crystal_system       triclinic
_cell_length_a                    20.310644
_cell_length_b                    7.262205
_cell_length_c                    13.333968
_cell_angle_alpha                 90.070848
_cell_angle_beta                  103.306749
_cell_angle_gamma                 91.247426
_cell_volume                      1913.46398384

loop_
_atom_site_label
_atom_site_type_symbol
_atom_type_description
_atom_site_fract_x
_atom_site_fract_y
_atom_site_fract_z
_atom_type_partial_charge
O1    O     O_R   0.449520 0.506760 0.599710 -0.510626
O2    O     O_R   0.550480 0.006760 0.400290 -0.550734
O3    O     O_R   0.587930 0.180200 0.595790 -0.546327
O4    O     O_R   0.412070 0.680200 0.404210 -0.512631
C1    C     C_R   0.612573 0.347356 0.623278 0.756487
C2    C     C_R   0.387498 0.842667 0.376239 0.756346
O5    O     O_R   0.452350 0.177380 0.611700 -0.550431
O6    O     O_R   0.547650 0.677380 0.388300 -0.510543
O7    O     O_R   0.413930 0.001760 0.416320 -0.547642
O8    O     O_R   0.586070 0.501760 0.583680 -0.512169
C3    C     C_R   0.435495 0.344094 0.637112 0.735182
C4    C     C_R   0.564495 0.846735 0.362928 0.737523
O9    O     O_3   0.487550 0.337460 0.435880 -0.368228
O10   O     O_3   0.512450 0.837460 0.564120 -0.356472
V1    V     V_3+5 0.502310 0.064670 0.511900 1.488948
V2    V     V_3+5 0.497690 0.564670 0.488100 1.585032
C5    C     C_R   0.613186 0.944500 0.112876 -0.165555
C6    C     C_R   0.387864 0.297864 0.891964 -0.166334
H1    H     H_    0.520849 0.949736 0.164397 0.146831
H2    H     H_    0.480213 0.282179 0.841051 0.145333
H3    H     H_    0.696677 0.983243 0.987942 0.142120
H4    H     H_    0.304883 0.285174 0.018729 0.146825
H5    H     H_    0.588733 0.989180 0.036036 0.132795
H6    H     H_    0.412821 0.269276 0.971216 0.139467
C7    C     C_R   0.604310 0.860578 0.284579 -0.021454
C8    C     C_R   0.395806 0.346229 0.715875 -0.020552
C9    C     C_R   0.928615 0.794928 0.314437 -0.073188
C10   C     C_R   0.070775 0.404386 0.682081 -0.075518
C11   C     C_R   0.892341 0.762792 0.389356 0.025933
C12   C     C_R   0.106640 0.419991 0.605445 0.026985
C13   C     C_R   0.822527 0.784486 0.366874 -0.151015
C14   C     C_R   0.176687 0.403225 0.629183 -0.153580
C15   C     C_R   0.786824 0.837994 0.267321 0.060090
C16   C     C_R   0.213035 0.371571 0.731671 0.061621
C17   C     C_R   0.824519 0.870971 0.190786 0.094621
C18   C     C_R   0.175738 0.354980 0.809953 0.098596
C19   C     C_R   0.715094 0.859269 0.241069 0.069972
C20   C     C_R   0.285015 0.356194 0.759107 0.074711
C21   C     C_R   0.683074 0.914981 0.139607 0.119019
C22   C     C_R   0.317669 0.321726 0.863540 0.119976
C23   C     C_R   0.720936 0.942596 0.065656 -0.179276
C24   C     C_R   0.280146 0.309556 0.938872 -0.183019
C25   C     C_R   0.790395 0.919564 0.090433 -0.108363
C26   C     C_R   0.210447 0.327552 0.912844 -0.108550
C27   C     C_R   0.673862 0.829459 0.312171 -0.237675
C28   C     C_R   0.325920 0.371622 0.686506 -0.236745
C29   C     C_R   0.574323 0.920606 0.185467 -0.112881
C30   C     C_R   0.426434 0.306722 0.818243 -0.114622
C31   C     C_R   0.895694 0.851119 0.215813 -0.049256
C32   C     C_R   0.104333 0.369575 0.783820 -0.050585
H7    H     H_    0.694185 0.786896 0.390343 0.103232
H8    H     H_    0.305129 0.398374 0.606119 0.102660
H9    H     H_    0.982637 0.773321 0.332957 0.134609
H10   H     H_    0.016519 0.421904 0.662266 0.136505
H11   H     H_    0.798202 0.757239 0.429184 0.117535
H12   H     H_    0.200664 0.416621 0.565403 0.117531
H13   H     H_    0.918527 0.719715 0.465577 0.159706
H14   H     H_    0.079943 0.446345 0.526832 0.161066
H15   H     H_    0.817274 0.942375 0.030081 0.136988
H16   H     H_    0.183853 0.317268 0.974329 0.132695
C33   C     C_R   0.232525 0.836848 0.021914 0.332939
C34   C     C_R   0.766862 0.406213 0.976019 0.331969
C35   C     C_R   0.287085 0.800542 0.979155 -0.193884
C36   C     C_R   0.712252 0.453586 0.016287 -0.196198
C37   C     C_R   0.348583 0.755409 0.040593 -0.214422
C38   C     C_R   0.650850 0.492539 0.952320 -0.214297
C39   C     C_R   0.358615 0.753632 0.147226 0.332458
C40   C     C_R   0.640929 0.476564 0.845995 0.332726
C41   C     C_R   0.306744 0.810973 0.196711 -0.038843
C42   C     C_R   0.693071 0.409112 0.800160 -0.041025
C43   C     C_R   0.240324 0.838750 0.132121 -0.051977
C44   C     C_R   0.759368 0.387902 0.866374 -0.051207
C45   C     C_R   0.318299 0.842309 0.306185 -0.127641
C46   C     C_R   0.681861 0.362200 0.692578 -0.125552
C47   C     C_R   0.262632 0.877449 0.350713 0.070720
C48   C     C_R   0.737717 0.318401 0.650277 0.070927
C49   C     C_R   0.196031 0.885263 0.287791 0.002549
C50   C     C_R   0.804223 0.316839 0.713914 0.001582
C51   C     C_R   0.184748 0.865408 0.179297 -0.132202
C52   C     C_R   0.815184 0.351739 0.821203 -0.130724
C53   C     C_R   0.271880 0.899558 0.458931 -0.234134
C54   C     C_R   0.728698 0.280684 0.543416 -0.231266
C55   C     C_R   0.217344 0.928197 0.503513 -0.174517
C56   C     C_R   0.783441 0.243550 0.500733 -0.173809
C57   C     C_R   0.152194 0.934355 0.442184 0.432179
C58   C     C_R   0.848529 0.243780 0.562693 0.433642
C59   C     C_R   0.141382 0.913345 0.335583 -0.209532
C60   C     C_R   0.859068 0.279566 0.668083 -0.208030
H17   H     H_    0.281174 0.799949 0.896259 0.179163
H18   H     H_    0.717984 0.466956 0.098843 0.179584
H19   H     H_    0.388531 0.714820 0.004024 0.181780
H20   H     H_    0.610776 0.541215 0.986324 0.181971
H21   H     H_    0.321168 0.892554 0.511017 0.131931
H22   H     H_    0.679416 0.281926 0.490912 0.129949
H23   H     H_    0.225884 0.944234 0.586321 0.164284
H24   H     H_    0.775111 0.215844 0.418874 0.163470
O11   O     O_R   0.913760 0.203480 0.916370 -0.530474
O12   O     O_R   0.086240 0.703480 0.083630 -0.530301
O13   O     O_R   0.047590 0.535230 0.888250 -0.521220
O14   O     O_R   0.952410 0.035230 0.111750 -0.513428
C61   C     C_R   0.064361 0.369928 0.862563 0.673607
C62   C     C_R   0.935785 0.866964 0.137563 0.671459
O15   O     O_R   0.912020 0.532880 0.904260 -0.535930
O16   O     O_R   0.087980 0.032880 0.095740 -0.536704
O17   O     O_R   0.949590 0.708460 0.099750 -0.520027
O18   O     O_R   0.050410 0.208460 0.900250 -0.510532
C63   C     C_R   0.885687 0.363227 0.883844 0.765835
C64   C     C_R   0.114282 0.866794 0.116546 0.765835
O19   O     O_3   0.012370 0.375360 0.064120 -0.366122
O20   O     O_3   0.987630 0.875360 0.935880 -0.362936
V3    V     V_3+5 0.997700 0.648160 0.988110 1.561660
V4    V     V_3+5 0.002300 0.148160 0.011890 1.573312
Cl1   Cl    Cl    0.158410 0.884719 0.927629 -0.653249
Cl2   Cl    Cl    0.840526 0.364852 0.072597 -0.660052
Cl3   Cl    Cl    0.433346 0.644463 0.206880 -0.708851
Cl4   Cl    Cl    0.565720 0.576537 0.779801 -0.698710
H25   H     H_    0.089742 0.919430 0.291054 0.109957
H26   H     H_    0.910630 0.277381 0.713271 0.112104
Cl5   Cl    Cl    0.083718 0.967280 0.499505 -0.640231
Cl6   Cl    Cl    0.917283 0.200118 0.507703 -0.642530

loop_
_geom_bond_atom_site_label_1
_geom_bond_atom_site_label_2
_ccdc_geom_bond_type
C38   C40   A    
C35   C37   A    
C54   H22   S    
C9    C11   A    
C23   C25   A    
O1    C3    A    
C36   H18   S    
O2    C4    A    
C2    O7    A    
C43   C51   A    
O3    V1    S    
C21   C23   A    
O18   V4    S    
O5    C3    A    
C52   C63   S    
C5    H5    S    
C46   C48   A    
C6    H6    S    
O15   V3    S    
C20   C22   A    
C56   C58   A    
C34   Cl2   S    
C56   H24   S    
C58   C60   A    
C27   H7    S    
C28   H8    S    
O12   C64   A    
C62   O17   A    
C41   C43   A    
C5    C21   A    
C1    C46   S    
C57   Cl5   S    
C6    C22   A    
O20   V3    S    
C34   C36   A    
C10   C32   A    
C37   C39   A    
C17   C31   A    
C13   C15   A    
C41   C45   A    
C17   C25   A    
C7    C29   A    
C16   C18   A    
C8    C30   A    
C33   C43   A    
O5    V1    S    
O17   V3    S    
C55   H23   S    
O6    V2    S    
C11   C13   A    
C45   C47   A    
C24   C26   A    
C53   C55   A    
C49   C51   A    
C57   C59   A    
O4    C2    A    
O19   V4    S    
C48   C54   A    
C31   C62   S    
O16   V4    S    
O11   V4    S    
C10   H10   S    
C47   C53   A    
C38   H20   S    
C3    C8    S    
C15   C19   A    
C44   C52   A    
C39   C41   A    
C36   C38   A    
O4    V2    S    
C42   C46   A    
C53   H21   S    
O6    C4    A    
O13   V3    S    
C35   H17   S    
O14   C62   A    
C50   C52   A    
C34   C44   A    
O1    V2    S    
O2    V1    S    
C47   C49   A    
H2    C30   S    
C40   Cl4   S    
H3    C23   S    
O13   C61   A    
C11   H13   S    
O14   V4    S    
C54   C56   A    
C33   Cl1   S    
C18   C26   A    
C60   H26   S    
C7    C27   A    
O16   C64   A    
C18   C32   A    
C2    C45   S    
O15   C63   A    
C50   C60   A    
C61   O18   A    
C37   H19   S    
O12   V3    S    
C55   C57   A    
C16   C20   A    
C33   C35   A    
C5    C29   A    
C48   C50   A    
O3    C1    A    
C6    C30   A    
C42   C44   A    
C9    H9    S    
C59   H25   S    
C25   H15   S    
C4    C7    S    
C10   C12   A    
O7    V1    S    
C1    O8    A    
C19   C21   A    
O8    V2    S    
C12   C14   A    
H4    C24   S    
C26   H16   S    
C12   H14   S    
C22   C24   A    
C15   C17   A    
C51   C64   S    
H1    C29   S    
C39   Cl3   S    
C20   C28   A    
C8    C28   A    
O11   C63   A    
C49   C59   A    
C32   C61   S    
C40   C42   A    
O9    V2    S    
O10   V1    S    
C58   Cl6   S    
C13   H11   S    
C19   C27   A    
C14   H12   S    
C9    C31   A    
C14   C16   A    
