data_mof_unit_7780.cif
_audit_creation_date              2013-03-05T16:32:26-0500
_audit_creation_method            fapswitch 2.2
_symmetry_space_group_name_H-M    P1
_symmetry_Int_Tables_number       1
_space_group_crystal_system       triclinic
_cell_length_a                    10.649585
_cell_length_b                    10.790795
_cell_length_c                    9.608983
_cell_angle_alpha                 89.768464
_cell_angle_beta                  90.680993
_cell_angle_gamma                 91.171427
_cell_volume                      1103.92346538

loop_
_atom_site_label
_atom_site_type_symbol
_atom_site_description
_atom_site_fract_x
_atom_site_fract_y
_atom_site_fract_z
_atom_type_partial_charge
O1    O     O_R   0.500000 0.319640 0.618810 -0.576867
O2    O     O_R   0.500010 0.319680 0.381230 -0.536611
C1    C     C_R   0.492965 0.262592 0.499998 0.833563
O3    O     O_R   0.316850 0.499950 0.618770 -0.608892
O4    O     O_R   0.316860 0.499990 0.381190 -0.577702
C2    C     C_R   0.259549 0.498379 0.499304 0.799954
Cu1   Cu    Cu3+1 0.499990 0.499980 0.640670 0.980758
Cu2   Cu    Cu3+1 0.500010 0.500020 0.359330 1.048897
O5    O     O_R   0.499990 0.680320 0.618770 -0.598254
O6    O     O_R   0.500000 0.680360 0.381190 -0.501765
O7    O     O_R   0.683140 0.500010 0.618810 -0.562016
O8    O     O_R   0.683150 0.500050 0.381230 -0.590468
C3    C     C_R   0.496476 0.737343 0.499920 0.844548
C4    C     C_R   0.740695 0.498140 0.500340 0.798954
C5    C     C_3   0.044067 0.504148 0.629924 -0.029096
C6    C     C_3   0.958191 0.398162 0.573342 -0.130849
H1    H     H_    0.921128 0.317606 0.633412 0.175998
H2    H     H_    0.085478 0.509166 0.736228 0.194727
C7    C     C_3   0.878050 0.495554 0.499690 -0.007850
C8    C     C_3   0.961869 0.601535 0.555964 -0.105670
C9    C     C_3   0.042804 0.593143 0.423942 -0.172593
C10   C     C_3   0.957299 0.486837 0.367602 -0.116551
C11   C     C_3   0.039610 0.390048 0.441806 -0.180329
C12   C     C_3   0.122751 0.496245 0.498111 -0.048288
H3    H     H_    0.927234 0.688217 0.602531 0.167548
H4    H     H_    0.080104 0.672739 0.362413 0.165448
H5    H     H_    0.922872 0.474645 0.259442 0.163478
H6    H     H_    0.073539 0.303344 0.394925 0.198981
C13   C     C_R   0.507657 0.063735 0.621193 0.080732
C14   C     C_R   0.474465 0.129108 0.501321 -0.212571
C15   C     C_R   0.422720 0.062253 0.386361 0.322997
C16   C     C_R   0.428428 0.932334 0.387225 -0.210305
H7    H     H_    0.391616 0.880387 0.299246 0.217084
C17   C     C_R   0.481833 0.870116 0.501226 -0.129141
C18   C     C_R   0.510521 0.936763 0.621335 0.096224
C19   C     C_3   0.624270 0.934240 0.713103 -0.401930
C20   C     C_3   0.621636 0.074925 0.712828 -0.377090
H8    H     H_    0.602173 0.892711 0.815842 0.236231
H9    H     H_    0.707444 0.896083 0.660448 0.200594
H10   H     H_    0.599921 0.114377 0.816298 0.232941
H11   H     H_    0.703083 0.119166 0.659201 0.191312
C21   C     C_R   0.609037 0.512702 0.073845 0.101705
N1    N     N_R   0.500800 0.500930 0.147930 -0.164504
C22   C     C_R   0.392399 0.479138 0.072874 0.053402
H12   H     H_    0.304710 0.463151 0.125994 0.158866
C23   C     C_R   0.392124 0.480554 0.924758 -0.024485
H13   H     H_    0.303979 0.466174 0.870034 0.146100
N2    N     N_R   0.500800 0.500890 0.852020 -0.205096
C24   C     C_R   0.610196 0.505016 0.927889 0.160418
C25   C     C_3   0.713801 0.600335 0.918222 0.074818
C26   C     C_3   0.708585 0.613823 0.075729 0.185434
H14   H     H_    0.687275 0.682027 0.854331 0.140536
H15   H     H_    0.795438 0.585713 0.130325 0.117401
N3    N     N_R   0.834340 0.549955 0.878641 0.101847
O9    O     O_R   0.933420 0.622165 0.886430 -0.386854
O10   O     O_R   0.848437 0.430874 0.867242 -0.391632
S1    S     S_3+6 0.663215 0.766783 0.122505 0.010807
O11   O     O_2   0.696919 0.790397 0.272320 -0.272985
O12   O     O_2   0.735153 0.859201 0.035286 -0.301992
O13   O     O_3   0.508141 0.782858 0.094782 -0.548850
H16   H     H_    0.498778 0.867961 0.057761 0.381003
N4    N     N_R   0.365283 0.123342 0.269461 0.139728
O14   O     O_R   0.377740 0.079414 0.144524 -0.361375
O15   O     O_R   0.284941 0.210525 0.289560 -0.390422

loop_
_geom_bond_atom_site_label_1
_geom_bond_atom_site_label_2
_geom_bond_distance
_ccdc_geom_bond_type
C5    H2    1.108867 S    
C25   H14   1.111515 S    
C11   C12   1.530370 S    
O6    C3    1.299506 A    
C13   C14   1.394024 A    
C26   S1    1.789861 S    
C1    C14   1.449834 S    
C26   H15   1.105179 S    
C13   C18   1.371088 A    
C15   C16   1.404476 A    
Cu2   N1    2.031441 S    
Cu2   O8    1.959190 S    
C21   C26   1.505747 S    
N1    C22   1.370630 A    
C2    C12   1.456470 S    
C16   H7    1.081466 S    
N4    O14   1.301726 A    
C19   H8    1.108344 S    
O2    C1    1.296921 A    
C3    C17   1.444477 S    
C23   H13   1.079227 S    
C9    C10   1.545561 S    
Cu1   N2    2.030838 S    
Cu1   O7    1.964223 S    
C15   N4    1.436887 S    
S1    O11   1.501025 D    
C25   N3    1.459400 S    
C19   C20   1.518922 S    
O3    Cu1   1.959190 S    
O1    Cu1   1.958162 S    
O4    C2    1.294920 A    
Cu2   O6    1.958162 S    
N2    C24   1.367005 A    
C9    H4    1.110221 S    
O8    C4    1.292118 A    
C14   C15   1.421296 A    
C6    C11   1.545004 S    
C23   N2    1.372499 A    
C10   H5    1.105426 S    
C6    C7    1.532981 S    
C20   H11   1.112429 S    
C5    C8    1.546774 S    
O7    C4    1.299726 A    
N3    O10   1.301964 A    
S1    O12   1.503691 D    
O4    Cu2   1.964224 S    
C6    H1    1.109917 S    
C21   N1    1.365417 A    
C21   C24   1.405490 A    
C20   H10   1.111814 S    
Cu1   O5    1.956510 S    
Cu1   Cu2   2.703391 S    
C7    C10   1.536793 S    
C8    C9    1.546149 S    
O3    C2    1.293646 A    
C17   C18   1.389922 A    
C8    H3    1.110215 S    
C9    C12   1.530377 S    
C13   C20   1.494234 S    
N3    O9    1.300430 A    
C24   C25   1.496408 S    
O5    C3    1.295568 A    
C10   C11   1.544083 S    
C5    C12   1.530588 S    
S1    O13   1.682053 S    
N4    O15   1.301045 A    
C25   C26   1.522831 S    
C11   H6    1.109025 S    
C4    C7    1.463703 S    
C19   H9    1.112365 S    
C5    C6    1.546099 S    
O2    Cu2   1.956512 S    
C22   H12   1.080003 S    
C7    C8    1.532596 S    
C22   C23   1.423231 A    
O13   H16   0.989986 S    
O1    C1    1.299893 A    
C18   C19   1.490481 S    
C16   C17   1.403229 A    
