data_mof_unit_50377.cif
_audit_creation_date              2012-12-10T17:04:01-0500
_audit_creation_method            fapswitch 2.2
_symmetry_space_group_name_H-M    P1
_symmetry_Int_Tables_number       1
_space_group_crystal_system       triclinic
_cell_length_a                    19.330758
_cell_length_b                    18.365463
_cell_length_c                    18.730108
_cell_angle_alpha                 108.800971
_cell_angle_beta                  110.526727
_cell_angle_gamma                 110.455206
_cell_volume                      5029.36995784

loop_
_atom_site_label
_atom_site_type_symbol
_atom_type_description
_atom_site_fract_x
_atom_site_fract_y
_atom_site_fract_z
_atom_type_partial_charge
C1    C     C_R   0.003227 0.122970 0.620601 0.895796
C2    C     C_R   0.205815 0.162489 0.433758 -0.081305
C3    C     C_R   0.340097 0.306466 0.520928 -0.166782
C4    C     C_R   0.328167 0.329914 0.594248 -0.044260
C5    C     C_R   0.248103 0.272437 0.580841 0.094603
C6    C     C_R   0.187197 0.189650 0.500557 -0.101207
C7    C     C_R   0.394459 0.405631 0.681430 -0.037668
C8    C     C_R   0.374669 0.427972 0.748974 0.033729
C9    C     C_R   0.291213 0.375935 0.729603 -0.284815
C10   C     C_R   0.230151 0.297931 0.648440 -0.129722
C11   C     C_R   0.951478 0.079008 0.733859 -0.192424
C12   C     C_R   0.119765 0.120791 0.499486 0.853459
C13   C     C_R   0.908182 0.047873 0.772616 -0.194556
C14   C     C_R   0.872730 0.092710 0.806294 -0.264462
C15   C     C_R   0.885901 0.174145 0.808137 0.518892
C16   C     C_R   0.942766 0.214038 0.781207 -0.010359
C17   C     C_R   0.966931 0.160787 0.734911 0.013445
C18   C     C_R   0.001285 0.187915 0.686504 -0.123110
C19   C     C_R   0.015704 0.268973 0.686764 -0.096834
C20   C     C_R   0.001685 0.326955 0.741214 -0.089713
C21   C     C_R   0.974613 0.303691 0.795557 -0.137329
C22   C     C_R   0.840465 0.686927 0.419275 0.272050
C23   C     C_R   0.002683 0.883810 0.379523 0.920481
C24   C     C_R   0.799963 0.592707 0.366424 0.243396
C25   C     C_R   0.752801 0.537014 0.388348 0.294074
C26   C     C_R   0.743901 0.575654 0.459913 0.326387
C27   C     C_R   0.751102 0.660990 0.484025 -0.142572
C28   C     C_R   0.805221 0.720241 0.468288 -0.139297
C29   C     C_R   0.818774 0.808242 0.499572 -0.015075
C30   C     C_R   0.777738 0.835281 0.541091 -0.276295
C31   C     C_R   0.719723 0.775069 0.549863 -0.171844
C32   C     C_R   0.703762 0.687556 0.519219 -0.025145
C33   C     C_R   0.167797 0.918463 0.395562 -0.262525
C34   C     C_R   0.880879 0.876519 0.497554 0.968070
C35   C     C_R   0.247140 0.929993 0.407530 0.011379
C36   C     C_R   0.247815 0.861853 0.347417 -0.039499
C37   C     C_R   0.170294 0.783472 0.276518 -0.164357
C38   C     C_R   0.089538 0.771357 0.262817 0.109291
C39   C     C_R   0.088561 0.838705 0.324554 0.121050
C40   C     C_R   0.007832 0.824983 0.312491 -0.102441
C41   C     C_R   0.930134 0.751400 0.237350 -0.170827
C42   C     C_R   0.930915 0.686065 0.176491 -0.215080
C43   C     C_R   0.009289 0.693855 0.189767 -0.099223
C44   C     C_R   0.622977 0.504318 0.621197 0.902730
C45   C     C_R   0.145459 0.080447 0.353431 -0.345535
C46   C     C_R   0.389874 0.378257 0.508297 0.865830
C47   C     C_R   0.377078 0.495745 0.379308 0.938932
C48   C     C_R   0.627367 0.620858 0.508819 0.926775
C49   C     C_R   0.880477 0.496557 0.874700 0.943793
C50   C     C_R   0.992655 0.376994 0.874319 0.928697
C51   C     C_R   0.120003 0.498987 0.119814 0.886773
C52   C     C_R   0.004201 0.622246 0.122929 0.877302
C53   C     C_R   0.802634 0.665030 0.741297 -0.114409
C54   C     C_R   0.886969 0.716579 0.758332 0.035406
C55   C     C_R   0.946381 0.689899 0.784583 -0.210052
C56   C     C_R   0.170431 0.043077 0.297444 0.473717
C57   C     C_R   0.925152 0.617229 0.798372 -0.164831
C58   C     C_R   0.841363 0.564602 0.781053 0.052122
C59   C     C_R   0.777101 0.580721 0.738851 -0.017053
C60   C     C_R   0.690123 0.508317 0.690035 -0.152197
C61   C     C_R   0.668222 0.429946 0.694577 -0.280077
C62   C     C_R   0.730486 0.422939 0.751412 0.492412
C63   C     C_R   0.817544 0.493573 0.800276 -0.244360
C64   C     C_R   0.215670 0.328104 0.240713 -0.137218
C65   C     C_R   0.142121 0.246945 0.168661 -0.130779
C66   C     C_R   0.085627 0.246387 0.097479 -0.142746
C67   C     C_R   0.259240 0.082388 0.327184 -0.216664
C68   C     C_R   0.100567 0.327327 0.099752 -0.142340
C69   C     C_R   0.172688 0.411119 0.174403 0.102277
C70   C     C_R   0.233455 0.410662 0.242817 0.025939
C71   C     C_R   0.310933 0.492801 0.310963 -0.259170
C72   C     C_R   0.329671 0.573566 0.311677 0.495301
C73   C     C_R   0.264535 0.577073 0.253083 -0.124999
C74   C     C_R   0.186368 0.495395 0.182875 -0.259541
C75   C     C_R   0.319184 0.172760 0.400696 0.368406
C76   C     C_R   0.288569 0.215306 0.450112 0.017150
H1    H     H_    0.274816 0.391997 0.780044 0.131645
H2    H     H_    0.971069 0.036818 0.702254 0.183535
H3    H     H_    0.896362 0.984800 0.770423 0.191933
H4    H     H_    0.830672 0.060056 0.825895 0.153508
H5    H     H_    0.789591 0.903191 0.565400 0.158297
H6    H     H_    0.078899 0.041981 0.334992 0.190147
H7    H     H_    0.684482 0.795987 0.577174 0.193592
H8    H     H_    0.868556 0.743287 0.227122 0.156409
H9    H     H_    0.169017 0.973826 0.440817 0.151311
H10   H     H_    0.308451 0.869832 0.354509 0.198646
H11   H     H_    0.174811 0.733089 0.232931 0.153010
H12   H     H_    0.870019 0.629177 0.118310 0.166468
H13   H     H_    0.601980 0.373379 0.653656 0.167633
H14   H     H_    0.010353 0.726043 0.795440 0.190406
H15   H     H_    0.973524 0.599177 0.815057 0.213465
H16   H     H_    0.258266 0.325243 0.294192 0.143695
H17   H     H_    0.129798 0.184234 0.167492 0.131980
H18   H     H_    0.029792 0.183063 0.040386 0.137895
H19   H     H_    0.055816 0.322712 0.041730 0.143752
H20   H     H_    0.168858 0.256454 0.639725 0.136649
O1    O     O_R   0.051710 0.091600 0.643330 -0.648960
O2    O     O_R   0.591640 0.448340 0.539940 -0.623700
O3    O     O_R   0.408370 0.460150 0.551730 -0.616036
O4    O     O_R   0.408410 0.356720 0.448320 -0.625990
O5    O     O_R   0.408360 0.551760 0.460120 -0.563533
O6    O     O_R   0.408400 0.448330 0.356700 -0.657392
O7    O     O_R   0.591600 0.643380 0.551740 -0.598153
O8    O     O_R   0.591640 0.539950 0.448320 -0.606445
O9    O     O_R   0.960070 0.551730 0.908390 -0.616004
O10   O     O_R   0.856640 0.448280 0.908400 -0.588846
O11   O     O_R   0.051720 0.460120 0.908370 -0.603969
O12   O     O_R   0.948270 0.091620 0.539910 -0.554725
O13   O     O_R   0.948290 0.356670 0.908380 -0.624212
O14   O     O_R   0.143340 0.551720 0.091580 -0.655128
O15   O     O_R   0.039910 0.448270 0.091590 -0.626920
O16   O     O_R   0.051690 0.643330 0.091600 -0.620637
O17   O     O_R   0.948270 0.539880 0.091610 -0.624652
O18   O     O_R   0.143340 0.091610 0.551710 -0.636059
O19   O     O_R   0.039890 0.091630 0.448290 -0.596117
O20   O     O_R   0.051730 0.908380 0.460090 -0.633116
O21   O     O_R   0.948290 0.908400 0.356670 -0.628029
O22   O     O_R   0.960110 0.908370 0.551710 -0.620180
O23   O     O_R   0.856660 0.908390 0.448290 -0.631997
O24   O     O_R   0.591600 0.551770 0.643360 -0.616620
Zn1   Zn    Zn3+2 0.069070 0.999990 0.569050 0.946244
Zn2   Zn    Zn3+2 0.930930 0.000010 0.430950 1.014619
Zn3   Zn    Zn3+2 0.499980 0.569110 0.569080 1.053303
Zn4   Zn    Zn3+2 0.500030 0.430990 0.430980 0.914831
Zn5   Zn    Zn3+2 0.069050 0.569070 0.999980 0.968101
Zn6   Zn    Zn3+2 0.930930 0.430930 0.000000 0.945272
O25   O     O_3   0.827835 0.201380 0.812040 -0.657409
C77   C     C_3   0.808974 0.197415 0.877936 0.104223
H21   H     H_    0.815616 0.262526 0.915996 0.180683
H22   H     H_    0.854942 0.190664 0.927700 0.106990
C78   C     C_3   0.714920 0.122847 0.834490 -0.381228
H23   H     H_    0.670847 0.138010 0.793628 0.235767
H24   H     H_    0.702994 0.056945 0.790083 0.232282
C79   C     C_3   0.693417 0.115474 0.903773 -0.926845
H25   H     H_    0.735290 0.098120 0.944107 0.263508
H26   H     H_    0.624739 0.061649 0.870397 0.276590
H27   H     H_    0.703047 0.180203 0.947846 0.259850
C80   C     C_2   0.008530 0.408321 0.735545 0.431610
H28   H     H_    0.053468 0.443375 0.719563 0.044661
O26   O     O_2   0.961429 0.435275 0.745897 -0.624734
O27   O     O_3   0.911338 0.744218 0.421132 -0.631573
C81   C     C_3   0.981056 0.730514 0.456423 0.156087
H29   H     H_    0.025582 0.755046 0.433854 0.165009
H30   H     H_    0.960803 0.658425 0.431568 0.167197
C82   C     C_3   0.032043 0.782340 0.557985 -0.355700
H31   H     H_    0.065126 0.855904 0.583238 0.261110
H32   H     H_    0.987345 0.765097 0.582404 0.225756
C83   C     C_3   0.100491 0.759782 0.594975 -0.963518
H33   H     H_    0.069376 0.686907 0.573350 0.267766
H34   H     H_    0.137130 0.799342 0.668369 0.279377
H35   H     H_    0.146539 0.776961 0.572082 0.273843
O28   O     O_3   0.814750 0.555487 0.300628 -0.603553
C84   C     C_3   0.758874 0.549421 0.223276 0.130001
H36   H     H_    0.783324 0.617191 0.230063 0.151918
H37   H     H_    0.691427 0.522300 0.209734 0.101005
C85   C     C_3   0.756043 0.485725 0.144533 -0.354783
H38   H     H_    0.822293 0.511917 0.155595 0.242885
H39   H     H_    0.732815 0.418346 0.138762 0.230236
C86   C     C_3   0.695680 0.475420 0.058354 -0.905688
H40   H     H_    0.628075 0.443727 0.043569 0.268784
H41   H     H_    0.697887 0.431781 0.003177 0.279698
H42   H     H_    0.715753 0.542114 0.063048 0.268074
O29   O     O_3   0.717053 0.445045 0.341298 -0.607725
C87   C     C_3   0.629950 0.404328 0.273617 0.145251
H43   H     H_    0.622410 0.364721 0.209433 0.154003
H44   H     H_    0.609178 0.452772 0.266966 0.097722
C88   C     C_3   0.569267 0.340421 0.288987 -0.368486
H45   H     H_    0.584813 0.287445 0.287276 0.212838
H46   H     H_    0.579368 0.377941 0.355073 0.261947
C89   C     C_3   0.474610 0.296768 0.218641 -0.953277
H47   H     H_    0.432122 0.249859 0.230740 0.246032
H48   H     H_    0.462589 0.258120 0.151785 0.266796
H49   H     H_    0.457723 0.349137 0.221186 0.273238
O30   O     O_3   0.722540 0.528506 0.501217 -0.611834
C90   C     C_3   0.786410 0.508550 0.537960 0.140966
H50   H     H_    0.820598 0.549617 0.610613 0.159837
H51   H     H_    0.837374 0.524984 0.520630 0.124671
C91   C     C_3   0.742963 0.408840 0.510541 -0.364494
H52   H     H_    0.689755 0.390641 0.523932 0.233699
H53   H     H_    0.715305 0.366782 0.438704 0.249190
C92   C     C_3   0.806944 0.387952 0.561199 -0.899472
H54   H     H_    0.863676 0.409531 0.553126 0.279443
H55   H     H_    0.774806 0.314310 0.535715 0.268661
H56   H     H_    0.828959 0.423223 0.632342 0.292627
C93   C     C_2   0.328507 0.014386 0.482353 0.373186
H57   H     H_    0.326208 0.067442 0.526862 0.082451
O31   O     O_2   0.398904 0.025946 0.495101 -0.580042
C94   C     C_2   0.751408 0.707960 0.750951 0.391986
H58   H     H_    0.712331 0.689476 0.779027 0.135317
O32   O     O_2   0.753318 0.765221 0.730886 -0.618951
C95   C     C_2   0.914343 0.796320 0.746941 0.397750
H59   H     H_    0.867326 0.804681 0.703590 0.135680
O33   O     O_2   0.990926 0.853034 0.784359 -0.588876
O34   O     O_3   0.109924 0.957811 0.224089 -0.604815
C96   C     C_3   0.080174 0.964554 0.147209 0.184014
H60   H     H_    0.060624 0.901009 0.090961 0.194209
H61   H     H_    0.131299 0.020426 0.150172 0.126955
C97   C     C_3   0.001043 0.974243 0.128303 -0.438363
H62   H     H_    0.951868 0.919766 0.128143 0.249433
H63   H     H_    0.020603 0.040277 0.181020 0.220532
C98   C     C_3   0.960774 0.968622 0.039044 -0.907251
H64   H     H_    0.008833 0.022391 0.037560 0.258751
H65   H     H_    0.904722 0.977562 0.027992 0.269547
H66   H     H_    0.937699 0.901788 0.984725 0.276744
O35   O     O_3   0.703983 0.347284 0.759759 -0.632515
C99   C     C_3   0.725180 0.288509 0.714937 0.129902
H67   H     H_    0.722475 0.241798 0.740667 0.215519
H68   H     H_    0.792245 0.324289 0.728469 0.151006
C100  C     C_3   0.659382 0.232112 0.615113 -0.422803
H69   H     H_    0.592794 0.198318 0.602746 0.269908
H70   H     H_    0.664070 0.276752 0.586581 0.213762
C101  C     C_3   0.676298 0.160912 0.569120 -0.869123
H71   H     H_    0.742863 0.193339 0.581229 0.269207
H72   H     H_    0.629253 0.122623 0.496765 0.265226
H73   H     H_    0.668718 0.113048 0.594034 0.280035
O36   O     O_3   0.411311 0.650391 0.374633 -0.592480
C102  C     C_3   0.458446 0.674780 0.334271 0.099615
H74   H     H_    0.516621 0.743027 0.384684 0.187157
H75   H     H_    0.421776 0.680607 0.277681 0.119388
C103  C     C_3   0.488164 0.609434 0.304343 -0.412447
H76   H     H_    0.515717 0.596136 0.357670 0.247180
H77   H     H_    0.431834 0.544412 0.244918 0.211928
C104  C     C_3   0.556692 0.647802 0.282582 -0.931967
H78   H     H_    0.530431 0.661099 0.228367 0.267022
H79   H     H_    0.576269 0.598567 0.261122 0.255448
H80   H     H_    0.614957 0.711434 0.341898 0.274951
C105  C     C_2   0.279586 0.667604 0.270502 0.378441
H81   H     H_    0.265247 0.683393 0.218247 0.075045
O37   O     O_2   0.312325 0.727447 0.345940 -0.541629
C106  C     C_2   0.288985 0.023412 0.290783 0.430247
H82   H     H_    0.348410 0.030675 0.334203 0.111243
O38   O     O_2   0.247128 0.965311 0.212802 -0.568903
O39   O     O_3   0.408766 0.211692 0.438878 -0.632352
C107  C     C_3   0.436674 0.209721 0.377669 0.123782
H83   H     H_    0.471376 0.279036 0.390265 0.180981
H84   H     H_    0.383520 0.170313 0.307138 0.112441
C108  C     C_3   0.502288 0.178782 0.393519 -0.399221
H85   H     H_    0.568844 0.238904 0.437911 0.200128
H86   H     H_    0.494045 0.139613 0.427508 0.265623
C109  C     C_3   0.494327 0.121118 0.307937 -0.936214
H87   H     H_    0.433106 0.054658 0.267158 0.281978
H88   H     H_    0.549238 0.109722 0.323921 0.268526
H89   H     H_    0.495192 0.154781 0.268499 0.265069
C110  C     C_2   0.485138 0.453787 0.703963 0.551033
H90   H     H_    0.508851 0.416665 0.672712 -0.000357
O40   O     O_2   0.532553 0.535155 0.754309 -0.531406
C111  C     C_2   0.439224 0.500215 0.842665 0.454644
H91   H     H_    0.419475 0.537227 0.880846 0.035617
O41   O     O_2   0.512567 0.514750 0.879982 -0.537421
C112  C     C_2   0.047990 0.295769 0.632520 0.322912
H92   H     H_    0.107831 0.359309 0.664754 0.049981
O42   O     O_2   0.006412 0.250005 0.551981 -0.523778

loop_
_geom_bond_atom_site_label_1
_geom_bond_atom_site_label_2
_ccdc_geom_bond_type
C34   O22   A    
C66   C68   A    
C46   O3    A    
C13   H3    S    
O29   C87   S    
C16   C21   A    
C49   C63   S    
C98   H65   S    
C73   C74   A    
C19   C20   A    
C85   C86   S    
C83   H35   S    
O21   Zn2   S    
C78   C79   S    
O7    Zn3   S    
C77   H21   S    
C79   H27   S    
C103  H77   S    
C82   H31   S    
C53   C59   A    
C104  H80   S    
C7    C8    A    
C90   H51   S    
O35   C99   S    
C102  C103  S    
O2    Zn4   S    
C3    C46   S    
C28   C29   A    
C1    C18   S    
C33   C39   A    
C47   O5    A    
C5    C6    A    
C87   H43   S    
C37   C38   A    
C83   H34   S    
C55   H14   S    
C86   H40   S    
C6    C12   S    
C30   C31   A    
C99   H68   S    
C43   C52   S    
C93   O31   D    
C11   C13   A    
C89   H47   S    
C26   O30   S    
C112  O42   D    
C15   C16   A    
C48   O8    A    
C58   C63   A    
C100  C101  S    
C31   H7    S    
C110  H90   S    
C22   O27   S    
C94   O32   D    
C18   C19   A    
C41   C42   A    
C20   C80   S    
C44   O24   A    
C33   H9    S    
O30   C90   S    
C21   C50   S    
O1    Zn1   S    
C24   O28   S    
C33   C35   A    
C23   O20   A    
O18   Zn1   S    
C44   O2    A    
C62   C63   A    
C45   H6    S    
C67   C106  S    
C16   C17   A    
C7    C110  S    
O36   C102  S    
C51   C74   S    
O25   C77   S    
C70   C71   A    
C14   H4    S    
C84   H37   S    
O39   C107  S    
C25   O29   S    
C62   O35   S    
C61   C62   A    
O24   Zn3   S    
C66   H18   S    
C96   C97   S    
C65   H17   S    
O34   C96   S    
C59   C60   A    
C84   H36   S    
O19   Zn2   S    
C15   O25   S    
C13   C14   A    
C87   H44   S    
C32   C48   S    
C81   C82   S    
C2    C6    A    
C107  H84   S    
C97   C98   S    
C4    C7    A    
O6    Zn4   S    
C87   C88   S    
C5    C10   A    
C103  H76   S    
C82   H32   S    
C61   H13   S    
C91   H52   S    
C88   C89   S    
C12   O18   A    
C111  O41   D    
C2    C45   A    
C97   H63   S    
C100  H69   S    
C68   H19   S    
O20   Zn1   S    
C95   H59   S    
C24   C25   A    
C45   C56   A    
C104  H78   S    
C88   H46   S    
C54   C95   S    
C92   H55   S    
C1    O1    A    
C88   H45   S    
C73   C105  S    
C99   H67   S    
C68   C69   A    
C49   O9    A    
O17   Zn6   S    
O14   Zn5   S    
C90   C91   S    
C25   C26   A    
C92   H54   S    
C41   H8    S    
C29   C34   S    
C109  H89   S    
C94   H58   S    
O4    Zn4   S    
C107  C108  S    
C85   H38   S    
C75   C76   A    
C95   O33   D    
C79   H26   S    
C29   C30   A    
C11   H2    S    
C105  H81   S    
C101  H73   S    
C10   H20   S    
C35   C93   S    
C47   C71   S    
C20   C21   A    
O15   Zn6   S    
C109  H88   S    
C17   C18   A    
C8    C9    A    
C86   H42   S    
C69   C74   A    
C9    H1    S    
C83   H33   S    
C84   C85   S    
C106  O38   D    
C3    C76   A    
O11   Zn5   S    
O16   Zn5   S    
C97   H62   S    
C80   O26   D    
O5    Zn3   S    
C56   O34   S    
C40   C41   A    
C105  O37   D    
C101  H72   S    
C51   O14   A    
C64   C70   A    
C55   C57   A    
C26   C27   A    
C50   O11   A    
C98   H66   S    
C81   H30   S    
C42   H12   S    
C107  H83   S    
C64   H16   S    
C3    C4    A    
C77   C78   S    
C39   C40   A    
C82   C83   S    
C2    C76   A    
O28   C84   S    
O3    Zn3   S    
C9    C10   A    
C92   H56   S    
C34   O23   A    
C8    C111  S    
C46   O4    A    
C54   C55   A    
C11   C17   A    
C51   O15   A    
C57   H15   S    
C72   O36   S    
C27   C32   A    
C81   H29   S    
O23   Zn2   S    
C37   H11   S    
C31   C32   A    
O12   Zn2   S    
C72   C73   A    
C78   H24   S    
C77   H22   S    
C23   O21   A    
C91   H53   S    
C111  H91   S    
C104  H79   S    
C19   C112  S    
C53   C54   A    
C49   O10   A    
O8    Zn4   S    
C102  H75   S    
C56   C67   A    
O10   Zn6   S    
C79   H25   S    
C98   H64   S    
O9    Zn5   S    
C36   H10   S    
C64   C65   A    
C12   O19   A    
C30   H5    S    
C108  H86   S    
C86   H41   S    
C58   C59   A    
C106  H82   S    
C90   H50   S    
C78   H23   S    
C53   C94   S    
C48   O7    A    
C99   C100  S    
C93   H57   S    
C38   C39   A    
C89   H48   S    
C44   C60   S    
C52   O17   A    
C4    C5    A    
C102  H74   S    
C85   H39   S    
C109  H87   S    
C100  H70   S    
C110  O40   D    
C75   O39   S    
C22   C24   A    
C50   O13   A    
C69   C70   A    
C108  H85   S    
C112  H92   S    
C91   C92   S    
C80   H28   S    
C1    O12   A    
C96   H60   S    
O13   Zn6   S    
C38   C43   A    
C67   C75   A    
C101  H71   S    
C36   C37   A    
C65   C66   A    
C42   C43   A    
C108  C109  S    
C27   C28   A    
C47   O6    A    
C52   O16   A    
C14   C15   A    
C60   C61   A    
C22   C28   A    
C35   C36   A    
C71   C72   A    
C57   C58   A    
O27   C81   S    
O22   Zn1   S    
C103  C104  S    
C23   C40   S    
C96   H61   S    
C89   H49   S    
