data_mof_unit_34766.cif
_audit_creation_date              2012-12-10T19:05:16-0500
_audit_creation_method            fapswitch 2.2
_symmetry_space_group_name_H-M    P1
_symmetry_Int_Tables_number       1
_space_group_crystal_system       triclinic
_cell_length_a                    9.531303
_cell_length_b                    10.852959
_cell_length_c                    17.393159
_cell_angle_alpha                 90.426644
_cell_angle_beta                  86.679391
_cell_angle_gamma                 90.960703
_cell_volume                      1795.88673071

loop_
_atom_site_label
_atom_site_type_symbol
_atom_type_description
_atom_site_fract_x
_atom_site_fract_y
_atom_site_fract_z
_atom_type_partial_charge
C1    C     C_R   0.501186 0.737780 0.503048 0.800305
C2    C     C_R   0.353287 0.540247 0.774283 -0.242747
C3    C     C_R   0.396551 0.512073 0.149543 -0.156432
C4    C     C_R   0.399520 0.525224 0.228726 -0.199936
C5    C     C_R   0.639706 0.453309 0.223437 -0.199091
C6    C     C_R   0.636000 0.438461 0.144017 -0.134465
C7    C     C_R   0.514806 0.468522 0.106930 0.151733
C8    C     C_2   0.456422 0.538724 0.979962 -0.148312
C9    C     C_2   0.513711 0.454019 0.023551 -0.157384
C10   C     C_R   0.520801 0.495280 0.266300 -0.025616
C11   C     C_R   0.376595 0.933721 0.511762 0.122426
C12   C     C_R   0.482852 0.497892 0.649970 0.823623
C13   C     C_R   0.503130 0.871160 0.513138 -0.158001
C14   C     C_R   0.626913 0.940694 0.527128 -0.040744
C15   C     C_R   0.622907 0.069361 0.525960 -0.250852
C16   C     C_R   0.497731 0.129707 0.511729 -0.116052
C17   C     C_R   0.373321 0.060340 0.511682 0.138615
C18   C     C_3   0.256092 0.060850 0.458325 -0.486448
C19   C     C_3   0.260493 0.921228 0.458162 -0.433543
C20   C     C_R   0.932676 0.468506 0.435040 0.265518
C21   C     C_R   0.919943 0.544063 0.561279 -0.016566
C22   C     C_R   0.068746 0.543803 0.561383 -0.054294
C23   C     C_R   0.498934 0.262322 0.501985 0.811387
C24   C     C_R   0.080205 0.470156 0.434698 0.250878
C25   C     C_3   0.090075 0.351748 0.391404 -0.507447
C26   C     C_3   0.930748 0.348062 0.393259 -0.495558
C27   C     C_R   0.517056 0.499957 0.350258 0.788429
C28   C     C_R   0.476971 0.501101 0.734679 -0.133037
C29   C     C_R   0.595616 0.472582 0.776324 -0.133619
C30   C     C_R   0.592472 0.494724 0.856267 0.387778
C31   C     C_R   0.464856 0.528111 0.895464 0.069271
C32   C     C_R   0.345758 0.551952 0.854114 -0.056019
Cu1   Cu    Cu3+1 0.359330 0.500020 0.500000 0.949380
Cu2   Cu    Cu3+1 0.640670 0.499980 0.500000 0.966478
H1    H     H_    0.727922 0.404717 0.111375 0.146053
H2    H     H_    0.719328 0.121827 0.532778 0.172567
H3    H     H_    0.157470 0.095958 0.487153 0.205332
H4    H     H_    0.287646 0.102015 0.401424 0.196050
H5    H     H_    0.164703 0.877330 0.486198 0.221957
H6    H     H_    0.295766 0.881285 0.401356 0.195074
H7    H     H_    0.859901 0.578774 0.611177 0.155356
H8    H     H_    0.119260 0.577978 0.611507 0.142939
H9    H     H_    0.140217 0.363846 0.332575 0.197226
H10   H     H_    0.306130 0.557622 0.260607 0.150102
H11   H     H_    0.134727 0.278374 0.425619 0.216432
H12   H     H_    0.889732 0.355647 0.335189 0.188527
H13   H     H_    0.883078 0.272174 0.429143 0.214528
H14   H     H_    0.733768 0.429322 0.251267 0.138847
H15   H     H_    0.567798 0.375582 0.997311 0.190038
H16   H     H_    0.301057 0.533556 0.121924 0.136825
H17   H     H_    0.261875 0.562056 0.742932 0.167207
H18   H     H_    0.401419 0.616530 0.006395 0.144758
N1    N     N_R   0.852130 0.499070 0.499500 -0.194567
N2    N     N_R   0.148040 0.499110 0.499500 -0.193100
O1    O     O_R   0.381190 0.680360 0.500000 -0.578775
O2    O     O_R   0.618770 0.680320 0.499990 -0.572582
O3    O     O_R   0.367430 0.500040 0.613600 -0.592773
O4    O     O_R   0.605020 0.500000 0.613590 -0.583784
O5    O     O_R   0.381230 0.319680 0.500010 -0.577584
O6    O     O_R   0.618810 0.319640 0.500000 -0.584532
O7    O     O_R   0.394980 0.500000 0.386410 -0.590383
O8    O     O_R   0.632570 0.499960 0.386400 -0.584491
C33   C     C_1   0.716646 0.412415 0.739322 0.249949
N3    N     N_1   0.813160 0.363835 0.710142 -0.286862
C34   C     C_1   0.760678 0.885452 0.539338 0.286331
N4    N     N_1   0.868203 0.842014 0.549144 -0.320330
C35   C     C_1   0.213958 0.587694 0.892500 0.232753
N5    N     N_1   0.108385 0.616222 0.923208 -0.270847
O9    O     O_3   0.711757 0.486396 0.897800 -0.735417
H19   H     H_    0.797200 0.486743 0.862676 0.337519

loop_
_geom_bond_atom_site_label_1
_geom_bond_atom_site_label_2
_ccdc_geom_bond_type
C10   C27   S    
Cu1   O1    S    
Cu2   O6    S    
C29   C33   S    
Cu2   O2    S    
C29   C30   A    
C27   O8    A    
C21   N1    A    
C2    C28   A    
C14   C34   S    
C31   C32   A    
C30   C31   A    
C12   O4    A    
C25   H9    S    
Cu1   Cu2   S    
C18   H4    S    
C5    C10   A    
C22   N2    A    
Cu2   O4    S    
C22   H8    S    
C13   C14   A    
C6    H1    S    
C23   O5    A    
C11   C13   A    
C11   C19   S    
C6    C7    A    
C19   H5    S    
C26   H13   S    
C12   C28   S    
C32   C35   S    
C21   H7    S    
C5    C6    A    
Cu1   O7    S    
C28   C29   A    
C25   C26   S    
C3    H16   S    
C17   C18   S    
C16   C23   S    
C3    C7    A    
O9    H19   S    
C1    O1    A    
C23   O6    A    
C20   C24   A    
C5    H14   S    
C1    C13   S    
C2    H17   S    
C12   O3    A    
C24   N2    A    
C35   N5    T    
C16   C17   A    
C25   H11   S    
C15   H2    S    
Cu2   O8    S    
C30   O9    S    
C9    H15   S    
C24   C25   S    
Cu2   N1    S    
C2    C32   A    
C34   N4    T    
C19   H6    S    
Cu1   N2    S    
C7    C9    S    
C18   C19   S    
C26   H12   S    
C14   C15   A    
C8    C9    D    
Cu1   O3    S    
C4    H10   S    
Cu1   O5    S    
C21   C22   A    
C8    C31   S    
C4    C10   A    
C1    O2    A    
C15   C16   A    
C11   C17   A    
C3    C4    A    
C33   N3    T    
C8    H18   S    
C18   H3    S    
C20   N1    A    
C20   C26   S    
C27   O7    A    
