data_mof_unit_23400.cif
_audit_creation_date              2012-12-10T19:03:41-0500
_audit_creation_method            fapswitch 2.2
_symmetry_space_group_name_H-M    P1
_symmetry_Int_Tables_number       1
_space_group_crystal_system       triclinic
_cell_length_a                    15.873597
_cell_length_b                    10.809645
_cell_length_c                    9.553706
_cell_angle_alpha                 89.943488
_cell_angle_beta                  89.765309
_cell_angle_gamma                 90.038416
_cell_volume                      1639.28588995

loop_
_atom_site_label
_atom_site_type_symbol
_atom_type_description
_atom_site_fract_x
_atom_site_fract_y
_atom_site_fract_z
_atom_type_partial_charge
C1    C     C_R   0.501648 0.262321 0.500007 0.797332
C2    C     C_3   0.950906 0.455824 0.637831 -0.370749
C3    C     C_3   0.917111 0.508568 0.496938 0.084183
C4    C     C_3   0.950657 0.645646 0.474262 -0.121931
C5    C     C_3   0.050500 0.644386 0.489212 0.309696
C6    C     C_1   0.824692 0.504465 0.498319 -0.038702
C7    C     C_1   0.175080 0.505024 0.499825 -0.017976
C8    C     C_1   0.250604 0.502528 0.500514 -0.178892
C9    C     C_R   0.510834 0.063400 0.625550 0.152779
C10   C     C_R   0.510378 0.129210 0.499805 -0.100141
C11   C     C_R   0.522245 0.064589 0.373562 -0.209897
C12   C     C_R   0.340238 0.500314 0.500268 0.816682
C13   C     C_R   0.522266 0.935650 0.373473 -0.218649
C14   C     C_R   0.510410 0.870705 0.499623 -0.094097
C15   C     C_R   0.510772 0.936133 0.625426 0.132823
C16   C     C_3   0.451730 0.929254 0.747367 -0.469375
C17   C     C_3   0.451949 0.069693 0.747729 -0.488311
C18   C     C_R   0.532824 0.597713 0.072375 0.227778
C19   C     C_R   0.460523 0.409340 0.074817 -0.038262
C20   C     C_R   0.460805 0.409074 0.926004 -0.055012
C21   C     C_R   0.530488 0.599385 0.925467 0.229286
C22   C     C_3   0.615905 0.655278 0.912650 -0.489113
C23   C     C_R   0.501701 0.737642 0.499879 0.794055
C24   C     C_3   0.621019 0.649292 0.071828 -0.281266
C25   C     C_R   0.659709 0.500091 0.499711 0.825656
C26   C     C_3   0.048163 0.449651 0.634911 -0.495331
C27   C     C_3   0.049255 0.432872 0.372230 -0.405338
C28   C     C_3   0.951457 0.423217 0.377285 0.332609
C29   C     C_1   0.749231 0.501948 0.499104 -0.155048
C30   C     C_3   0.082819 0.508402 0.498188 0.177283
Cu1   Cu    Cu3+1 0.500000 0.499980 0.640670 0.954293
Cu2   Cu    Cu3+1 0.500000 0.500020 0.359330 0.964686
H1    H     H_    0.925275 0.361447 0.657104 0.235245
H2    H     H_    0.073779 0.498521 0.728018 0.174488
H3    H     H_    0.929434 0.512335 0.728074 0.157069
H4    H     H_    0.527300 0.112910 0.274499 0.170005
H5    H     H_    0.527289 0.887601 0.274372 0.158051
H6    H     H_    0.389634 0.888612 0.719522 0.197243
H7    H     H_    0.481977 0.888542 0.841458 0.194248
H8    H     H_    0.389940 0.110855 0.720465 0.190154
H9    H     H_    0.482621 0.109581 0.841856 0.200657
H10   H     H_    0.429714 0.334820 0.130670 0.126699
H11   H     H_    0.068674 0.351378 0.642173 0.207598
H12   H     H_    0.430173 0.334441 0.870776 0.127854
H13   H     H_    0.661289 0.594703 0.856298 0.239377
H14   H     H_    0.613115 0.751518 0.871919 0.176054
H15   H     H_    0.624626 0.742115 0.121459 0.114095
H16   H     H_    0.069104 0.477589 0.272465 0.191215
H17   H     H_    0.077715 0.338749 0.373005 0.173575
H18   H     H_    0.925328 0.456713 0.275753 0.087534
H19   H     H_    0.068915 0.686282 0.591919 0.022624
N1    N     N_R   0.500530 0.500930 0.147930 -0.170776
N2    N     N_R   0.500530 0.500890 0.852020 -0.172690
O1    O     O_R   0.500000 0.319640 0.618810 -0.580837
O2    O     O_R   0.500010 0.319680 0.381230 -0.585449
O3    O     O_R   0.379430 0.499990 0.618840 -0.581948
O4    O     O_R   0.379440 0.500030 0.381260 -0.573564
O5    O     O_R   0.499990 0.680320 0.618770 -0.580544
O6    O     O_R   0.500000 0.680360 0.381190 -0.596285
O7    O     O_R   0.620560 0.499970 0.618740 -0.570901
O8    O     O_R   0.620570 0.500010 0.381160 -0.566755
C31   C     C_2   0.919947 0.692735 0.331184 0.405857
H20   H     H_    0.856498 0.729115 0.321334 0.093227
O9    O     O_2   0.962328 0.683537 0.224723 -0.545303
C32   C     C_2   0.688893 0.561873 0.120416 0.499095
H21   H     H_    0.739753 0.596856 0.184761 0.031339
O10   O     O_2   0.688622 0.452939 0.086339 -0.542890
O11   O     O_3   0.926894 0.298753 0.403489 -0.565758
C33   C     C_3   0.917776 0.232549 0.276981 0.032632
H22   H     H_    0.974719 0.241992 0.209248 0.131918
H23   H     H_    0.861536 0.266286 0.219165 0.171317
C34   C     C_3   0.905378 0.096065 0.310134 -0.705613
H24   H     H_    0.847856 0.083089 0.375112 0.266093
H25   H     H_    0.898450 0.042782 0.211525 0.199128
H26   H     H_    0.960709 0.060285 0.368157 0.243422
O12   O     O_3   0.092184 0.707142 0.377810 -0.529647
C35   C     C_3   0.103667 0.833567 0.410372 0.101155
H27   H     H_    0.152732 0.843746 0.492448 0.123661
H28   H     H_    0.043984 0.876801 0.447383 0.147914
C36   C     C_3   0.132818 0.902261 0.279936 -0.757561
H29   H     H_    0.084428 0.894638 0.196733 0.267156
H30   H     H_    0.142621 0.001556 0.304841 0.182797
H31   H     H_    0.193036 0.862455 0.241213 0.245952
C37   C     C_2   0.915562 0.731483 0.588027 0.229284
H32   H     H_    0.933523 0.717840 0.696331 0.098829
O13   O     O_2   0.868612 0.817801 0.561056 -0.559094

loop_
_geom_bond_atom_site_label_1
_geom_bond_atom_site_label_2
_ccdc_geom_bond_type
C2    H3    S    
C27   H16   S    
C23   O5    A    
C18   C21   A    
C19   C20   A    
C3    C6    S    
C18   N1    A    
C7    C8    T    
C35   H27   S    
C23   O6    A    
C18   C24   S    
Cu1   O5    S    
C3    C28   S    
C28   O11   S    
C37   O13   D    
Cu2   O8    S    
C34   H26   S    
C36   H29   S    
C15   C16   S    
C4    C31   S    
C33   H23   S    
Cu2   N1    S    
C31   O9    D    
O11   C33   S    
C28   H18   S    
C19   N1    A    
C26   H2    S    
C16   C17   S    
C32   O10   D    
C25   O7    A    
Cu1   O3    S    
C9    C10   A    
Cu2   O2    S    
C13   H5    S    
C19   H10   S    
C7    C30   S    
C13   C14   A    
C27   C30   S    
Cu2   O4    S    
C36   H31   S    
C20   H12   S    
C26   H11   S    
C35   H28   S    
C25   C29   S    
C37   H32   S    
O12   C35   S    
C34   H25   S    
C20   N2    A    
C17   H8    S    
C14   C23   S    
C33   C34   S    
C1    O1    A    
C31   H20   S    
Cu1   Cu2   S    
C4    C37   S    
C8    C12   S    
C22   H13   S    
C2    C26   S    
C25   O8    A    
Cu1   N2    S    
C12   O3    A    
C24   C32   S    
C12   O4    A    
C2    H1    S    
C36   H30   S    
C22   H14   S    
C26   C30   S    
C22   C24   S    
C3    C4    S    
C5    C30   S    
C35   C36   S    
C9    C17   S    
C11   H4    S    
C24   H15   S    
C1    C10   S    
C34   H24   S    
Cu2   O6    S    
C5    O12   S    
C2    C3    S    
C1    O2    A    
C21   N2    A    
C11   C13   A    
Cu1   O1    S    
C9    C15   A    
C33   H22   S    
C17   H9    S    
C10   C11   A    
C16   H7    S    
C4    C5    S    
C6    C29   T    
C32   H21   S    
C27   C28   S    
C14   C15   A    
C5    H19   S    
Cu1   O7    S    
C21   C22   S    
C27   H17   S    
C16   H6    S    
