data_mof_unit_13351.cif
_audit_creation_date              2012-12-10T16:57:16-0500
_audit_creation_method            fapswitch 2.2
_symmetry_space_group_name_H-M    P1
_symmetry_Int_Tables_number       1
_space_group_crystal_system       triclinic
_cell_length_a                    15.885919
_cell_length_b                    10.953015
_cell_length_c                    9.730152
_cell_angle_alpha                 90.906292
_cell_angle_beta                  90.524164
_cell_angle_gamma                 90.537076
_cell_volume                      1692.67454577

loop_
_atom_site_label
_atom_site_type_symbol
_atom_type_description
_atom_site_fract_x
_atom_site_fract_y
_atom_site_fract_z
_atom_type_partial_charge
C1    C     C_R   0.501442 0.265282 0.498764 0.855905
C2    C     C_3   0.951710 0.500605 0.650282 -0.538561
C3    C     C_3   0.916966 0.500521 0.500117 0.107200
C4    C     C_3   0.952356 0.617536 0.428565 0.110726
C5    C     C_3   0.050287 0.613687 0.425676 -0.545535
C6    C     C_1   0.824786 0.500104 0.500969 0.009558
C7    C     C_1   0.175227 0.499193 0.498705 -0.015712
C8    C     C_1   0.250732 0.499467 0.498593 -0.166546
C9    C     C_2   0.516774 0.929350 0.391312 -0.207148
C10   C     C_2   0.497142 0.866209 0.503554 -0.365174
C11   C     C_2   0.508800 0.062641 0.382963 0.287273
C12   C     C_R   0.340341 0.499797 0.499539 0.815866
C13   C     C_2   0.507526 0.132945 0.498208 -0.358316
C14   C     C_2   0.456933 0.423857 0.922145 -0.008469
C15   C     C_2   0.443419 0.442078 0.075302 0.356493
C16   C     C_R   0.500105 0.734423 0.500992 0.858991
C17   C     C_R   0.659667 0.500090 0.500440 0.814472
C18   C     C_3   0.050015 0.501346 0.650449 0.387506
C19   C     C_3   0.048486 0.384092 0.421075 -0.428517
C20   C     C_3   0.950929 0.379777 0.431171 0.337361
C21   C     C_1   0.749285 0.500051 0.501251 -0.166976
C22   C     C_3   0.083029 0.498878 0.499518 0.155954
Cu1   Cu    Cu3+1 0.500020 0.500020 0.638630 0.939155
Cu2   Cu    Cu3+1 0.499980 0.499980 0.361370 0.958148
H1    H     H_    0.927616 0.418863 0.704654 0.190134
H2    H     H_    0.072813 0.589071 0.698855 0.068302
H3    H     H_    0.928272 0.579844 0.710886 0.154569
H4    H     H_    0.928906 0.618931 0.321379 0.142403
H5    H     H_    0.536046 0.881371 0.298306 0.173771
H6    H     H_    0.475754 0.909210 0.597717 0.143852
H7    H     H_    0.514469 0.093546 0.598948 0.120090
H8    H     H_    0.427974 0.344917 0.871764 0.121236
H9    H     H_    0.557076 0.514888 0.111065 0.210613
H10   H     H_    0.069895 0.384303 0.312814 0.169263
H11   H     H_    0.075199 0.300140 0.466785 0.183519
H12   H     H_    0.938037 0.306667 0.506694 0.130265
H13   H     H_    0.078214 0.697223 0.475088 0.184280
H14   H     H_    0.071712 0.612884 0.317038 0.170534
N1    N     N_2   0.499090 0.498660 0.846910 -0.091770
N2    N     N_2   0.499070 0.498630 0.153040 -0.297371
O1    O     O_R   0.500010 0.321960 0.617040 -0.594769
O2    O     O_R   0.499990 0.321920 0.382900 -0.554189
O3    O     O_R   0.379450 0.500030 0.617120 -0.578030
O4    O     O_R   0.379420 0.499980 0.382980 -0.555744
O5    O     O_R   0.500010 0.678080 0.617100 -0.594182
O6    O     O_R   0.499990 0.678040 0.382960 -0.567305
O7    O     O_R   0.620580 0.500020 0.617020 -0.572614
O8    O     O_R   0.620550 0.499970 0.382880 -0.581563
N3    N     N_2   0.507158 0.115258 0.249923 -0.394951
H15   H     H_    0.562317 0.101299 0.197108 0.245323
C23   C     C_3   0.433776 0.082865 0.167533 -0.707404
H16   H     H_    0.434175 0.136193 0.071439 0.220057
H17   H     H_    0.375310 0.104215 0.224598 0.235042
H18   H     H_    0.434124 0.984114 0.139567 0.221202
N4    N     N_2   0.514289 0.612591 0.904969 -0.347529
H19   H     H_    0.471718 0.677075 0.873434 0.268390
C24   C     C_3   0.600947 0.653148 0.895464 -0.594006
H20   H     H_    0.611390 0.732643 0.965932 0.183385
H21   H     H_    0.615907 0.681679 0.789718 0.247075
H22   H     H_    0.644399 0.579249 0.926050 0.206785
N5    N     N_2   0.369719 0.392238 0.136634 -0.385452
H23   H     H_    0.380816 0.327919 0.210316 0.290766
C25   C     C_3   0.296252 0.367996 0.051166 -0.769725
H24   H     H_    0.240727 0.353593 0.117682 0.232504
H25   H     H_    0.305384 0.284130 0.987660 0.218551
H26   H     H_    0.283346 0.446960 0.984125 0.243431
O9    O     O_3   0.080915 0.398393 0.721370 -0.564523
C26   C     C_3   0.088299 0.424664 0.863502 -0.353409
H27   H     H_    0.027370 0.454724 0.907528 0.149381
H28   H     H_    0.138017 0.494937 0.883835 0.160510
H29   H     H_    0.107177 0.340311 0.916832 0.198643
O10   O     O_3   0.908721 0.334214 0.310698 -0.568490
C27   C     C_3   0.910203 0.413011 0.197593 -0.315271
H30   H     H_    0.970646 0.462845 0.185505 0.130385
H31   H     H_    0.856308 0.476570 0.203010 0.164919
H32   H     H_    0.900958 0.356959 0.102631 0.186501
N6    N     N_2   0.923499 0.728973 0.497123 -0.415065
H33   H     H_    0.951570 0.748387 0.591001 0.254731
C28   C     C_3   0.916868 0.835600 0.411793 -0.701119
H34   H     H_    0.891472 0.912939 0.473289 0.234436
H35   H     H_    0.873084 0.817037 0.324102 0.229683
H36   H     H_    0.979795 0.862020 0.372497 0.226297

loop_
_geom_bond_atom_site_label_1
_geom_bond_atom_site_label_2
_ccdc_geom_bond_type
N4    H19   S    
C25   H25   S    
Cu1   O5    S    
C5    H13   S    
C2    C18   S    
Cu2   O2    S    
C27   H30   S    
C19   C20   S    
C18   H2    S    
C17   O8    A    
C3    C6    S    
C7    C8    T    
N6    H33   S    
C12   O3    A    
C24   H21   S    
Cu1   O3    S    
N5    C25   S    
C14   N1    D    
N1    N4    S    
C5    C22   S    
C26   H27   S    
N3    C23   S    
Cu1   Cu2   S    
C2    H3    S    
C9    C10   D    
C9    H5    S    
C25   H26   S    
C5    H14   S    
C27   H31   S    
C4    H4    S    
N6    C28   S    
H9    N2    S    
Cu1   O7    S    
C23   H16   S    
Cu2   O8    S    
C19   C22   S    
C16   O6    A    
C28   H35   S    
O10   C27   S    
C24   H22   S    
C18   O9    S    
C6    C21   T    
C17   C21   S    
C28   H34   S    
C23   H17   S    
O9    C26   S    
C11   N3    S    
C10   H6    S    
C8    C12   S    
C15   N5    S    
C3    C20   S    
C9    C11   S    
C1    O1    A    
N4    C24   S    
Cu2   O4    S    
C27   H32   S    
C1    C13   S    
C3    C4    S    
C18   C22   S    
C13   H7    S    
C17   O7    A    
C14   H8    S    
C4    C5    S    
C19   H10   S    
C16   O5    A    
C28   H36   S    
C7    C22   S    
Cu1   O1    S    
C23   H18   S    
Cu2   O6    S    
C2    C3    S    
C4    N6    S    
C12   O4    A    
C19   H11   S    
C11   C13   D    
C24   H20   S    
C26   H29   S    
Cu1   N1    S    
Cu2   N2    S    
C2    H1    S    
N5    H23   S    
C15   N2    D    
C25   H24   S    
C20   H12   S    
C1    O2    A    
C26   H28   S    
N3    H15   S    
C14   C15   S    
C20   O10   S    
C10   C16   S    
