data_mof_unit_42127.cif
_audit_creation_date              2012-12-11T14:15:24-0500
_audit_creation_method            fapswitch 2.2
_symmetry_space_group_name_H-M    P1
_symmetry_Int_Tables_number       1
_space_group_crystal_system       triclinic
_cell_length_a                    11.151472
_cell_length_b                    12.68918
_cell_length_c                    23.543274
_cell_angle_alpha                 90.399101
_cell_angle_beta                  96.418729
_cell_angle_gamma                 68.595987
_cell_volume                      3080.17125429

loop_
_atom_site_label
_atom_site_type_symbol
_atom_type_description
_atom_site_fract_x
_atom_site_fract_y
_atom_site_fract_z
_atom_type_partial_charge
C1    C     C_R   0.149707 0.616862 0.428879 0.548721
C2    C     C_R   0.625571 0.578665 0.316514 -0.148900
C3    C     C_R   0.694589 0.740549 0.320423 0.247724
C4    C     C_R   0.682458 0.746561 0.260652 0.031396
C5    C     C_R   0.646984 0.664648 0.229437 0.003832
C6    C     C_R   0.649297 0.663843 0.170788 -0.112735
C7    C     C_R   0.690473 0.838346 0.171539 -0.152217
C8    C     C_R   0.707679 0.831306 0.231203 -0.123726
C9    C     C_1   0.235539 0.162145 0.123048 -0.002727
C10   C     C_2   0.182475 0.232033 0.226882 -0.125563
C11   C     C_2   0.155881 0.164669 0.263168 -0.123982
C12   C     C_R   0.746694 0.606166 0.404902 0.549481
C13   C     C_1   0.132811 0.198596 0.320835 -0.056003
C14   C     C_1   0.210862 0.196733 0.169889 -0.049995
C15   C     C_1   0.116564 0.231967 0.368551 -0.010721
C16   C     C_1   0.167764 0.749805 0.123901 -0.009730
C17   C     C_2   0.145289 0.686319 0.228140 -0.121217
C18   C     C_2   0.235541 0.681174 0.271963 -0.131543
C19   C     C_1   0.218101 0.655032 0.329444 -0.051543
C20   C     C_1   0.156433 0.719883 0.170989 -0.054689
C21   C     C_1   0.194566 0.635811 0.376304 -0.000366
C22   C     C_1   0.629012 0.755355 0.864996 -0.023797
C23   C     C_R   0.101344 0.282316 0.423397 0.545851
C24   C     C_2   0.701555 0.700638 0.762120 -0.139855
C25   C     C_2   0.611573 0.707266 0.718032 -0.131131
C26   C     C_1   0.650060 0.671209 0.662392 -0.057273
C27   C     C_1   0.664969 0.732401 0.818443 -0.065158
C28   C     C_1   0.689395 0.640197 0.617104 -0.013624
C29   C     C_R   0.199537 0.189911 0.856126 0.023958
C30   C     C_R   0.110081 0.227862 0.642296 0.042626
C31   C     C_R   0.996636 0.195767 0.718669 -0.126679
C32   C     C_R   0.001780 0.212357 0.660665 -0.175825
C33   C     C_R   0.215894 0.222083 0.682587 0.143504
C34   C     C_R   0.147596 0.615884 0.591268 0.540382
C35   C     C_R   0.198887 0.226927 0.740466 -0.039501
C36   C     C_R   0.093785 0.205690 0.759282 0.012174
C37   C     C_R   0.091800 0.190813 0.818248 0.216825
C38   C     C_R   0.287754 0.235843 0.837867 0.228559
C39   C     C_R   0.283604 0.256066 0.779615 -0.151094
C40   C     C_R   0.132290 0.742951 0.853441 0.016121
C41   C     C_R   0.178378 0.633291 0.650966 0.018019
C42   C     C_R   0.320863 0.588497 0.739338 -0.145097
C43   C     C_R   0.302246 0.579994 0.680281 -0.158415
C44   C     C_R   0.073843 0.696060 0.680317 -0.115478
C45   C     C_R   0.749610 0.602312 0.566056 0.536985
C46   C     C_R   0.091572 0.706543 0.738427 0.039464
C47   C     C_R   0.215781 0.651890 0.768400 0.044817
C48   C     C_R   0.234136 0.667325 0.826359 -0.118023
C49   C     C_R   0.007844 0.791984 0.824241 -0.121874
C50   C     C_R   0.987219 0.773416 0.766618 -0.144220
C51   C     C_R   0.265607 0.110048 0.069430 0.541053
C52   C     C_R   0.598994 0.774891 0.081609 0.543585
C53   C     C_R   0.189614 0.787838 0.069889 0.543840
C54   C     C_R   0.240394 0.118264 0.908674 0.576808
C55   C     C_R   0.573986 0.776373 0.918124 0.541969
C56   C     C_R   0.100308 0.278347 0.585431 0.558250
C57   C     C_R   0.164833 0.785949 0.907543 0.547597
C58   C     C_R   0.658043 0.755589 0.141119 0.000239
C59   C     C_R   0.680452 0.647420 0.347750 -0.032886
C60   C     C_R   0.608352 0.585696 0.256943 0.118971
Cr1   Cr    Cr6+3 0.189770 0.415650 0.511620 1.008880
Cr2   Cr    Cr6+3 0.930400 0.667320 0.496770 1.035054
Cr3   Cr    Cr6+3 0.879870 0.417010 0.491650 1.015090
Cr4   Cr    Cr6+3 0.149500 0.973980 0.985330 1.035292
Cr5   Cr    Cr6+3 0.457000 0.976510 0.994660 1.025131
Cr6   Cr    Cr6+3 0.411170 0.724270 0.995270 1.017115
H1    H     H_    0.632111 0.595984 0.147425 0.163436
H2    H     H_    0.059908 0.668371 0.235272 0.147561
H3    H     H_    0.509155 0.739018 0.723600 0.143204
H4    H     H_    0.803852 0.666398 0.756584 0.137317
H5    H     H_    0.914098 0.180317 0.731558 0.145690
H6    H     H_    0.347975 0.292289 0.764773 0.129915
H7    H     H_    0.920034 0.215354 0.630289 0.129183
H8    H     H_    0.331004 0.628747 0.848857 0.135147
H9    H     H_    0.697718 0.909983 0.149451 0.133706
H10   H     H_    0.929149 0.849091 0.845305 0.131369
H11   H     H_    0.416940 0.547160 0.762065 0.103935
H12   H     H_    0.891742 0.815834 0.743551 0.105876
H13   H     H_    0.383080 0.531074 0.657749 0.110949
H14   H     H_    0.976718 0.735580 0.658122 0.133354
H15   H     H_    0.734968 0.895060 0.253963 0.155189
H16   H     H_    0.604520 0.514615 0.338981 0.146349
H17   H     H_    0.153901 0.082978 0.250101 0.138410
H18   H     H_    0.185432 0.313304 0.240195 0.134057
H19   H     H_    0.320164 0.700522 0.265191 0.141305
O1    O     O_R   0.196340 0.303200 0.448500 -0.514828
O2    O     O_R   0.811960 0.658090 0.547150 -0.507436
O3    O     O_R   0.757930 0.506140 0.547110 -0.512076
O4    O     O_R   0.988670 0.321620 0.556040 -0.511051
O5    O     O_3   0.000020 0.499990 0.500010 -0.248266
O6    O     O_R   0.113660 0.883270 0.047820 -0.510278
O7    O     O_R   0.186930 0.068530 0.043990 -0.504059
O8    O     O_R   0.377770 0.089040 0.054220 -0.506621
O9    O     O_R   0.562800 0.872960 0.056970 -0.497299
O10   O     O_R   0.555390 0.700940 0.062700 -0.527208
O11   O     O_R   0.295020 0.731920 0.049950 -0.496302
O12   O     O_R   0.199310 0.519670 0.454880 -0.500137
O13   O     O_R   0.094290 0.884230 0.921550 -0.499706
O14   O     O_R   0.168980 0.069410 0.926940 -0.463838
O15   O     O_R   0.358400 0.089990 0.927950 -0.485193
O16   O     O_R   0.544850 0.873850 0.939920 -0.510204
O17   O     O_R   0.536020 0.701900 0.936430 -0.514041
O18   O     O_R   0.277070 0.732810 0.932890 -0.508898
O19   O     O_3   0.339220 0.891590 0.991750 -0.250444
O20   O     O_R   0.045660 0.691380 0.441680 -0.482936
O21   O     O_R   0.811930 0.659460 0.430950 -0.455764
O22   O     O_R   0.757900 0.507620 0.421760 -0.528349
O23   O     O_R   0.988630 0.322990 0.439840 -0.490862
O24   O     O_R   0.196380 0.301720 0.573850 -0.490843
O25   O     O_R   0.199350 0.518300 0.571080 -0.513007
O26   O     O_R   0.045700 0.689900 0.567030 -0.523958
O27   O     O_3   0.992295 0.166303 0.838098 -0.555686
C61   C     C_3   0.887382 0.268934 0.844508 -0.007885
H20   H     H_    0.795969 0.255239 0.830628 0.131672
H21   H     H_    0.885011 0.341570 0.817166 0.119616
C62   C     C_3   0.888121 0.300853 0.907308 -0.258132
H22   H     H_    0.885179 0.229958 0.933888 0.173059
H23   H     H_    0.978754 0.315711 0.921803 0.161616
C63   C     C_3   0.771910 0.407810 0.915781 -0.469180
H24   H     H_    0.774460 0.480360 0.890452 0.161385
H25   H     H_    0.774810 0.428639 0.961675 0.160199
H26   H     H_    0.679847 0.394651 0.902294 0.139073
O28   O     O_3   0.377897 0.256496 0.878295 -0.544415
C64   C     C_3   0.504417 0.225214 0.861156 0.021465
H27   H     H_    0.567686 0.239838 0.897804 0.145574
H28   H     H_    0.506909 0.282260 0.826172 0.103089
C65   C     C_3   0.564523 0.099012 0.846943 -0.268606
H29   H     H_    0.579812 0.045632 0.886193 0.199803
H30   H     H_    0.499789 0.075405 0.814333 0.161579
C66   C     C_3   0.694256 0.071819 0.823726 -0.487334
H31   H     H_    0.683699 0.128753 0.786340 0.140165
H32   H     H_    0.728237 0.983379 0.809386 0.149318
H33   H     H_    0.767450 0.080615 0.857565 0.173793
N1    N     N_2   0.343342 0.192662 0.665653 -0.501122
H34   H     H_    0.410852 0.120356 0.686279 0.243504
C67   C     C_3   0.393216 0.282503 0.660335 -0.266702
H35   H     H_    0.476762 0.270717 0.693434 0.087496
H36   H     H_    0.316885 0.366632 0.664553 0.174225
H37   H     H_    0.428387 0.279707 0.617883 0.171119
N2    N     N_2   0.553160 0.515380 0.223962 -0.521721
H38   H     H_    0.479489 0.558514 0.192503 0.254011
C68   C     C_3   0.534146 0.421593 0.251186 -0.304751
H39   H     H_    0.502231 0.371753 0.217979 0.148070
H40   H     H_    0.457859 0.453420 0.280336 0.142860
H41   H     H_    0.626618 0.364476 0.275006 0.161008
O29   O     O_3   0.738264 0.815889 0.351081 -0.553102
C69   C     C_3   0.637775 0.890518 0.380107 0.025624
H42   H     H_    0.684089 0.913566 0.420053 0.157604
H43   H     H_    0.569719 0.851734 0.393554 0.108101
C70   C     C_3   0.562422 0.998727 0.343499 -0.289822
H44   H     H_    0.631338 0.035616 0.329715 0.168506
H45   H     H_    0.509713 0.978071 0.304760 0.160791
C71   C     C_3   0.464917 0.086427 0.376701 -0.461499
H46   H     H_    0.393333 0.052277 0.390021 0.157214
H47   H     H_    0.412617 0.163832 0.349115 0.162588
H48   H     H_    0.515433 0.109925 0.415235 0.149757

loop_
_geom_bond_atom_site_label_1
_geom_bond_atom_site_label_2
_ccdc_geom_bond_type
C12   O21   A    
C1    C21   S    
Cr3   O3    S    
C6    C58   A    
C66   H32   S    
C35   C36   A    
C9    C51   S    
C24   C27   S    
Cr5   O16   S    
C4    C8    A    
C42   H11   S    
Cr1   O24   S    
C24   H4    S    
O28   C64   S    
Cr2   O20   S    
C55   O17   A    
Cr6   O11   S    
C36   C37   A    
C69   H43   S    
N2    C68   S    
C61   H20   S    
C5    C6    A    
C2    C60   A    
C29   C54   S    
C23   O23   A    
C43   H13   S    
C40   C49   A    
C17   C20   S    
C62   H22   S    
C52   O10   A    
C40   C48   A    
C18   C19   S    
C10   H18   S    
Cr6   O17   S    
C16   C53   S    
C37   O27   S    
C45   O2    A    
C12   C59   S    
C33   N1    S    
Cr4   O14   S    
Cr2   O26   S    
C69   H42   S    
C23   O1    A    
C29   C38   A    
C53   O6    A    
C39   H6    S    
C52   O9    A    
C71   H47   S    
C7    C58   A    
C38   O28   S    
C30   C33   A    
C61   C62   S    
C15   C23   S    
C53   O11   A    
C34   O26   A    
C41   C43   A    
C68   H41   S    
C54   O15   A    
C34   C41   S    
C67   H37   S    
Cr1   O25   S    
C50   H12   S    
O27   C61   S    
C44   C46   A    
C63   H25   S    
C57   O18   A    
C28   C45   S    
C18   H19   S    
C8    H15   S    
Cr6   O19   S    
C44   H14   S    
C69   C70   S    
N2    H38   S    
C67   H36   S    
C10   C14   S    
C1    O12   A    
C32   H7    S    
C2    C59   A    
C67   H35   S    
N1    C67   S    
C11   H17   S    
C25   C26   S    
C30   C56   S    
C70   C71   S    
C35   C39   A    
C9    C14   T    
C65   H30   S    
C48   H8    S    
C51   O7    A    
C47   C48   A    
C16   C20   T    
Cr3   O4    S    
C17   C18   D    
C49   H10   S    
C24   C25   D    
C71   H48   S    
C22   C55   S    
C52   C58   S    
C60   N2    S    
C64   C65   S    
C45   O3    A    
Cr5   O9    S    
C51   O8    A    
C22   C27   T    
C13   C15   T    
C34   O25   A    
C41   C44   A    
C68   H40   S    
C54   O14   A    
C2    H16   S    
C66   H33   S    
C25   H3    S    
C42   C43   A    
Cr4   O7    S    
Cr3   O22   S    
C65   H29   S    
C56   O24   A    
Cr1   O5    S    
Cr6   O10   S    
C64   H28   S    
O29   C69   S    
C63   H26   S    
Cr4   O19   S    
C55   O16   A    
C46   C47   A    
C56   O4    A    
C17   H2    S    
C40   C57   S    
C5    C60   A    
C19   C21   T    
C68   H39   S    
Cr6   O18   S    
C31   C32   A    
Cr1   O12   S    
Cr5   O15   S    
C4    C5    A    
C12   O22   A    
C7    H9    S    
C63   H24   S    
N1    H34   S    
Cr2   O21   S    
Cr2   O2    S    
C46   C50   A    
C26   C28   T    
C70   H44   S    
C62   C63   S    
C10   C11   D    
C66   H31   S    
C71   H46   S    
C65   C66   S    
C6    H1    S    
Cr5   O19   S    
C30   C32   A    
C11   C13   S    
C38   C39   A    
C57   O13   A    
Cr2   O5    S    
Cr3   O5    S    
Cr4   O13   S    
Cr5   O8    S    
C33   C35   A    
C62   H23   S    
C70   H45   S    
C42   C47   A    
C7    C8    A    
Cr1   O1    S    
C3    O29   S    
C49   C50   A    
C29   C37   A    
C31   C36   A    
C64   H27   S    
Cr4   O6    S    
Cr3   O23   S    
C3    C4    A    
C1    O20   A    
C31   H5    S    
C61   H21   S    
C3    C59   A    
