data_mof_unit_66431.cif
_audit_creation_date              2013-03-05T15:57:54-0500
_audit_creation_method            fapswitch 2.2
_symmetry_space_group_name_H-M    P1
_symmetry_Int_Tables_number       1
_space_group_crystal_system       triclinic
_cell_length_a                    18.77312
_cell_length_b                    18.837595
_cell_length_c                    18.84943
_cell_angle_alpha                 109.649728
_cell_angle_beta                  109.535167
_cell_angle_gamma                 109.306586
_cell_volume                      5126.45821533

loop_
_atom_site_label
_atom_site_type_symbol
_atom_site_description
_atom_site_fract_x
_atom_site_fract_y
_atom_site_fract_z
_atom_type_partial_charge
O1    O     O_R   0.409790 0.552170 0.461990 -0.534653
O2    O     O_R   0.409840 0.447810 0.357660 -0.576517
C1    C     C_R   0.382768 0.501805 0.381192 0.897298
O3    O     O_R   0.590140 0.642360 0.552170 -0.564986
O4    O     O_R   0.590190 0.538010 0.447840 -0.566098
C2    C     C_R   0.616322 0.618301 0.497722 0.863984
Cu1   Cu    Cu3+1 0.499970 0.561780 0.561770 1.098688
Cu2   Cu    Cu3+1 0.500030 0.438220 0.438230 1.092652
O5    O     O_R   0.590160 0.552190 0.642340 -0.607715
O6    O     O_R   0.590210 0.447830 0.538010 -0.563237
O7    O     O_R   0.409810 0.461990 0.552160 -0.554756
O8    O     O_R   0.409860 0.357640 0.447830 -0.564554
C3    C     C_R   0.619325 0.500337 0.618929 0.815937
C4    C     C_R   0.381205 0.381155 0.499966 0.925446
C5    C     C_R   0.763897 0.736547 0.564510 0.050880
C6    C     C_R   0.679746 0.683402 0.494152 -0.165773
C7    C     C_R   0.660725 0.695718 0.420777 0.334618
C8    C     C_R   0.727809 0.761760 0.423818 -0.233773
H1    H     H_    0.713681 0.771572 0.368383 0.205373
C9    C     C_R   0.812969 0.813295 0.496735 -0.125296
C10   C     C_R   0.827619 0.797440 0.565362 0.150697
C11   C     C_3   0.894520 0.825723 0.654235 -0.390758
C12   C     C_3   0.821728 0.755548 0.652907 -0.467509
H2    H     H_    0.947265 0.811327 0.653820 0.204834
H3    H     H_    0.832154 0.700371 0.651204 0.202431
C13   C     C_R   0.247557 0.424739 0.241549 -0.153547
H4    H     H_    0.242973 0.363648 0.234594 0.170647
C14   C     C_R   0.181427 0.423210 0.178295 -0.150986
C15   C     C_R   0.186253 0.501257 0.186157 -0.074155
C16   C     C_R   0.256245 0.580864 0.258024 -0.195534
H5    H     H_    0.259237 0.640964 0.263139 0.187082
C17   C     C_R   0.322367 0.583611 0.323321 0.349018
C18   C     C_R   0.317788 0.504196 0.314411 -0.103099
C19   C     C_R   0.328139 0.247140 0.508972 0.211911
C20   C     C_R   0.263291 0.180694 0.506666 0.249367
C21   C     C_R   0.186280 0.182547 0.497062 -0.229198
C22   C     C_R   0.173607 0.248772 0.488139 -0.206065
H6    H     H_    0.113854 0.249197 0.480187 0.216356
C23   C     C_R   0.236567 0.314254 0.488694 0.302947
C24   C     C_R   0.314593 0.313792 0.499868 -0.299835
C25   C     C_R   0.749888 0.485361 0.670600 -0.218375
H7    H     H_    0.748720 0.474548 0.609902 0.185965
C26   C     C_R   0.814113 0.483332 0.733005 0.343429
C27   C     C_R   0.813903 0.496553 0.811323 -0.127624
C28   C     C_R   0.750132 0.510935 0.825618 -0.213115
C29   C     C_R   0.687324 0.513799 0.763412 -0.104646
H8    H     H_    0.638433 0.525055 0.775407 0.169650
C30   C     C_R   0.686746 0.500430 0.685583 -0.059513
O9    O     O_R   0.052180 0.909860 0.461960 -0.561153
O10   O     O_R   0.947790 0.909920 0.357650 -0.602898
C31   C     C_R   0.000035 0.881166 0.381078 0.777184
O11   O     O_R   0.962030 0.909820 0.552150 -0.603865
O12   O     O_R   0.857630 0.909880 0.447840 -0.566907
C32   C     C_R   0.881003 0.880753 0.499254 0.856762
Cu3   Cu    Cu3+1 0.061810 0.000000 0.561760 1.087119
Cu4   Cu    Cu3+1 0.938190 0.000070 0.438240 1.057760
O13   O     O_R   0.052210 0.090150 0.642360 -0.570326
O14   O     O_R   0.947820 0.090210 0.538040 -0.552017
O15   O     O_R   0.142360 0.090190 0.552160 -0.522423
O16   O     O_R   0.037970 0.090250 0.447850 -0.603025
C33   C     C_R   0.000011 0.118792 0.618791 0.933035
C34   C     C_R   0.119013 0.117257 0.498484 0.925763
O17   O     O_R   0.947800 0.538090 0.090240 -0.585440
O18   O     O_R   0.052170 0.642450 0.090210 -0.578961
C35   C     C_R   0.999982 0.618986 0.118939 0.761834
O19   O     O_R   0.038000 0.447920 0.090280 -0.583082
O20   O     O_R   0.142370 0.552280 0.090250 -0.575435
C36   C     C_R   0.118946 0.500175 0.118841 0.789833
Cu5   Cu    Cu3+1 0.938200 0.438300 0.000110 1.022166
Cu6   Cu    Cu3+1 0.061800 0.561880 0.000070 1.057269
O21   O     O_R   0.947830 0.357730 0.909970 -0.593016
O22   O     O_R   0.052200 0.462090 0.909940 -0.555685
O23   O     O_R   0.857630 0.447900 0.909930 -0.570975
O24   O     O_R   0.962000 0.552260 0.909900 -0.561834
C37   C     C_R   0.000314 0.381164 0.881512 0.874760
C38   C     C_R   0.881077 0.498912 0.880253 0.843932
C39   C     C_R   0.999883 0.821531 0.242609 -0.124709
C40   C     C_R   0.001321 0.758158 0.179261 -0.158037
C41   C     C_R   0.000035 0.685940 0.185892 -0.014710
C42   C     C_R   0.998920 0.678056 0.256842 -0.143816
C43   C     C_R   0.000500 0.742924 0.321705 -0.150144
C44   C     C_R   0.000159 0.814320 0.314242 0.005314
C45   C     C_R   0.923476 0.168263 0.691362 0.289628
C46   C     C_R   0.924478 0.233249 0.755768 -0.171001
H9    H     H_    0.866070 0.220324 0.760564 0.202649
C47   C     C_R   0.000241 0.314172 0.814434 -0.130940
C48   C     C_R   0.075881 0.331176 0.808937 -0.196538
C49   C     C_R   0.076743 0.267819 0.744759 0.302234
C50   C     C_R   0.000059 0.185741 0.685688 -0.255867
N1    N     N_R   0.575124 0.645085 0.344575 0.144300
O25   O     O_R   0.526270 0.562967 0.315437 -0.340801
O26   O     O_R   0.549328 0.678809 0.298255 -0.298940
N2    N     N_R   0.393379 0.666937 0.396380 0.142386
O27   O     O_R   0.473143 0.681747 0.427840 -0.314579
O28   O     O_R   0.379968 0.731837 0.424214 -0.299347
N3    N     N_R   0.407494 0.246616 0.520173 0.167258
O29   O     O_R   0.404812 0.178405 0.468099 -0.258978
O30   O     O_R   0.482560 0.313412 0.584032 -0.348440
N4    N     N_R   0.275586 0.111405 0.513388 0.166425
O31   O     O_R   0.218262 0.030837 0.453275 -0.346098
O32   O     O_R   0.345377 0.128723 0.578145 -0.248892
N5    N     N_R   0.218831 0.378617 0.474832 0.145261
O33   O     O_R   0.235969 0.401070 0.421764 -0.384666
O34   O     O_R   0.173673 0.405072 0.504693 -0.297631
N6    N     N_R   0.876588 0.465143 0.714649 0.132919
O35   O     O_R   0.899926 0.414390 0.736262 -0.352904
O36   O     O_R   0.900991 0.489200 0.665686 -0.325411
H10   H     H_    0.750005 0.521478 0.885744 0.161779
H11   H     H_    0.000036 0.876789 0.236597 0.150217
H12   H     H_    0.001900 0.764600 0.124433 0.147364
H13   H     H_    0.998335 0.622594 0.262658 0.155783
H14   H     H_    0.000426 0.736753 0.376796 0.148908
N7    N     N_R   0.845279 0.084604 0.634206 0.137620
O37   O     O_R   0.849571 0.013670 0.616094 -0.382557
O38   O     O_R   0.769243 0.079128 0.610797 -0.284861
H15   H     H_    0.134320 0.394264 0.854361 0.199813
N8    N     N_R   0.154983 0.288662 0.739249 0.140744
O39   O     O_R   0.150752 0.265643 0.664072 -0.370476
O40   O     O_R   0.231000 0.341429 0.809637 -0.313496
H16   H     H_    0.916712 0.893267 0.702354 0.218667
H17   H     H_    0.802188 0.782543 0.700526 0.220512
H18   H     H_    0.127303 0.361334 0.122568 0.155788

loop_
_geom_bond_atom_site_label_1
_geom_bond_atom_site_label_2
_geom_bond_distance
_ccdc_geom_bond_type
O19   C36   1.294355 A    
C48   C49   1.393918 A    
O17   C35   1.295607 A    
N2    O27   1.300142 A    
C35   C41   1.453039 S    
Cu3   O15   1.974038 S    
C25   H7    1.083765 S    
C45   N7    1.438731 S    
C20   C21   1.409520 A    
Cu3   Cu4   2.682762 S    
C43   C44   1.400357 A    
Cu1   Cu2   2.683003 S    
C12   H17   1.111489 S    
C39   C40   1.391347 A    
C11   H16   1.111651 S    
N6    O36   1.301439 A    
C13   H4    1.083732 S    
C22   H6    1.084040 S    
O24   C38   1.294278 A    
C45   C46   1.393827 A    
C19   C24   1.413320 A    
C21   C22   1.397070 A    
C46   C47   1.396546 A    
C8    H1    1.083189 S    
N8    O40   1.301425 A    
C16   H5    1.084013 S    
N5    O34   1.301418 A    
O7    C4    1.293619 A    
C14   H18   1.083539 S    
O19   Cu5   1.967383 S    
C1    C18   1.456763 S    
C5    C6    1.384516 A    
O16   C34   1.294224 A    
C19   C20   1.403945 A    
C26   N6    1.438786 S    
O13   C33   1.291693 A    
Cu5   O21   1.968672 S    
O5    C3    1.293812 A    
C13   C18   1.402311 A    
O17   Cu5   1.968706 S    
C33   C50   1.452417 S    
C6    C7    1.426376 A    
O9    C31   1.293285 A    
N3    O30   1.300969 A    
Cu6   O24   1.967382 S    
Cu5   O23   1.969293 S    
O18   Cu6   1.968672 S    
C16   C17   1.396919 A    
O11   Cu3   1.972162 S    
O14   C33   1.292020 A    
C5    C12   1.488378 S    
C17   N2    1.439538 S    
N2    O28   1.301471 A    
C10   C11   1.489205 S    
C25   C26   1.396809 A    
N5    O33   1.301074 A    
O22   C37   1.295978 A    
C20   N4    1.436618 S    
O11   C32   1.294436 A    
C7    C8    1.415909 A    
C45   C50   1.414342 A    
C29   C30   1.398138 A    
O20   C36   1.294624 A    
C46   H9    1.083683 S    
C9    C32   1.447056 S    
C23   C24   1.411863 A    
C47   C48   1.396308 A    
C21   C34   1.458046 S    
O3    Cu1   1.973029 S    
O9    Cu3   1.968775 S    
C2    C6    1.438648 S    
O10   Cu4   1.968376 S    
Cu4   O16   1.972163 S    
O1    C1    1.292390 A    
Cu1   O7    1.973160 S    
C26   C27   1.413721 A    
C15   C16   1.396734 A    
O4    Cu2   1.973160 S    
C15   C36   1.449278 S    
C37   C47   1.454581 S    
N1    O26   1.301576 A    
N4    O31   1.301302 A    
C43   H14   1.083481 S    
Cu2   O8    1.973032 S    
N3    O29   1.301136 A    
O10   C31   1.293394 A    
C40   H12   1.083468 S    
C49   C50   1.414628 A    
C39   H11   1.083487 S    
C31   C44   1.452514 S    
C48   H15   1.083688 S    
O3    C2    1.293106 A    
N4    O32   1.301151 A    
O8    C4    1.292162 A    
Cu3   O13   1.968471 S    
O23   C38   1.294822 A    
C11   H2    1.111495 S    
C27   C28   1.400128 A    
C23   N5    1.439086 S    
N7    O37   1.300527 A    
O12   Cu4   1.974133 S    
Cu1   O5    1.967978 S    
C29   H8    1.083387 S    
C14   C15   1.395751 A    
O15   C34   1.293779 A    
O1    Cu1   1.968553 S    
O2    Cu2   1.967980 S    
C7    N1    1.441081 S    
C19   N3    1.436927 S    
C42   C43   1.391371 A    
O6    C3    1.293790 A    
C3    C30   1.453984 S    
C28   H10   1.083827 S    
O12   C32   1.290435 A    
N6    O35   1.300609 A    
C13   C14   1.388155 A    
O20   Cu6   1.969292 S    
C17   C18   1.417708 A    
O2    C1    1.295675 A    
C22   C23   1.392018 A    
N8    O39   1.300419 A    
O18   C35   1.295336 A    
O21   C37   1.295566 A    
C40   C41   1.400564 A    
N1    O25   1.299739 A    
O4    C2    1.287183 A    
C39   C44   1.400269 A    
C42   H13   1.083470 S    
C25   C30   1.399250 A    
Cu4   O14   1.968773 S    
C8    C9    1.412198 A    
C12   H3    1.111757 S    
Cu5   Cu6   2.689596 S    
C4    C24   1.456584 S    
C41   C42   1.400464 A    
C28   C29   1.388548 A    
C5    C10   1.347027 A    
C9    C10   1.383623 A    
Cu2   O6    1.968551 S    
C11   C12   1.541389 S    
Cu6   O22   1.968705 S    
C27   C38   1.452151 S    
C49   N8    1.438891 S    
N7    O38   1.301412 A    
