data_mof_unit_13228.cif
_audit_creation_date              2012-12-10T17:50:17-0500
_audit_creation_method            fapswitch 2.2
_symmetry_space_group_name_H-M    P1
_symmetry_Int_Tables_number       1
_space_group_crystal_system       triclinic
_cell_length_a                    10.616779
_cell_length_b                    14.705419
_cell_length_c                    14.765022
_cell_angle_alpha                 64.875007
_cell_angle_beta                  103.890612
_cell_angle_gamma                 103.626361
_cell_volume                      2002.47094734

loop_
_atom_site_label
_atom_site_type_symbol
_atom_type_description
_atom_site_fract_x
_atom_site_fract_y
_atom_site_fract_z
_atom_type_partial_charge
C1    C     C_R   0.479793 0.119805 0.312274 0.799452
C2    C     C_R   0.523858 0.880213 0.687736 0.800711
C3    C     C_R   0.502993 0.292359 0.179099 -0.246406
C4    C     C_R   0.531433 0.708105 0.821220 -0.252196
C5    C     C_R   0.518577 0.360884 0.080062 0.091567
C6    C     C_R   0.556849 0.640256 0.922401 0.090875
C7    C     C_R   0.499798 0.321131 0.004705 0.159434
C8    C     C_R   0.591399 0.680179 0.998712 0.160332
C9    C     C_R   0.549018 0.467664 0.053663 0.065688
C10   C     C_R   0.543937 0.533724 0.949786 0.067794
C11   C     C_R   0.528076 0.491203 0.877053 -0.212279
C12   C     C_R   0.586692 0.510488 0.127676 -0.212473
C13   C     C_R   0.507774 0.386799 0.904516 -0.200001
C14   C     C_R   0.608970 0.614881 0.100333 -0.196600
C15   C     C_R   0.722086 0.285778 0.667648 0.029546
C16   C     C_R   0.275935 0.713227 0.333894 0.032768
C17   C     C_R   0.685855 0.204101 0.637580 0.038016
C18   C     C_R   0.313146 0.795397 0.363208 0.038953
C19   C     C_R   0.517956 0.284682 0.510106 -0.010397
C20   C     C_R   0.482044 0.715317 0.489920 -0.008527
C21   C     C_R   0.549516 0.371265 0.535858 -0.047500
C22   C     C_R   0.449460 0.628222 0.464975 -0.047743
C23   C     C_R   0.259302 0.999389 0.500153 0.797451
C24   C     C_R   0.740688 0.000595 0.499874 0.794979
C25   C     C_R   0.653541 0.369979 0.617222 0.111131
C26   C     C_R   0.344638 0.629108 0.384219 0.110697
C27   C     C_R   0.481317 0.457904 0.484640 0.083892
C28   C     C_R   0.517344 0.541425 0.516442 0.087483
C29   C     C_R   0.619709 0.535172 0.598864 -0.257510
C30   C     C_R   0.378297 0.463842 0.402692 -0.251828
C31   C     C_R   0.686341 0.452049 0.647276 -0.170766
C32   C     C_R   0.311172 0.546702 0.354670 -0.161387
C33   C     C_3   0.005648 0.918702 0.484026 0.154702
C34   C     C_3   0.994280 0.081268 0.516050 0.155364
C35   C     C_3   0.928316 0.005272 0.409570 -0.196169
C36   C     C_3   0.071637 0.994719 0.590506 -0.195940
C37   C     C_3   0.877831 0.002082 0.500165 -0.042343
C38   C     C_3   0.122135 0.997888 0.499901 -0.043609
C39   C     C_3   0.953354 0.914920 0.574493 -0.208636
C40   C     C_3   0.046593 0.085069 0.425585 -0.208849
C41   C     C_R   0.479470 0.187423 0.205202 -0.059608
C42   C     C_R   0.546294 0.812765 0.795198 -0.060523
C43   C     C_R   0.473181 0.215782 0.030475 -0.170435
C44   C     C_R   0.607052 0.785275 0.972531 -0.167982
C45   C     C_R   0.464237 0.149199 0.130390 -0.182317
C46   C     C_R   0.585492 0.851318 0.871259 -0.182416
Cu1   Cu    Cu3+1 0.465750 0.918270 0.475680 0.929577
Cu2   Cu    Cu3+1 0.534250 0.081730 0.524320 0.929015
H1    H     H_    0.867133 0.009369 0.335876 0.141910
H2    H     H_    0.132799 0.990649 0.664196 0.142431
H3    H     H_    0.561732 0.722240 0.548428 0.126810
H4    H     H_    0.439084 0.278142 0.450966 0.127663
H5    H     H_    0.261683 0.860353 0.324634 0.146816
H6    H     H_    0.737104 0.139031 0.676334 0.145785
H7    H     H_    0.651346 0.593649 0.628568 0.129218
H8    H     H_    0.346090 0.405122 0.373340 0.132094
H9    H     H_    0.912490 0.845542 0.635127 0.134373
H10   H     H_    0.087428 0.154482 0.364970 0.133975
H11   H     H_    0.496346 0.357337 0.846526 0.156122
H12   H     H_    0.637650 0.644574 0.159350 0.153324
H13   H     H_    0.496022 0.680823 0.761223 0.152768
H14   H     H_    0.506464 0.318991 0.237334 0.148344
H15   H     H_    0.598354 0.932208 0.852645 0.163405
H16   H     H_    0.446326 0.068113 0.149109 0.163445
H17   H     H_    0.460088 0.184926 0.973384 0.144042
H18   H     H_    0.635092 0.816290 0.030506 0.144364
H19   H     H_    0.534985 0.536717 0.798335 0.141498
H20   H     H_    0.603888 0.465395 0.207851 0.146756
H21   H     H_    0.764108 0.453061 0.709485 0.186054
H22   H     H_    0.232611 0.545292 0.293053 0.185017
N1    N     N_R   0.585750 0.204560 0.560800 -0.191905
N2    N     N_R   0.414250 0.795440 0.439200 -0.192326
O1    O     O_R   0.454850 0.022100 0.338110 -0.584696
O2    O     O_R   0.545150 0.977900 0.661890 -0.585192
O3    O     O_R   0.512700 0.160150 0.379180 -0.589350
O4    O     O_R   0.487300 0.839850 0.620820 -0.588957
O5    O     O_R   0.287930 0.931000 0.479440 -0.593020
O6    O     O_R   0.712070 0.069000 0.520560 -0.593911
O7    O     O_R   0.345780 0.069050 0.520520 -0.584065
O8    O     O_R   0.654220 0.930950 0.479480 -0.585414
I1    I     I_    0.879784 0.273593 0.790284 -0.459549
I2    I     I_    0.116213 0.724377 0.212772 -0.462303
C47   C     C_3   0.010756 0.824804 0.465722 -0.380573
C48   C     C_3   0.873773 0.762623 0.456444 -0.362293
C49   C     C_3   0.878930 0.669325 0.437686 -0.791730
H23   H     H_    0.918916 0.692632 0.366804 0.273942
H24   H     H_    0.941523 0.618355 0.502216 0.260700
H25   H     H_    0.778339 0.626764 0.429727 0.249252
H26   H     H_    0.832529 0.737200 0.527254 0.216967
H27   H     H_    0.807042 0.810382 0.392562 0.228507
H28   H     H_    0.051608 0.849924 0.394818 0.208475
H29   H     H_    0.077007 0.776975 0.529963 0.209476
C50   C     C_3   0.988598 0.175091 0.534268 -0.381069
C51   C     C_3   0.125359 0.237276 0.544233 -0.364210
C52   C     C_3   0.119233 0.331006 0.561945 -0.786068
H30   H     H_    0.057693 0.381946 0.496513 0.258228
H31   H     H_    0.077584 0.308239 0.631976 0.275622
H32   H     H_    0.219665 0.373411 0.570852 0.250321
H33   H     H_    0.191461 0.189679 0.608852 0.229507
H34   H     H_    0.167689 0.262204 0.474000 0.216509
H35   H     H_    0.922677 0.222937 0.469738 0.209062
H36   H     H_    0.947057 0.149912 0.604879 0.208865

loop_
_geom_bond_atom_site_label_1
_geom_bond_atom_site_label_2
_ccdc_geom_bond_type
C25   C31   A    
C7    C13   A    
C38   C40   S    
C26   C32   A    
C50   C51   S    
C34   C37   S    
C19   N1    A    
C52   H30   S    
C34   C50   S    
C52   H32   S    
C2    O4    A    
C15   I1    S    
C49   H23   S    
C47   H29   S    
C12   H20   S    
C33   C39   S    
C34   C40   S    
Cu2   O7    S    
C28   C29   A    
C35   C37   S    
Cu1   O4    S    
C20   H3    S    
C49   H25   S    
C39   H9    S    
C42   C46   A    
Cu2   O6    S    
C18   H5    S    
C44   H18   S    
C19   H4    S    
C24   O8    A    
Cu1   Cu2   S    
C11   H19   S    
C35   H1    S    
C7    C43   A    
C9    C10   A    
C2    O2    A    
C21   C27   A    
C22   C28   A    
C27   C30   A    
C18   N2    A    
Cu2   O3    S    
C48   H27   S    
Cu1   O8    S    
C44   C46   A    
C49   H24   S    
C16   C26   A    
C37   C39   S    
C40   H10   S    
C1    O3    A    
Cu2   O2    S    
C48   C49   S    
Cu1   O1    S    
C4    C6    A    
C50   H35   S    
C5    C7    A    
C32   H22   S    
C29   H7    S    
C30   H8    S    
C4    H13   S    
C5    C9    A    
C43   C45   A    
C47   C48   S    
C51   H34   S    
C43   H17   S    
C16   I2    S    
C24   C37   S    
C23   O5    A    
C33   C47   S    
C1    C41   S    
C12   C14   A    
C17   N1    A    
C48   H26   S    
Cu1   O5    S    
Cu2   N1    S    
C36   H2    S    
C3    H14   S    
C24   O6    A    
C14   H12   S    
C15   C17   A    
C21   C25   A    
C3    C41   A    
C8    C14   A    
C19   C21   A    
C36   C39   S    
C8    C44   A    
C20   C22   A    
C3    C5    A    
C50   H36   S    
C6    C10   A    
C6    C8    A    
C52   H31   S    
C13   H11   S    
C23   C38   S    
C47   H28   S    
C45   H16   S    
C33   C38   S    
C46   H15   S    
C1    O1    A    
C36   C38   S    
C35   C40   S    
C29   C31   A    
C30   C32   A    
C11   C13   A    
C4    C42   A    
C51   H33   S    
C2    C42   S    
C33   C35   S    
C34   C36   S    
C51   C52   S    
C9    C12   A    
Cu1   N2    S    
C15   C25   A    
C10   C11   A    
C31   H21   S    
C16   C18   A    
C22   C26   A    
C27   C28   A    
C41   C45   A    
C20   N2    A    
C23   O7    A    
C17   H6    S    
