data_mof_unit_62944.cif
_audit_creation_date              2012-10-26T19:36:08-0400
_audit_creation_method            fapswitch 2.2
_symmetry_space_group_name_H-M    P1
_symmetry_Int_Tables_number       1
_space_group_crystal_system       monoclinic
_cell_length_a                    22.623066
_cell_length_b                    22.628157
_cell_length_c                    14.770106
_cell_angle_alpha                 90.0
_cell_angle_beta                  90.0
_cell_angle_gamma                 89.99997
_cell_volume                      7561.08739585

loop_
_atom_site_label
_atom_site_type_symbol
_atom_type_description
_atom_site_fract_x
_atom_site_fract_y
_atom_site_fract_z
_atom_type_partial_charge
C1    C     C_R   0.079591 0.420421 0.500000 0.549122
C2    C     C_R   0.002812 0.446764 0.047889 -0.110431
C3    C     C_R   0.002812 0.446764 0.952111 -0.110431
C4    C     C_R   0.997188 0.553235 0.047889 -0.110431
C5    C     C_R   0.497421 0.053247 0.952111 -0.110431
C6    C     C_R   0.502579 0.946753 0.047889 -0.110431
C7    C     C_R   0.502579 0.946753 0.952111 -0.110431
C8    C     C_R   0.497421 0.053247 0.047889 -0.110431
C9    C     C_R   0.000000 0.500000 0.902864 0.002895
C10   C     C_R   0.000000 0.500000 0.097136 0.002896
C11   C     C_R   0.500000 1.000000 0.902864 0.002896
C12   C     C_R   0.920409 0.579579 0.500000 0.549122
C13   C     C_R   0.500000 1.000000 0.097136 0.002895
C14   C     C_R   0.228439 0.727942 0.582173 -0.105636
C15   C     C_R   0.772056 0.271562 0.417827 -0.105636
C16   C     C_R   0.771560 0.272058 0.582173 -0.105636
C17   C     C_R   0.227944 0.728437 0.417827 -0.105636
C18   C     C_R   0.771621 0.728003 0.417826 -0.105671
C19   C     C_R   0.228005 0.271623 0.582174 -0.105670
C20   C     C_R   0.228379 0.271997 0.417826 -0.105671
C21   C     C_R   0.771995 0.728377 0.582174 -0.105670
C22   C     C_R   0.727944 0.228437 0.582173 -0.105637
C23   C     C_R   0.920409 0.420421 0.500000 0.549150
C24   C     C_R   0.271560 0.772058 0.417827 -0.105637
C25   C     C_R   0.272056 0.771562 0.582173 -0.105637
C26   C     C_R   0.728439 0.227942 0.417827 -0.105637
C27   C     C_R   0.271995 0.228377 0.417826 -0.105670
C28   C     C_R   0.728379 0.771997 0.582174 -0.105670
C29   C     C_R   0.728005 0.771623 0.417826 -0.105670
C30   C     C_R   0.271621 0.228003 0.582174 -0.105670
C31   C     C_R   0.206398 0.706394 0.500000 0.038304
C32   C     C_R   0.793602 0.293606 0.500000 0.038304
C33   C     C_R   0.793602 0.706394 0.500000 0.038346
C34   C     C_R   0.079591 0.579579 0.500000 0.549150
C35   C     C_R   0.206398 0.293606 0.500000 0.038346
C36   C     C_R   0.706397 0.206394 0.500000 0.038304
C37   C     C_R   0.293602 0.793606 0.500000 0.038304
C38   C     C_R   0.293602 0.206394 0.500000 0.038345
C39   C     C_R   0.706398 0.793606 0.500000 0.038345
C40   C     C_1   0.000000 0.500000 0.802713 0.122918
C41   C     C_1   0.000000 0.500000 0.197287 0.122918
C42   C     C_1   0.500000 1.000000 0.802713 0.122918
C43   C     C_1   0.500000 1.000000 0.197287 0.122918
C44   C     C_1   0.161673 0.661665 0.500000 -0.058414
C45   C     C_R   0.579591 0.920421 0.500000 0.549123
C46   C     C_1   0.838326 0.338334 0.500000 -0.058414
C47   C     C_1   0.838326 0.661666 0.500000 -0.058532
C48   C     C_1   0.161673 0.338334 0.500000 -0.058532
C49   C     C_1   0.661673 0.161665 0.500000 -0.058418
C50   C     C_1   0.338326 0.838334 0.500000 -0.058418
C51   C     C_1   0.338326 0.161665 0.500000 -0.058528
C52   C     C_1   0.661673 0.838334 0.500000 -0.058528
C53   C     C_1   0.875848 0.375858 0.500000 -0.025774
C54   C     C_1   0.124152 0.624142 0.500000 -0.025775
C55   C     C_1   0.124152 0.375858 0.500000 -0.025925
C56   C     C_R   0.420409 0.079579 0.500000 0.549123
C57   C     C_1   0.875848 0.624142 0.500000 -0.025925
C58   C     C_1   0.375848 0.875858 0.500000 -0.025780
C59   C     C_1   0.624152 0.124142 0.500000 -0.025780
C60   C     C_1   0.624152 0.875858 0.500000 -0.025920
C61   C     C_1   0.375848 0.124142 0.500000 -0.025920
C62   C     C_R   0.420409 0.920421 0.500000 0.549149
C63   C     C_R   0.579591 0.079579 0.500000 0.549149
C64   C     C_R   0.997188 0.553235 0.952111 -0.110431
Cu1   Cu    Cu3+1 0.000000 0.500000 0.589220 0.991655
Cu2   Cu    Cu3+1 0.000000 0.500000 0.410780 0.991656
Cu3   Cu    Cu3+1 0.500000 1.000000 0.589220 0.991655
Cu4   Cu    Cu3+1 0.500000 1.000000 0.410780 0.991655
H1    H     H_    0.994982 0.594998 0.083553 0.110071
H2    H     H_    0.211057 0.711934 0.354002 0.112885
H3    H     H_    0.211938 0.711054 0.645998 0.112892
H4    H     H_    0.788942 0.288066 0.354002 0.112885
H5    H     H_    0.211830 0.288838 0.354001 0.112690
H6    H     H_    0.788835 0.711826 0.645999 0.112684
H7    H     H_    0.788170 0.711162 0.354001 0.112690
H8    H     H_    0.211165 0.288174 0.645999 0.112684
H9    H     H_    0.288943 0.788066 0.645998 0.112880
H10   H     H_    0.711938 0.211054 0.354002 0.112888
H11   H     H_    0.711057 0.211934 0.645998 0.112880
H12   H     H_    0.005018 0.405001 0.916447 0.110072
H13   H     H_    0.288062 0.788945 0.354002 0.112888
H14   H     H_    0.711165 0.788174 0.354001 0.112689
H15   H     H_    0.288170 0.211162 0.645999 0.112695
H16   H     H_    0.288835 0.211826 0.354001 0.112689
H17   H     H_    0.711830 0.788838 0.645999 0.112695
H18   H     H_    0.005018 0.405002 0.083553 0.110071
H19   H     H_    0.994982 0.594998 0.916447 0.110072
H20   H     H_    0.495398 0.095020 0.083553 0.110072
H21   H     H_    0.504602 0.904980 0.916447 0.110071
H22   H     H_    0.504602 0.904980 0.083553 0.110072
H23   H     H_    0.495398 0.095019 0.916447 0.110071
H24   H     H_    0.788062 0.288946 0.645998 0.112892
N1    N     N_1   0.000000 0.500000 0.276710 -0.192234
N2    N     N_1   0.000000 0.500000 0.723290 -0.192234
N3    N     N_1   0.500000 1.000000 0.276710 -0.192234
N4    N     N_1   0.500000 1.000000 0.723290 -0.192234
O1    O     O_R   0.059850 0.440160 0.575320 -0.489884
O2    O     O_R   0.440150 0.059840 0.424680 -0.489879
O3    O     O_R   0.440150 0.059840 0.575320 -0.489880
O4    O     O_R   0.559850 0.940160 0.424680 -0.489879
O5    O     O_R   0.440150 0.940160 0.424680 -0.489786
O6    O     O_R   0.559850 0.059840 0.575320 -0.489786
O7    O     O_R   0.559850 0.059840 0.424680 -0.489786
O8    O     O_R   0.440150 0.940160 0.575320 -0.489786
O9    O     O_R   0.940150 0.559840 0.424680 -0.489884
O10   O     O_R   0.940150 0.559840 0.575320 -0.489884
O11   O     O_R   0.059850 0.440160 0.424680 -0.489884
O12   O     O_R   0.940150 0.440160 0.424680 -0.489782
O13   O     O_R   0.059850 0.559840 0.575320 -0.489782
O14   O     O_R   0.059850 0.559840 0.424680 -0.489782
O15   O     O_R   0.940150 0.440160 0.575320 -0.489782
O16   O     O_R   0.559850 0.940160 0.575320 -0.489880

loop_
_geom_bond_atom_site_label_1
_geom_bond_atom_site_label_2
_ccdc_geom_bond_type
C58   C62   S    
C48   C55   T    
C45   C60   S    
C18   H7    S    
C9    C64   A    
C14   H3    S    
C51   C61   T    
Cu4   O7    S    
C56   O2    A    
Cu2   O11   S    
C45   O16   A    
C15   C32   A    
C7    C11   A    
C15   H4    S    
C8    C13   A    
C25   H9    S    
C19   H8    S    
C22   H11   S    
C5    C11   A    
C12   O9    A    
C21   C33   A    
C3    H12   S    
C27   C38   A    
C7    H21   S    
C30   C38   A    
C11   C42   S    
C30   H15   S    
Cu1   O15   S    
C52   C60   T    
C25   C37   A    
C20   C35   A    
C41   N1    T    
C43   N3    T    
C40   N2    T    
C14   C31   A    
C64   H19   S    
Cu3   O3    S    
C62   O5    A    
C39   C52   S    
C17   H2    S    
C10   C41   S    
C63   O6    A    
C35   C48   S    
C4    H1    S    
Cu3   O8    S    
C23   C53   S    
C62   O8    A    
C56   O3    A    
Cu4   N3    S    
C31   C44   S    
Cu3   Cu4   S    
C17   C24   A    
Cu4   O5    S    
C63   O7    A    
C1    O1    A    
C15   C26   A    
C38   C51   S    
C28   C39   A    
C6    H22   S    
C21   H6    S    
C9    C40   S    
C8    H20   S    
C50   C58   T    
C24   H13   S    
Cu4   O4    S    
C3    C9    A    
C47   C57   T    
C29   C39   A    
C24   C37   A    
C18   C29   A    
C26   H10   S    
Cu2   O14   S    
Cu1   O13   S    
C5    H23   S    
C1    O11   A    
Cu2   N1    S    
C12   C57   S    
C26   C36   A    
Cu1   N2    S    
C21   C28   A    
C16   H24   S    
Cu3   N4    S    
C33   C47   S    
C42   N4    T    
Cu2   O9    S    
C4    C10   A    
C2    C10   A    
Cu1   O10   S    
C13   C43   S    
C23   O15   A    
C27   H16   S    
C16   C22   A    
C32   C46   S    
Cu2   O12   S    
C45   O4    A    
C5    C8    A    
C34   C54   S    
C6    C7    A    
C20   C27   A    
C16   C32   A    
C22   C36   A    
C4    C64   A    
C59   C63   S    
C49   C59   T    
C2    C3    A    
C1    C55   S    
Cu1   O1    S    
C29   H14   S    
C19   C35   A    
C6    C13   A    
C12   O10   A    
C37   C50   S    
C17   C31   A    
C23   O12   A    
C46   C53   T    
C20   H5    S    
C2    H18   S    
C14   C25   A    
C18   C33   A    
Cu4   O2    S    
C44   C54   T    
Cu3   O16   S    
Cu1   Cu2   S    
C28   H17   S    
C34   O13   A    
C56   C61   S    
C34   O14   A    
C19   C30   A    
C36   C49   S    
Cu3   O6    S    
