data_mof_unit_60762.cif
_audit_creation_date              2012-12-10T20:11:10-0500
_audit_creation_method            fapswitch 2.2
_symmetry_space_group_name_H-M    P1
_symmetry_Int_Tables_number       1
_space_group_crystal_system       triclinic
_cell_length_a                    19.343873
_cell_length_b                    18.504492
_cell_length_c                    14.156981
_cell_angle_alpha                 89.985607
_cell_angle_beta                  90.76681
_cell_angle_gamma                 90.009176
_cell_volume                      5067.0166811

loop_
_atom_site_label
_atom_site_type_symbol
_atom_type_description
_atom_site_fract_x
_atom_site_fract_y
_atom_site_fract_z
_atom_type_partial_charge
C1    C     C_R   0.365671 0.499991 0.500843 0.862466
C2    C     C_R   0.634329 0.500009 0.499155 0.862467
C3    C     C_R   0.963754 0.545378 0.560889 -0.185657
C4    C     C_R   0.036245 0.454625 0.439090 -0.185657
C5    C     C_R   0.035366 0.545091 0.563571 -0.186570
C6    C     C_R   0.964634 0.454912 0.436407 -0.186571
C7    C     C_R   0.071742 0.499707 0.502683 0.107634
C8    C     C_R   0.928257 0.500296 0.497296 0.107634
C9    C     C_R   0.540566 0.726090 0.563796 0.322392
C10   C     C_R   0.459432 0.273910 0.436205 0.322392
C11   C     C_R   0.459422 0.726125 0.436228 0.322160
C12   C     C_R   0.540578 0.273875 0.563772 0.322161
C13   C     C_R   0.540034 0.802381 0.565647 -0.321987
C14   C     C_R   0.459963 0.197619 0.434355 -0.321981
C15   C     C_R   0.459956 0.802421 0.434455 -0.321371
C16   C     C_R   0.540042 0.197578 0.565546 -0.321375
C17   C     C_R   0.500002 0.841598 0.500054 0.044365
C18   C     C_R   0.499996 0.158402 0.499947 0.044365
C19   C     C_R   0.497517 0.962051 0.414757 -0.189182
C20   C     C_R   0.502481 0.037949 0.585244 -0.189181
C21   C     C_R   0.502500 0.962049 0.585273 -0.189145
C22   C     C_R   0.497498 0.037951 0.414728 -0.189146
C23   C     C_R   0.499982 0.077174 0.499971 0.156063
C24   C     C_R   0.500016 0.922826 0.500030 0.156063
C25   C     C_R   0.499840 0.500008 0.329007 0.899659
C26   C     C_R   0.500160 0.499992 0.670993 0.899661
C27   C     C_1   0.499796 0.500021 0.227611 -0.223858
C28   C     C_1   0.500203 0.499979 0.772388 -0.223855
C29   C     C_1   0.499828 0.500019 0.142415 -0.018014
C30   C     C_1   0.500172 0.499981 0.857585 -0.018014
C31   C     C_1   0.499941 0.500006 0.042599 0.001405
C32   C     C_1   0.500059 0.499993 0.957401 0.001404
C33   C     C_R   0.745663 0.434471 0.496117 -0.194882
C34   C     C_R   0.254337 0.565529 0.503872 -0.194882
C35   C     C_R   0.254463 0.434317 0.506095 -0.194295
C36   C     C_R   0.745536 0.565683 0.493895 -0.194294
C37   C     C_R   0.817261 0.434528 0.495751 -0.182008
C38   C     C_R   0.182739 0.565474 0.504232 -0.182011
C39   C     C_R   0.182867 0.434230 0.506405 -0.183011
C40   C     C_R   0.817133 0.565771 0.493578 -0.183012
C41   C     C_R   0.853141 0.500196 0.495203 0.120704
C42   C     C_R   0.146858 0.499806 0.504777 0.120705
C43   C     C_R   0.709444 0.500052 0.496538 -0.033191
C44   C     C_R   0.290556 0.499948 0.503455 -0.033190
H1    H     H_    0.718833 0.383238 0.496222 0.163289
H2    H     H_    0.281167 0.616762 0.503769 0.163293
H3    H     H_    0.281396 0.383159 0.508229 0.162551
H4    H     H_    0.718603 0.616841 0.491762 0.162548
H5    H     H_    0.844633 0.383457 0.497314 0.131175
H6    H     H_    0.155368 0.616545 0.502666 0.131175
H7    H     H_    0.155581 0.383129 0.508490 0.131423
H8    H     H_    0.844417 0.616872 0.491491 0.131423
H9    H     H_    0.936049 0.579961 0.609153 0.132953
H10   H     H_    0.063950 0.420041 0.390826 0.132952
H11   H     H_    0.062357 0.579553 0.613728 0.132855
H12   H     H_    0.937642 0.420450 0.386251 0.132855
H13   H     H_    0.571609 0.830865 0.617133 0.155452
H14   H     H_    0.428389 0.169135 0.382869 0.155454
H15   H     H_    0.428408 0.830960 0.382989 0.155725
H16   H     H_    0.571590 0.169040 0.617012 0.155724
H17   H     H_    0.496776 0.934065 0.347614 0.130388
H18   H     H_    0.503222 0.065935 0.652387 0.130388
H19   H     H_    0.503255 0.934061 0.652433 0.130366
H20   H     H_    0.496743 0.065939 0.347569 0.130366
N1    N     N_R   0.500000 0.689440 0.500000 -0.126697
N2    N     N_R   0.500000 0.310560 0.500000 -0.126698
O1    O     O_R   0.398180 0.560840 0.499980 -0.597638
O2    O     O_R   0.601820 0.439160 0.500020 -0.597636
O3    O     O_R   0.601820 0.560840 0.500020 -0.597470
O4    O     O_R   0.398180 0.439160 0.499980 -0.597471
O5    O     O_R   0.500000 0.560830 0.373710 -0.599909
O6    O     O_R   0.500000 0.439170 0.626290 -0.599904
O7    O     O_R   0.500000 0.560830 0.626290 -0.599089
O8    O     O_R   0.500000 0.439170 0.373710 -0.599096
Zn1   Zn    Zn3+2 0.500000 0.581210 0.500000 0.962704
Zn2   Zn    Zn3+2 0.500000 0.418790 0.500000 0.962704
N3    N     N_2   0.581407 0.686542 0.630015 -0.254846
H21   H     H_    0.557307 0.679450 0.693864 0.222141
C45   C     C_3   0.653021 0.708167 0.640373 -0.820556
H22   H     H_    0.682946 0.663334 0.673212 0.247383
H23   H     H_    0.657480 0.756366 0.686797 0.223559
H24   H     H_    0.675621 0.720579 0.570483 0.241165
N4    N     N_2   0.418592 0.313458 0.369987 -0.254846
H25   H     H_    0.442694 0.320558 0.306140 0.222146
C46   C     C_3   0.346978 0.291830 0.359622 -0.820563
H26   H     H_    0.317053 0.336662 0.326784 0.247383
H27   H     H_    0.324376 0.279414 0.429509 0.241166
H28   H     H_    0.342524 0.243633 0.313194 0.223561
N5    N     N_2   0.418641 0.686603 0.369907 -0.255378
H29   H     H_    0.443146 0.678784 0.306505 0.223053
C47   C     C_3   0.347284 0.708807 0.358281 -0.821822
H30   H     H_    0.317224 0.664025 0.325564 0.248046
H31   H     H_    0.343585 0.756707 0.311192 0.224215
H32   H     H_    0.324264 0.721900 0.427691 0.241281
N6    N     N_2   0.581359 0.313397 0.630093 -0.255377
H33   H     H_    0.556855 0.321209 0.693498 0.223048
C48   C     C_3   0.652717 0.291196 0.641712 -0.821814
H34   H     H_    0.682776 0.335978 0.674431 0.248045
H35   H     H_    0.675734 0.278108 0.572300 0.241280
H36   H     H_    0.656420 0.243294 0.688796 0.224213

loop_
_geom_bond_atom_site_label_1
_geom_bond_atom_site_label_2
_ccdc_geom_bond_type
C39   H7    S    
C27   C29   T    
C33   H1    S    
C14   C18   A    
N6    H33   S    
O6    Zn2   S    
C35   H3    S    
C48   H34   S    
C46   H26   S    
O8    Zn2   S    
N4    H25   S    
C38   C42   A    
C2    O2    A    
C13   H13   S    
C10   N4    S    
C26   O7    A    
C26   O6    A    
C25   O8    A    
C16   H16   S    
C7    C42   S    
C9    C13   A    
C11   C15   A    
C12   C16   A    
C12   N6    S    
C36   H4    S    
C34   H2    S    
N5    C47   S    
C2    O3    A    
N3    H21   S    
C10   N2    A    
C37   C41   A    
O7    Zn1   S    
C4    C7    A    
C48   H35   S    
C39   C42   A    
N3    C45   S    
C14   H14   S    
O5    Zn1   S    
C17   C24   S    
C46   H27   S    
C18   C23   S    
C33   C43   A    
C36   C40   A    
C19   C22   A    
C34   C44   A    
C8    C41   S    
C4    C6    A    
C3    C8    A    
C10   C14   A    
C47   H30   S    
C45   H23   S    
C6    C8    A    
C40   H8    S    
C12   N2    A    
C33   C37   A    
C35   C39   A    
C47   H31   S    
C37   H5    S    
C11   N5    S    
C1    C44   S    
C31   C32   T    
C20   C23   A    
C2    C43   S    
N2    Zn2   S    
C9    N3    S    
C35   C44   A    
C25   O5    A    
C40   C41   A    
N4    C46   S    
O4    Zn2   S    
C25   C27   S    
C48   H36   S    
C5    C7    A    
C46   H28   S    
C15   C17   A    
C4    H10   S    
C34   C38   A    
C15   H15   S    
C5    H11   S    
C6    H12   S    
C3    C5    A    
C45   H24   S    
N6    C48   S    
C38   H6    S    
O2    Zn2   S    
C26   C28   S    
C1    O4    A    
N1    Zn1   S    
C13   C17   A    
C28   C30   T    
C19   C24   A    
C29   C31   S    
C47   H32   S    
C30   C32   S    
C3    H9    S    
C19   H17   S    
C1    O1    A    
O3    Zn1   S    
C20   H18   S    
C9    N1    A    
C21   H19   S    
C22   H20   S    
C45   H22   S    
O1    Zn1   S    
C20   C21   A    
C16   C18   A    
C21   C24   A    
C22   C23   A    
C36   C43   A    
N5    H29   S    
C11   N1    A    
