data_mof_unit_46034.cif
_audit_creation_date              2012-12-11T16:29:28-0500
_audit_creation_method            fapswitch 2.2
_symmetry_space_group_name_H-M    P1
_symmetry_Int_Tables_number       1
_space_group_crystal_system       triclinic
_cell_length_a                    6.956809
_cell_length_b                    17.366712
_cell_length_c                    18.719325
_cell_angle_alpha                 106.28967
_cell_angle_beta                  89.805912
_cell_angle_gamma                 90.539126
_cell_volume                      2170.72364725

loop_
_atom_site_label
_atom_site_type_symbol
_atom_type_description
_atom_site_fract_x
_atom_site_fract_y
_atom_site_fract_z
_atom_type_partial_charge
O1    O     O_R   0.494360 0.415680 0.413760 -0.544088
O2    O     O_R   0.818810 0.432910 0.557230 -0.529260
O3    O     O_R   0.994290 0.584320 0.586240 -0.534588
C1    C     C_R   0.649868 0.416092 0.580719 0.704191
O4    O     O_R   0.823740 0.406440 0.412520 -0.516919
O5    O     O_R   0.999250 0.557660 0.440500 -0.502450
C2    C     C_R   0.654669 0.384572 0.384172 0.787110
O6    O     O_R   0.489400 0.442340 0.559500 -0.526077
O7    O     O_3   0.662500 0.549650 0.509350 -0.361407
V1    V     V_3+5 0.935340 0.490790 0.498270 1.460112
O8    O     O_R   0.329270 0.567090 0.442770 -0.537143
C3    C     C_R   0.161067 0.584325 0.419661 0.734536
O9    O     O_R   0.324340 0.593560 0.587480 -0.536559
C4    C     C_R   0.155535 0.616348 0.615088 0.688855
V2    V     V_3+5 0.435970 0.509210 0.501730 1.411671
O10   O     O_3   0.158940 0.450350 0.490650 -0.363374
H1    H     H_    0.367145 0.865825 0.563263 0.114977
C5    C     C_R   0.028378 0.593428 0.755065 -0.214414
C6    C     C_R   0.968662 0.579567 0.821666 0.459541
C7    C     C_R   0.952249 0.644007 0.885653 -0.212757
C8    C     C_R   0.001914 0.721345 0.883868 -0.205009
C9    C     C_R   0.065896 0.736714 0.817314 0.073969
C10   C     C_R   0.078825 0.671424 0.751471 0.007590
C11   C     C_R   0.120207 0.815260 0.815948 -0.167980
C12   C     C_R   0.188240 0.828249 0.748637 0.066007
C13   C     C_R   0.200547 0.762962 0.682723 0.071046
C14   C     C_R   0.145457 0.684538 0.684046 -0.158851
C15   C     C_R   0.241420 0.906025 0.745139 -0.142778
C16   C     C_R   0.306392 0.918965 0.678948 -0.120898
C17   C     C_R   0.317914 0.855340 0.614686 -0.118420
C18   C     C_R   0.264859 0.778245 0.616128 -0.138293
H2    H     H_    0.037848 0.541851 0.706773 0.125501
H3    H     H_    0.901914 0.634044 0.937162 0.127273
H4    H     H_    0.990629 0.768653 0.935453 0.125876
H5    H     H_    0.232187 0.957858 0.793177 0.106274
H6    H     H_    0.346745 0.978846 0.677426 0.117158
H7    H     H_    0.273826 0.731118 0.564326 0.099098
C19   C     C_1   0.111988 0.864267 0.132938 -0.220394
C20   C     C_1   0.119584 0.821963 0.176756 -0.005860
C21   C     C_1   0.129057 0.772071 0.228948 -0.004905
C22   C     C_1   0.137065 0.730005 0.272959 -0.013089
C23   C     C_1   0.146208 0.679878 0.324932 -0.032733
C24   C     C_1   0.153214 0.636943 0.368214 -0.205916
C25   C     C_1   0.641229 0.364357 0.632929 -0.198281
C26   C     C_1   0.636740 0.321886 0.676613 0.020406
C27   C     C_1   0.632986 0.271674 0.728523 -0.004577
C28   C     C_1   0.630530 0.229321 0.772323 -0.013244
C29   C     C_1   0.627495 0.178987 0.824135 -0.006550
C30   C     C_1   0.623594 0.136259 0.867601 -0.220180
H8    H     H_    0.350773 0.153151 0.439710 0.113517
C31   C     C_R   0.788816 0.400390 0.237899 0.405495
C32   C     C_R   0.875876 0.403733 0.171243 -0.188961
C33   C     C_R   0.875525 0.337367 0.109601 -0.202119
C34   C     C_R   0.789269 0.266317 0.113473 -0.137686
C35   C     C_R   0.709636 0.258529 0.180853 0.027044
C36   C     C_R   0.714833 0.325953 0.245625 -0.025601
C37   C     C_R   0.621762 0.185289 0.183491 -0.163033
C38   C     C_R   0.545659 0.177774 0.251519 0.075367
C39   C     C_R   0.558246 0.243250 0.317161 0.061170
C40   C     C_R   0.642510 0.317305 0.314553 -0.198753
C41   C     C_R   0.461381 0.104708 0.256089 -0.145051
C42   C     C_R   0.390583 0.096496 0.323244 -0.121280
C43   C     C_R   0.404220 0.160056 0.387454 -0.117069
C44   C     C_R   0.487873 0.232409 0.384896 -0.137692
H9    H     H_    0.938034 0.459601 0.166726 0.132906
H10   H     H_    0.938269 0.341566 0.057794 0.136524
H11   H     H_    0.786370 0.217736 0.062638 0.121126
H12   H     H_    0.450735 0.052741 0.208189 0.107783
H13   H     H_    0.326499 0.040198 0.325573 0.117211
H14   H     H_    0.497484 0.279239 0.436881 0.096867
O11   O     O_R   0.775690 0.057750 0.940570 -0.523772
O12   O     O_R   0.441200 0.093570 0.087490 -0.535042
O13   O     O_R   0.265840 0.942320 0.059480 -0.523770
C45   C     C_R   0.610355 0.116314 0.115172 0.692714
O14   O     O_R   0.446270 0.067110 0.942790 -0.527015
O15   O     O_R   0.270950 0.915660 0.913750 -0.532534
C46   C     C_R   0.615200 0.084144 0.919481 0.712022
O16   O     O_R   0.770580 0.084400 0.086300 -0.534262
O17   O     O_3   0.602640 0.950400 0.990690 -0.358063
V3    V     V_3+5 0.329740 0.009200 0.001730 1.415328
O18   O     O_R   0.940900 0.906360 0.912450 -0.534722
C47   C     C_R   0.109789 0.883551 0.884874 0.695513
O19   O     O_R   0.935830 0.932820 0.057160 -0.525714
C48   C     C_R   0.104007 0.915998 0.080648 0.711755
V4    V     V_3+5 0.829130 0.990680 0.998180 1.416629
O20   O     O_3   0.106100 0.049590 0.009310 -0.360072
O21   O     O_3   0.777290 0.471171 0.294384 -0.560912
C49   C     C_3   0.619056 0.515669 0.280653 0.067390
H15   H     H_    0.485229 0.494643 0.302121 0.129270
H16   H     H_    0.598044 0.510906 0.220449 0.106793
C50   C     C_3   0.651569 0.603835 0.320497 -0.665760
H17   H     H_    0.780765 0.625810 0.297373 0.216345
H18   H     H_    0.527699 0.639392 0.311308 0.175702
H19   H     H_    0.670660 0.612660 0.381117 0.233434
O22   O     O_3   0.916829 0.502791 0.822393 -0.554691
C51   C     C_3   0.064451 0.471143 0.857093 0.083463
H20   H     H_    0.073694 0.503826 0.917367 0.115777
H21   H     H_    0.206337 0.474501 0.830109 0.124670
C52   C     C_3   0.020391 0.383364 0.850015 -0.684858
H22   H     H_    0.015120 0.348712 0.790360 0.226149
H23   H     H_    0.134345 0.358136 0.878017 0.172979
H24   H     H_    0.879837 0.377617 0.876468 0.223288

loop_
_geom_bond_atom_site_label_1
_geom_bond_atom_site_label_2
_ccdc_geom_bond_type
C35   C36   A    
H8    C43   S    
O22   C51   S    
C22   C23   S    
C6    C7    A    
O17   V4    S    
C1    O6    A    
O18   C47   A    
V4    O20   S    
C25   C26   T    
C12   C15   A    
C16   H6    S    
C39   C44   A    
C16   C17   A    
C15   C16   A    
C31   C36   A    
C3    C24   S    
O5    C3    A    
C17   C18   A    
V2    O10   S    
C51   C52   S    
C5    C6    A    
C11   C47   S    
V3    O20   S    
C27   C28   T    
O8    V2    S    
O19   C48   A    
C15   H5    S    
C51   H21   S    
O1    V2    S    
C44   H14   S    
C4    C14   S    
O7    V1    S    
O13   C48   A    
C38   C41   A    
C13   C18   A    
O11   V4    S    
O9    C4    A    
H1    C17   S    
C31   C32   A    
C11   C12   A    
O12   C45   A    
O15   C47   A    
C50   H17   S    
O4    C2    A    
C34   H11   S    
C1    C25   S    
C38   C39   A    
C26   C27   S    
C5    C10   A    
C42   H13   S    
C37   C45   S    
O2    C1    A    
C42   C43   A    
C50   H18   S    
C28   C29   S    
C49   C50   S    
C51   H20   S    
C13   C14   A    
C7    C8    A    
C33   H10   S    
O14   C46   A    
O3    C4    A    
C7    H3    S    
O16   V4    S    
C29   C30   T    
O19   V4    S    
C49   H16   S    
O6    V2    S    
C10   C14   A    
C35   C37   A    
C9    C11   A    
O17   V3    S    
C5    H2    S    
C23   C24   T    
C31   O21   S    
O2    V1    S    
C2    C40   S    
O11   C46   A    
C6    O22   S    
C32   C33   A    
O14   V3    S    
C34   C35   A    
C21   C22   T    
C19   C48   S    
O1    C2    A    
O15   V3    S    
O5    V1    S    
O8    C3    A    
C33   C34   A    
C8    H4    S    
C52   H22   S    
O9    V2    S    
C12   C13   A    
O4    V1    S    
O12   V3    S    
O3    V1    S    
V1    O10   S    
C50   H19   S    
C41   H12   S    
C37   C38   A    
C19   C20   T    
O13   V3    S    
C30   C46   S    
O7    V2    S    
C41   C42   A    
C43   C44   A    
C20   C21   S    
C18   H7    S    
C39   C40   A    
C52   H24   S    
C36   C40   A    
C49   H15   S    
O21   C49   S    
C45   O16   A    
C9    C10   A    
C8    C9    A    
C52   H23   S    
O18   V4    S    
C32   H9    S    
