data_mof_unit_62084.cif
_audit_creation_date              2012-10-26T19:17:28-0400
_audit_creation_method            fapswitch 2.2
_symmetry_space_group_name_H-M    P1
_symmetry_Int_Tables_number       1
_space_group_crystal_system       triclinic
_cell_length_a                    14.354545
_cell_length_b                    15.802447
_cell_length_c                    17.126003
_cell_angle_alpha                 96.263283
_cell_angle_beta                  90.306992
_cell_angle_gamma                 92.106596
_cell_volume                      3858.84048435

loop_
_atom_site_label
_atom_site_type_symbol
_atom_type_description
_atom_site_fract_x
_atom_site_fract_y
_atom_site_fract_z
_atom_type_partial_charge
C1    C     C_R   0.499338 0.489670 0.348520 0.552995
C2    C     C_R   0.550530 0.161152 0.535828 0.082904
C3    C     C_R   0.507439 0.890884 0.518746 0.225744
C4    C     C_R   0.492561 0.109116 0.481253 0.225744
C5    C     C_R   0.564914 0.850037 0.568484 -0.140159
C6    C     C_R   0.435086 0.149963 0.431515 -0.140159
C7    C     C_R   0.565847 0.760748 0.562885 0.014889
C8    C     C_R   0.434152 0.239252 0.437115 0.014889
C9    C     C_R   0.330888 0.500240 0.499950 0.548526
C10   C     C_R   0.669112 0.499760 0.500049 0.548526
C11   C     C_1   0.228644 0.500670 0.499968 -0.028333
C12   C     C_R   0.500662 0.510330 0.651479 0.552995
C13   C     C_1   0.771356 0.499330 0.500032 -0.028333
C14   C     C_1   0.143285 0.500581 0.499978 -0.026137
C15   C     C_1   0.856715 0.499418 0.500022 -0.026137
C16   C     C_1   0.042686 0.500196 0.499993 0.015239
C17   C     C_1   0.957314 0.499804 0.500007 0.015239
C18   C     C_R   0.498835 0.484266 0.262510 0.004593
C19   C     C_R   0.501165 0.515734 0.737490 0.004593
C20   C     C_R   0.501758 0.558985 0.225134 -0.150085
C21   C     C_R   0.498242 0.441014 0.774866 -0.150085
C22   C     C_R   0.501536 0.554347 0.143632 -0.080040
C23   C     C_R   0.495224 0.400059 0.135371 -0.102823
C24   C     C_R   0.498464 0.445653 0.856368 -0.080040
C25   C     C_R   0.498352 0.474363 0.097918 0.228048
C26   C     C_R   0.501648 0.525637 0.902082 0.228048
C27   C     C_R   0.504776 0.599941 0.864629 -0.102823
C28   C     C_R   0.495451 0.404701 0.217049 -0.147427
C29   C     C_R   0.504549 0.595299 0.782951 -0.147427
C30   C     C_R   0.453327 0.749688 0.460716 0.047862
C31   C     C_R   0.546673 0.250312 0.539284 0.047862
C32   C     C_R   0.449470 0.838848 0.464172 0.082904
Cu1   Cu    Cu3+1 0.495850 0.415220 0.496180 0.947950
Cu2   Cu    Cu3+1 0.504150 0.584780 0.503820 0.947949
H1    H     H_    0.495753 0.378805 0.741213 0.142422
H2    H     H_    0.408272 0.709907 0.419971 0.149662
H3    H     H_    0.608725 0.887493 0.612005 0.144480
H4    H     H_    0.391275 0.112507 0.387994 0.144479
H5    H     H_    0.610019 0.730356 0.602032 0.132768
H6    H     H_    0.389981 0.269644 0.397968 0.132768
H7    H     H_    0.504247 0.621194 0.258786 0.142422
H8    H     H_    0.496115 0.386660 0.883162 0.145641
H9    H     H_    0.503884 0.613340 0.116838 0.145641
H10   H     H_    0.492688 0.338273 0.100974 0.127407
H11   H     H_    0.507312 0.661727 0.899025 0.127407
H12   H     H_    0.493053 0.346068 0.244474 0.136706
H13   H     H_    0.506947 0.653932 0.755525 0.136705
H14   H     H_    0.591728 0.290093 0.580028 0.149662
I1    I     I_    0.652590 0.114307 0.608847 -0.352998
I2    I     I_    0.347410 0.885693 0.391152 -0.352998
N1    N     N_2   0.498179 0.465567 0.014644 -0.245184
N2    N     N_2   0.501821 0.534433 0.985356 -0.245184
N3    N     N_R   0.510380 0.712130 0.509560 -0.235714
N4    N     N_R   0.489620 0.287870 0.490440 -0.235713
N5    N     N_2   0.505719 0.982223 0.530451 -0.177853
N6    N     N_2   0.494281 0.017777 0.469549 -0.177853
O1    O     O_R   0.496120 0.420530 0.382500 -0.500450
O2    O     O_R   0.503880 0.579470 0.617500 -0.500450
O3    O     O_R   0.503120 0.563720 0.388950 -0.503121
O4    O     O_R   0.496880 0.436280 0.611050 -0.503121
O5    O     O_R   0.372550 0.428390 0.496770 -0.477606
O6    O     O_R   0.627450 0.571610 0.503230 -0.477607
O7    O     O_R   0.379550 0.571580 0.503220 -0.479905
O8    O     O_R   0.620450 0.428420 0.496780 -0.479905

loop_
_geom_bond_atom_site_label_1
_geom_bond_atom_site_label_2
_ccdc_geom_bond_type
C2    C4    A    
N5    N6    D    
C6    H4    S    
C26   N2    S    
C21   H1    S    
C2    I1    S    
C5    H3    S    
C27   C29   A    
C24   H8    S    
C10   O8    A    
C22   H9    S    
C30   H2    S    
C12   O2    A    
C27   H11   S    
C25   N1    S    
C20   H7    S    
C1    C18   S    
C5    C7    A    
Cu1   O1    S    
Cu2   O2    S    
C23   C28   A    
C4    N6    S    
C30   C32   A    
C9    C11   S    
C28   H12   S    
C26   C27   A    
C10   O6    A    
C29   H13   S    
Cu1   O8    S    
C9    O5    A    
C12   C19   S    
C4    C6    A    
Cu2   O7    S    
C30   N3    A    
C1    O3    A    
C24   C26   A    
Cu1   Cu2   S    
Cu1   O4    S    
C18   C20   A    
C31   H14   S    
C13   C15   T    
C31   N4    A    
C3    C32   A    
C11   C14   T    
C14   C16   S    
C7    N3    A    
N1    N2    D    
C19   C29   A    
Cu2   O6    S    
C23   C25   A    
C18   C28   A    
Cu2   N3    S    
Cu1   O5    S    
C21   C24   A    
C8    N4    A    
Cu1   N4    S    
C15   C17   S    
C7    H5    S    
C16   C17   T    
C6    C8    A    
C8    H6    S    
C19   C21   A    
C9    O7    A    
Cu2   O3    S    
C3    N5    S    
C22   C25   A    
C12   O4    A    
C32   I2    S    
C23   H10   S    
C20   C22   A    
C2    C31   A    
C3    C5    A    
C10   C13   S    
C1    O1    A    
