data_mof_unit_62461.cif
_audit_creation_date              2013-03-05T16:37:08-0500
_audit_creation_method            fapswitch 2.2
_symmetry_space_group_name_H-M    P1
_symmetry_Int_Tables_number       1
_space_group_crystal_system       triclinic
_cell_length_a                    36.252728
_cell_length_b                    25.728247
_cell_length_c                    25.691328
_cell_angle_alpha                 89.999989
_cell_angle_beta                  89.999665
_cell_angle_gamma                 89.991476
_cell_volume                      23962.7931025

loop_
_atom_site_label
_atom_site_type_symbol
_atom_site_description
_atom_site_fract_x
_atom_site_fract_y
_atom_site_fract_z
_atom_type_partial_charge
Zn1   Zn    Zn3+2 0.719300 0.249980 0.438970 1.000532
Zn2   Zn    Zn3+2 0.280700 0.249980 0.438970 0.992603
Zn3   Zn    Zn3+2 0.280700 0.249980 0.561030 0.999832
Zn4   Zn    Zn3+2 0.719300 0.249980 0.561030 0.992523
Zn5   Zn    Zn3+2 0.219300 0.749980 0.938970 0.999831
Zn6   Zn    Zn3+2 0.780700 0.749980 0.938970 0.991821
Zn7   Zn    Zn3+2 0.780700 0.749980 0.061030 1.000558
Zn8   Zn    Zn3+2 0.219300 0.749980 0.061030 0.993329
Zn9   Zn    Zn3+2 0.780720 0.311020 0.500000 0.994591
Zn10  Zn    Zn3+2 0.219280 0.311020 0.500000 0.992944
Zn11  Zn    Zn3+2 0.280720 0.811020 0.000000 0.994614
Zn12  Zn    Zn3+2 0.719280 0.811020 0.000000 0.992842
Zn13  Zn    Zn3+2 0.780730 0.188950 0.500000 1.018309
Zn14  Zn    Zn3+2 0.219270 0.188950 0.500000 1.028076
Zn15  Zn    Zn3+2 0.280730 0.688950 0.000000 1.018216
Zn16  Zn    Zn3+2 0.719270 0.688950 0.000000 1.028163
O1    O     O_3   0.750020 0.249980 0.500000 -0.494587
O2    O     O_3   0.249980 0.249980 0.500000 -0.495728
O3    O     O_3   0.250020 0.749980 0.000000 -0.494601
O4    O     O_3   0.749980 0.749980 0.000000 -0.495704
O5    O     O_R   0.728520 0.310110 0.602800 -0.631698
O6    O     O_R   0.271480 0.310110 0.602800 -0.630544
O7    O     O_R   0.271480 0.310110 0.397200 -0.631525
O8    O     O_R   0.728520 0.310110 0.397200 -0.630659
O9    O     O_R   0.228520 0.810110 0.102800 -0.631555
O10   O     O_R   0.771480 0.810110 0.102800 -0.630715
O11   O     O_R   0.771480 0.810110 0.897200 -0.631757
O12   O     O_R   0.228520 0.810110 0.897200 -0.630600
O13   O     O_R   0.728520 0.189860 0.397190 -0.638984
O14   O     O_R   0.271480 0.189860 0.397190 -0.641040
O15   O     O_R   0.271480 0.189860 0.602810 -0.639865
O16   O     O_R   0.728520 0.189860 0.602810 -0.640486
O17   O     O_R   0.228520 0.689860 0.897190 -0.639494
O18   O     O_R   0.771480 0.689860 0.897190 -0.641207
O19   O     O_R   0.771480 0.689860 0.102810 -0.639439
O20   O     O_R   0.228520 0.689860 0.102810 -0.640316
O21   O     O_R   0.771490 0.352810 0.439870 -0.632160
O22   O     O_R   0.228510 0.352810 0.439870 -0.631784
O23   O     O_R   0.228510 0.352810 0.560130 -0.632326
O24   O     O_R   0.771490 0.352810 0.560130 -0.631813
O25   O     O_R   0.271490 0.852810 0.939870 -0.632251
O26   O     O_R   0.728510 0.852810 0.939870 -0.631876
O27   O     O_R   0.728510 0.852810 0.060130 -0.632140
O28   O     O_R   0.271490 0.852810 0.060130 -0.631704
O29   O     O_R   0.771530 0.147160 0.560090 -0.614749
O30   O     O_R   0.228470 0.147160 0.560090 -0.613641
O31   O     O_R   0.228470 0.147160 0.439910 -0.612991
O32   O     O_R   0.771530 0.147160 0.439910 -0.615280
O33   O     O_R   0.271530 0.647160 0.060090 -0.614615
O34   O     O_R   0.728470 0.647160 0.060090 -0.613424
O35   O     O_R   0.728470 0.647160 0.939910 -0.613133
O36   O     O_R   0.271530 0.647160 0.939910 -0.615163
O37   O     O_R   0.832000 0.292700 0.500000 -0.635404
O38   O     O_R   0.168000 0.292700 0.500000 -0.641636
O39   O     O_R   0.332000 0.792700 0.000000 -0.635391
O40   O     O_R   0.668000 0.792700 0.000000 -0.641621
O41   O     O_R   0.668030 0.249990 0.542720 -0.636411
O42   O     O_R   0.331970 0.249990 0.542720 -0.623205
O43   O     O_R   0.331970 0.249990 0.457280 -0.636155
O44   O     O_R   0.668030 0.249990 0.457280 -0.622874
O45   O     O_R   0.168030 0.749990 0.042720 -0.635614
O46   O     O_R   0.831970 0.749990 0.042720 -0.622678
O47   O     O_R   0.831970 0.749990 0.957280 -0.636891
O48   O     O_R   0.168030 0.749990 0.957280 -0.623468
O49   O     O_R   0.832010 0.207260 0.500000 -0.628620
O50   O     O_R   0.167990 0.207260 0.500000 -0.614005
O51   O     O_R   0.332010 0.707260 0.000000 -0.628784
O52   O     O_R   0.667990 0.707260 0.000000 -0.614121
C1    C     C_R   0.749979 0.349010 0.599060 0.828562
C2    C     C_R   0.250020 0.349014 0.599059 0.828202
C3    C     C_R   0.250019 0.349012 0.400940 0.828821
C4    C     C_R   0.749979 0.349010 0.400940 0.827993
C5    C     C_R   0.249979 0.849010 0.099060 0.828631
C6    C     C_R   0.750019 0.849012 0.099060 0.828103
C7    C     C_R   0.750019 0.849013 0.900940 0.828678
C8    C     C_R   0.249979 0.849010 0.900940 0.828088
C9    C     C_R   0.750011 0.150955 0.400975 0.819646
C10   C     C_R   0.249990 0.150958 0.400975 0.819413
C11   C     C_R   0.249990 0.150958 0.599025 0.818776
C12   C     C_R   0.750012 0.150955 0.599025 0.820026
C13   C     C_R   0.250013 0.650956 0.900974 0.819410
C14   C     C_R   0.749990 0.650958 0.900974 0.819323
C15   C     C_R   0.749990 0.650958 0.099025 0.819211
C16   C     C_R   0.250011 0.650955 0.099024 0.820121
C17   C     C_R   0.849510 0.249960 0.500002 0.831543
C18   C     C_R   0.150489 0.249977 0.500002 0.823260
C19   C     C_R   0.349510 0.749960 0.999997 0.831365
C20   C     C_R   0.650489 0.749977 0.999997 0.823159
C21   C     C_R   0.650325 0.249998 0.500000 0.824733
C22   C     C_R   0.349675 0.249999 0.499999 0.824540
C23   C     C_R   0.150325 0.750000 0.000000 0.824719
C24   C     C_R   0.849675 0.749999 0.999999 0.824798
C25   C     C_3   0.521532 0.222999 0.550497 0.167558
C26   C     C_3   0.478327 0.221673 0.549540 0.258418
C27   C     C_3   0.478473 0.219937 0.451257 0.167593
C28   C     C_3   0.521679 0.218670 0.452295 0.258426
C29   C     C_3   0.021533 0.716158 0.046196 0.167602
C30   C     C_3   0.978329 0.714956 0.045043 0.258489
C31   C     C_3   0.978473 0.727142 0.947506 0.167425
C32   C     C_3   0.021677 0.725715 0.948365 0.258383
H1    H     H_    0.469171 0.180236 0.548034 0.022174
H2    H     H_    0.531485 0.181908 0.551787 0.037741
H3    H     H_    0.530842 0.177404 0.456362 0.021896
H4    H     H_    0.468527 0.178847 0.452509 0.037419
H5    H     H_    0.969186 0.674146 0.037660 0.021469
H6    H     H_    0.031499 0.675303 0.041681 0.037092
H7    H     H_    0.030828 0.684283 0.946569 0.022517
H8    H     H_    0.968514 0.686296 0.942903 0.038284
C33   C     C_1   0.389325 0.249889 0.499995 -0.124879
C34   C     C_1   0.610675 0.249887 0.500006 -0.124962
C35   C     C_1   0.889326 0.749893 0.999992 -0.124885
C36   C     C_1   0.110675 0.749890 0.000002 -0.124901
C37   C     C_3   0.536547 0.249455 0.500116 0.088352
C38   C     C_3   0.463453 0.249451 0.499906 0.088361
C39   C     C_3   0.036547 0.749451 0.000059 0.088271
C40   C     C_3   0.963453 0.749475 0.999851 0.088276
C41   C     C_3   0.478610 0.305891 0.498914 -0.325255
C42   C     C_3   0.521379 0.305850 0.497615 -0.325202
C43   C     C_3   0.978610 0.805487 0.006876 -0.325072
C44   C     C_3   0.021379 0.805634 0.005556 -0.325129
C45   C     C_1   0.422633 0.249731 0.499967 0.004664
C46   C     C_1   0.577367 0.249731 0.500039 0.004716
C47   C     C_1   0.922633 0.749743 0.999949 0.004672
C48   C     C_1   0.077367 0.749733 0.000020 0.004781
H9    H     H_    0.532119 0.329053 0.530872 0.211724
H10   H     H_    0.468923 0.327531 0.533833 0.222182
H11   H     H_    0.467866 0.327000 0.464285 0.212063
H12   H     H_    0.531063 0.325294 0.461424 0.222535
H13   H     H_    0.032131 0.823927 0.041747 0.212357
H14   H     H_    0.968936 0.821958 0.044525 0.222908
H15   H     H_    0.967854 0.831289 0.975606 0.211438
H16   H     H_    0.031049 0.829977 0.972462 0.222043
C49   C     C_R   0.227770 0.502890 0.707125 -0.204119
C50   C     C_R   0.773525 0.501549 0.708453 -0.203961
C51   C     C_R   0.774046 0.500968 0.290964 -0.203576
C52   C     C_R   0.225216 0.500109 0.290088 -0.203803
C53   C     C_R   0.725423 0.000361 0.209660 -0.203844
C54   C     C_R   0.274347 0.000619 0.209385 -0.203657
C55   C     C_R   0.273959 0.001068 0.791064 -0.203799
C56   C     C_R   0.725770 0.000772 0.790752 -0.204098
H17   H     H_    0.209933 0.505863 0.673365 0.202504
H18   H     H_    0.792419 0.503429 0.675778 0.202467
H19   H     H_    0.793366 0.502375 0.323165 0.202597
H20   H     H_    0.205293 0.500813 0.321573 0.202455
H21   H     H_    0.705669 0.001271 0.177970 0.202466
H22   H     H_    0.293913 0.001740 0.177470 0.202533
H23   H     H_    0.293208 0.002555 0.823345 0.202499
H24   H     H_    0.706299 0.002016 0.822778 0.202381
C57   C     C_R   0.251171 0.460079 0.712509 -0.106928
C58   C     C_R   0.748731 0.460174 0.712414 -0.106727
C59   C     C_R   0.748694 0.460216 0.287628 -0.106995
C60   C     C_R   0.251359 0.460282 0.287695 -0.106760
C61   C     C_R   0.751343 0.960263 0.212324 -0.106913
C62   C     C_R   0.248671 0.960242 0.212346 -0.106773
C63   C     C_R   0.248699 0.960210 0.787622 -0.106938
C64   C     C_R   0.751319 0.960235 0.787647 -0.106697
C65   C     C_R   0.274572 0.455943 0.756562 0.348068
C66   C     C_R   0.723944 0.457472 0.755045 0.347665
C67   C     C_R   0.723349 0.458135 0.245619 0.347897
C68   C     C_R   0.277495 0.459122 0.246625 0.347889
C69   C     C_R   0.777257 0.958833 0.253664 0.347997
C70   C     C_R   0.223003 0.958535 0.253980 0.347629
C71   C     C_R   0.223446 0.958024 0.745508 0.348040
C72   C     C_R   0.776862 0.958366 0.745868 0.347925
C73   C     C_R   0.776406 0.998503 0.291960 0.419133
C74   C     C_R   0.223848 0.998218 0.292263 0.419498
C75   C     C_R   0.224276 0.997724 0.707242 0.419416
C76   C     C_R   0.776024 0.998051 0.707586 0.419124
C77   C     C_R   0.273811 0.495710 0.794760 0.418988
C78   C     C_R   0.724757 0.497191 0.793292 0.419366
C79   C     C_R   0.724182 0.497831 0.207349 0.419519
C80   C     C_R   0.276635 0.498782 0.208319 0.419278
C81   C     C_R   0.750059 0.038629 0.288629 -0.122688
C82   C     C_R   0.249947 0.038629 0.288630 -0.122816
C83   C     C_R   0.249951 0.038624 0.711365 -0.122949
C84   C     C_R   0.750055 0.038625 0.711366 -0.122500
C85   C     C_R   0.250028 0.538596 0.788663 -0.122730
C86   C     C_R   0.749957 0.538616 0.788642 -0.122749
C87   C     C_R   0.749951 0.538623 0.211364 -0.123065
C88   C     C_R   0.250062 0.538633 0.211374 -0.122575
C89   C     C_R   0.724336 0.039583 0.247117 0.390031
C90   C     C_R   0.275425 0.039856 0.246826 0.389774
C91   C     C_R   0.275017 0.040327 0.753645 0.389953
C92   C     C_R   0.724700 0.040013 0.753315 0.389775
C93   C     C_R   0.226797 0.542232 0.744460 0.389822
C94   C     C_R   0.774563 0.540830 0.745849 0.389632
C95   C     C_R   0.775110 0.540222 0.253540 0.390024
C96   C     C_R   0.224120 0.539319 0.252619 0.389903
C97   C     C_1   0.250518 0.421069 0.672152 -0.001688
C98   C     C_1   0.749424 0.421117 0.672103 -0.001891
C99   C     C_1   0.749404 0.421139 0.327920 -0.001476
C100  C     C_1   0.250623 0.421179 0.327959 -0.001774
C101  C     C_1   0.750613 0.921169 0.172051 -0.001628
C102  C     C_1   0.249391 0.921153 0.172066 -0.001744
C103  C     C_1   0.249407 0.921136 0.827917 -0.001471
C104  C     C_1   0.750600 0.921153 0.827933 -0.001925
C105  C     C_1   0.749964 0.078445 0.328331 0.070074
C106  C     C_1   0.250043 0.078450 0.328328 0.070273
C107  C     C_1   0.250043 0.078449 0.671671 0.070418
C108  C     C_1   0.749962 0.078444 0.671668 0.069686
C109  C     C_1   0.249953 0.578435 0.828342 0.069736
C110  C     C_1   0.750046 0.578446 0.828331 0.070016
C111  C     C_1   0.750044 0.578448 0.171670 0.070689
C112  C     C_1   0.249964 0.578447 0.171670 0.069957
C113  C     C_1   0.749982 0.111564 0.361512 -0.109388
C114  C     C_1   0.250023 0.111569 0.361508 -0.108963
C115  C     C_1   0.250023 0.111569 0.638492 -0.107994
C116  C     C_1   0.749982 0.111563 0.638488 -0.110742
C117  C     C_1   0.249979 0.611560 0.861515 -0.109796
C118  C     C_1   0.750024 0.611568 0.861509 -0.109331
C119  C     C_1   0.750023 0.611568 0.138491 -0.107519
C120  C     C_1   0.249983 0.611564 0.138488 -0.110358
C121  C     C_1   0.250142 0.388312 0.638617 -0.127815
C122  C     C_1   0.749830 0.388329 0.638599 -0.128750
C123  C     C_1   0.749821 0.388338 0.361411 -0.127555
C124  C     C_1   0.250188 0.388358 0.361429 -0.128771
C125  C     C_1   0.750184 0.888354 0.138575 -0.127801
C126  C     C_1   0.249815 0.888344 0.138584 -0.128595
C127  C     C_1   0.249823 0.888337 0.861409 -0.127533
C128  C     C_1   0.750178 0.888348 0.861418 -0.128925
H25   H     H_    0.965845 0.330292 0.503015 0.180964
H26   H     H_    0.033374 0.331055 0.503053 0.182083
H27   H     H_    0.465845 0.830223 0.995555 0.180973
H28   H     H_    0.533374 0.830985 0.995499 0.182092
C129  C     C_R   0.018956 0.294184 0.501615 -0.272859
C130  C     C_R   0.980637 0.293700 0.501591 -0.202822
C131  C     C_R   0.518955 0.794147 0.997619 -0.272876
C132  C     C_R   0.480637 0.793663 0.997655 -0.202840
C133  C     C_R   0.038552 0.247542 0.499810 0.020438
C134  C     C_R   0.961477 0.246596 0.499762 -0.003427
C135  C     C_R   0.538551 0.747545 0.000279 0.020442
C136  C     C_R   0.461478 0.746601 0.000350 -0.003423
C137  C     C_R   0.020030 0.199605 0.497941 0.451551
C138  C     C_R   0.980960 0.198723 0.497900 0.344309
C139  C     C_R   0.520030 0.699651 0.003034 0.451494
C140  C     C_R   0.480960 0.698770 0.003096 0.344237
C141  C     C_1   0.078071 0.249098 0.499899 0.067398
C142  C     C_1   0.921925 0.248609 0.499868 -0.036474
C143  C     C_1   0.578071 0.749099 0.000148 0.067330
C144  C     C_1   0.421925 0.748611 0.000195 -0.036568
C145  C     C_1   0.888822 0.249692 0.499943 -0.121264
C146  C     C_1   0.111174 0.249827 0.499957 -0.108296
C147  C     C_1   0.388823 0.749693 0.000084 -0.121382
C148  C     C_1   0.611174 0.749827 0.000063 -0.108376
O53   O     O_3   0.536586 0.239168 0.406040 -0.672528
H29   H     H_    0.533671 0.212012 0.378887 0.363164
O54   O     O_3   0.465810 0.243627 0.405149 -0.684144
H30   H     H_    0.440980 0.229179 0.397668 0.340757
O55   O     O_3   0.463417 0.244987 0.594438 -0.672773
H31   H     H_    0.466337 0.219558 0.623220 0.363283
O56   O     O_3   0.534191 0.249484 0.595052 -0.684436
H32   H     H_    0.559022 0.235516 0.603416 0.340907
O57   O     O_3   0.036597 0.752509 0.905469 -0.672802
H33   H     H_    0.033673 0.729450 0.874752 0.363467
O58   O     O_3   0.965824 0.757132 0.905226 -0.684550
H34   H     H_    0.940986 0.743914 0.895770 0.341084
O59   O     O_3   0.963404 0.731663 0.092794 -0.672547
H35   H     H_    0.966333 0.702417 0.117674 0.362818
O60   O     O_3   0.034176 0.736118 0.094050 -0.684026
H36   H     H_    0.059018 0.721147 0.100359 0.340464
O61   O     O_3   0.697715 0.077639 0.241256 -0.728507
H37   H     H_    0.699450 0.103297 0.269788 0.345577
O62   O     O_3   0.301796 0.078199 0.240660 -0.729195
H38   H     H_    0.300078 0.103841 0.269209 0.344829
O63   O     O_3   0.300960 0.079164 0.760305 -0.728581
H39   H     H_    0.299269 0.104774 0.731724 0.345472
O64   O     O_3   0.698460 0.078520 0.759629 -0.729520
H40   H     H_    0.700170 0.104150 0.731067 0.344826
O65   O     O_3   0.202763 0.583075 0.735806 -0.728691
H41   H     H_    0.204332 0.608554 0.764518 0.345495
O66   O     O_3   0.800027 0.580198 0.738656 -0.729590
H42   H     H_    0.798367 0.605774 0.767272 0.344751
O67   O     O_3   0.801148 0.578950 0.260091 -0.728036
H43   H     H_    0.799452 0.604567 0.231516 0.345702
O68   O     O_3   0.197269 0.577097 0.258202 -0.729080
H44   H     H_    0.199019 0.602773 0.229688 0.344931
O69   O     O_3   0.298284 0.414347 0.763801 -0.755858
H45   H     H_    0.296244 0.389415 0.734677 0.359035
O70   O     O_3   0.698820 0.417331 0.760842 -0.756560
H46   H     H_    0.700969 0.392283 0.731833 0.358406
O71   O     O_3   0.697659 0.418625 0.240455 -0.755516
H47   H     H_    0.699854 0.393526 0.269414 0.359058
O72   O     O_3   0.303986 0.420550 0.242416 -0.756584
H48   H     H_    0.301727 0.395380 0.271303 0.358388
O73   O     O_3   0.803522 0.919986 0.258147 -0.755841
H49   H     H_    0.801280 0.894837 0.229240 0.358985
O74   O     O_3   0.196985 0.919405 0.258764 -0.756506
H50   H     H_    0.199206 0.894277 0.229835 0.358412
O75   O     O_3   0.197851 0.918407 0.740237 -0.755445
H51   H     H_    0.200038 0.893317 0.769204 0.359104
O76   O     O_3   0.802752 0.919074 0.740938 -0.756697
H52   H     H_    0.800542 0.893963 0.769882 0.358355
O77   O     O_3   0.800921 0.999368 0.333295 -0.721582
H53   H     H_    0.817892 0.969324 0.331236 0.395217
O78   O     O_3   0.199566 0.998822 0.333876 -0.719930
H54   H     H_    0.182755 0.968595 0.332012 0.395384
O79   O     O_3   0.200386 0.997875 0.665177 -0.719983
H55   H     H_    0.183848 0.967333 0.666725 0.395511
O80   O     O_3   0.800188 0.998502 0.665836 -0.721656
H56   H     H_    0.816915 0.968170 0.667604 0.395080
O81   O     O_3   0.295951 0.494018 0.838659 -0.721613
H57   H     H_    0.311269 0.462194 0.838385 0.395170
O82   O     O_3   0.701307 0.496854 0.835847 -0.720141
H58   H     H_    0.685075 0.465973 0.834640 0.395332
O83   O     O_3   0.700205 0.498081 0.165383 -0.719769
H59   H     H_    0.683606 0.467608 0.167000 0.395546
O84   O     O_3   0.301360 0.499903 0.167239 -0.721450
H60   H     H_    0.318477 0.470037 0.169475 0.395150
O85   O     O_3   0.040960 0.154638 0.496200 -0.733223
H61   H     H_    0.024646 0.123836 0.494997 0.394640
O86   O     O_3   0.963267 0.151051 0.496045 -0.760250
H62   H     H_    0.936205 0.155695 0.496193 0.359384
O87   O     O_3   0.540960 0.654724 0.005601 -0.733341
H63   H     H_    0.524646 0.623949 0.007374 0.394607
O88   O     O_3   0.463268 0.651140 0.005830 -0.760386
H64   H     H_    0.436205 0.655781 0.005612 0.359318

loop_
_geom_bond_atom_site_label_1
_geom_bond_atom_site_label_2
_geom_bond_distance
_ccdc_geom_bond_type
C13   C117  1.433542 S    
C106  C114  1.205296 T    
O76   H52   0.988339 S    
C79   C87   1.408946 A    
O81   H57   0.989276 S    
O26   C7    1.271950 A    
C141  C146  1.200239 T    
C78   C86   1.408947 A    
C36   C48   1.207484 T    
C78   O82   1.384946 S    
O30   C11   1.272333 A    
C3    C124  1.433599 S    
C43   H14   1.112690 S    
C77   C85   1.408945 A    
Zn12  O26   1.911692 S    
C65   C77   1.417987 A    
C37   C46   1.479859 S    
C29   C39   1.560479 S    
C41   H10   1.112690 S    
C54   C62   1.397029 A    
C108  C116  1.205290 T    
O53   H29   0.992966 S    
C32   C39   1.558027 S    
O11   C7    1.271258 A    
C52   C60   1.397029 A    
O34   C15   1.272333 A    
C74   O78   1.384946 S    
C74   C82   1.408950 A    
O56   H32   0.992753 S    
Zn1   O44   1.917279 S    
C31   C40   1.560481 S    
Zn2   O43   1.917284 S    
C76   O80   1.384945 S    
Zn5   O48   1.917279 S    
C61   C69   1.418426 A    
Zn6   O47   1.917284 S    
Zn7   O46   1.917279 S    
C9    C113  1.433542 S    
C58   C98   1.443252 S    
O82   H58   0.989273 S    
Zn16  O4    1.924972 S    
Zn12  O4    1.924700 S    
Zn1   O13   1.912132 S    
C68   C80   1.417986 A    
C53   C61   1.397029 A    
Zn3   O15   1.912212 S    
Zn4   O16   1.912134 S    
C67   C79   1.417989 A    
C56   C64   1.397029 A    
C133  C141  1.433253 S    
C28   O53   1.407985 S    
C83   C91   1.416918 A    
Zn9   O21   1.911639 S    
C84   C92   1.416917 A    
C1    C122  1.433609 S    
C24   C35   1.437434 S    
C57   C97   1.443242 S    
C91   O63   1.382936 S    
Zn10  O22   1.911692 S    
C60   C100  1.443244 S    
O25   C8    1.272028 A    
Zn13  O29   1.910669 S    
C33   C45   1.207483 T    
Zn10  O2    1.924700 S    
C11   C115  1.433554 S    
C134  C138  1.420529 A    
O29   C12   1.272253 A    
Zn15  O33   1.910669 S    
C54   C90   1.394947 A    
C138  O86   1.385007 S    
C65   O69   1.385133 S    
C86   C94   1.416919 A    
C4    C123  1.433609 S    
O37   C17   1.269620 A    
O48   C23   1.271444 A    
C69   C73   1.417988 A    
O66   H42   0.988470 S    
C23   C36   1.437431 S    
C131  C135  1.395230 A    
C40   C47   1.479857 S    
C50   C94   1.394945 A    
Zn16  O35   1.910616 S    
C82   C90   1.416918 A    
C103  C127  1.205288 T    
C29   C30   1.566871 S    
C101  C125  1.205282 T    
C31   H8    1.117497 S    
O55   H31   0.992967 S    
Zn7   O10   1.912195 S    
O33   C16   1.272253 A    
O61   H37   0.988471 S    
O40   C20   1.269410 A    
C53   C89   1.394940 A    
C8    C127  1.433611 S    
C136  C140  1.420527 A    
O59   H35   0.992968 S    
C77   O81   1.384947 S    
C27   O54   1.409038 S    
C19   C147  1.425214 S    
C94   O66   1.382933 S    
Zn6   O11   1.912197 S    
Zn5   O17   1.912132 S    
C43   H15   1.112683 S    
C137  C138  1.416587 A    
C49   C93   1.394944 A    
C51   H19   1.084562 S    
O69   H45   0.988339 S    
C52   C96   1.394938 A    
C111  C119  1.205295 T    
C109  C117  1.205291 T    
O67   H43   0.988469 S    
Zn8   O3    1.923204 S    
C81   C105  1.445611 S    
C44   H13   1.112682 S    
O38   C18   1.269408 A    
C66   C78   1.417991 A    
C73   O77   1.384947 S    
H26   C129  1.083799 S    
C63   C71   1.418423 A    
C130  C134  1.397717 A    
C21   C34   1.437431 S    
O5    C1    1.271345 A    
C59   C67   1.418427 A    
O32   C9    1.272256 A    
O77   H53   0.989276 S    
C55   C63   1.397031 A    
O70   H46   0.988339 S    
Zn15  O51   1.917869 S    
O75   H51   0.988340 S    
Zn11  O28   1.911634 S    
C71   O75   1.385130 S    
C83   C107  1.445623 S    
C97   C121  1.205281 T    
C12   C116  1.433544 S    
C87   C111  1.445623 S    
O83   H59   0.989275 S    
C85   C109  1.445611 S    
C28   H3    1.117308 S    
O8    C4    1.271348 A    
C75   C83   1.408948 A    
C76   C84   1.408945 A    
C62   C70   1.418426 A    
O50   C18   1.268934 A    
O64   H40   0.988470 S    
C51   C95   1.394947 A    
C96   O68   1.382939 S    
Zn1   O1    1.923216 S    
Zn13  O1    1.924702 S    
Zn2   O14   1.912214 S    
C41   C42   1.550873 S    
C54   H22   1.084563 S    
C90   O62   1.382934 S    
C5    C126  1.433612 S    
O9    C5    1.271345 A    
C133  C137  1.405178 A    
O36   C13   1.272256 A    
C38   C41   1.552879 S    
C61   C101  1.443244 S    
Zn1   O8    1.912275 S    
C75   O79   1.384947 S    
Zn2   O7    1.912197 S    
C92   O64   1.382935 S    
Zn3   O6    1.912195 S    
C135  C139  1.405177 A    
O18   C14   1.272164 A    
O31   C10   1.272328 A    
C137  O85   1.384175 S    
O6    C2    1.271259 A    
O60   H36   0.992755 S    
C14   C118  1.433556 S    
C105  C113  1.205290 T    
O68   H44   0.988470 S    
O62   H38   0.988471 S    
Zn14  O30   1.910617 S    
Zn15  O3    1.924702 S    
C142  C145  1.200373 T    
Zn11  O3    1.924970 S    
C56   C92   1.394941 A    
O41   C21   1.271435 A    
C53   H21   1.084560 S    
C64   C104  1.443243 S    
Zn16  O34   1.910617 S    
C87   C95   1.416918 A    
C27   C38   1.560481 S    
C85   C93   1.416915 A    
Zn8   O20   1.912134 S    
C88   C96   1.416917 A    
C99   C123  1.205290 T    
C70   C74   1.417989 A    
C38   C45   1.479861 S    
C139  C140  1.416583 A    
C42   H9    1.112682 S    
C93   O65   1.382934 S    
C70   O74   1.385129 S    
C80   C88   1.408946 A    
C81   C89   1.416919 A    
O88   H64   0.988316 S    
O65   H41   0.988468 S    
Zn8   O9    1.912278 S    
C84   C108  1.445608 S    
C35   C47   1.207483 T    
O84   H60   0.989276 S    
O7    C3    1.271260 A    
O78   H54   0.989276 S    
O19   C15   1.272167 A    
O85   H61   0.989381 S    
H25   C130  1.084020 S    
Zn9   O24   1.911634 S    
C129  C133  1.395229 A    
Zn6   O18   1.912214 S    
Zn10  O23   1.911693 S    
O80   H56   0.989276 S    
C10   C114  1.433555 S    
O73   H49   0.988340 S    
C50   H18   1.084561 S    
C140  O88   1.385006 S    
O74   H50   0.988339 S    
C72   C76   1.417988 A    
C17   C145  1.425205 S    
C25   C37   1.560476 S    
Zn15  O36   1.910675 S    
O49   C17   1.268695 A    
C41   H11   1.112684 S    
C29   H6    1.117496 S    
C95   O67   1.382936 S    
C30   O59   1.407983 S    
C72   O76   1.385132 S    
C28   C37   1.558019 S    
Zn9   O37   1.917796 S    
C32   O57   1.407987 S    
O12   C8    1.271350 A    
H28   C131  1.083794 S    
C132  C136  1.397714 A    
Zn11  O39   1.917796 S    
C39   C48   1.479859 S    
C58   C66   1.418423 A    
C2    C121  1.433600 S    
C88   C112  1.445611 S    
C25   H2    1.117502 S    
C20   C148  1.425283 S    
C43   C44   1.550880 S    
C16   C120  1.433540 S    
Zn5   O3    1.923216 S    
Zn6   O4    1.923206 S    
C49   H17   1.084562 S    
C52   H20   1.084562 S    
C34   C46   1.207484 T    
O87   H63   0.989382 S    
O57   H33   0.992969 S    
C7    C128  1.433599 S    
C51   C59   1.397030 A    
C80   O84   1.384948 S    
C67   O71   1.385131 S    
C144  C147  1.200378 T    
O28   C5    1.272025 A    
C63   C103  1.443255 S    
Zn3   O42   1.917279 S    
C89   O61   1.382935 S    
Zn7   O4    1.923214 S    
O21   C4    1.272030 A    
C57   C65   1.418423 A    
O86   H62   0.988316 S    
C60   C68   1.418424 A    
C25   C26   1.566868 S    
Zn2   O2    1.923206 S    
C68   O72   1.385132 S    
O79   H55   0.989277 S    
Zn14  O2    1.924972 S    
C27   C28   1.566875 S    
C56   H24   1.084563 S    
C26   C38   1.558020 S    
C102  C126  1.205290 T    
Zn13  O49   1.917869 S    
O44   C21   1.271448 A    
C55   H23   1.084563 S    
C30   H5    1.117310 S    
Zn12  O27   1.911693 S    
O16   C12   1.272076 A    
C73   C81   1.408945 A    
C50   C58   1.397032 A    
Zn3   O2    1.923214 S    
C135  C143  1.433250 S    
C31   O58   1.409040 S    
C131  C132  1.389215 A    
C26   H1    1.117312 S    
O46   C24   1.271451 A    
Zn4   O41   1.917284 S    
C143  C148  1.200243 T    
Zn16  O52   1.917733 S    
O63   H39   0.988470 S    
C139  O87   1.384172 S    
C18   C146  1.425279 S    
Zn8   O45   1.917284 S    
O27   C6    1.271953 A    
C59   C99   1.443255 S    
O39   C19   1.269623 A    
C112  C120  1.205290 T    
C42   H12   1.112690 S    
C110  C118  1.205296 T    
C104  C128  1.205282 T    
C69   O73   1.385130 S    
C82   C106  1.445624 S    
O24   C1    1.272027 A    
C49   C57   1.397027 A    
H27   C132  1.084018 S    
O71   H47   0.988343 S    
O43   C22   1.271437 A    
O14   C10   1.272164 A    
O47   C24   1.271433 A    
C71   C75   1.417991 A    
Zn5   O12   1.912275 S    
O42   C22   1.271450 A    
C30   C40   1.558025 S    
C31   C32   1.566862 S    
C107  C115  1.205295 T    
C129  C130  1.389223 A    
Zn14  O50   1.917733 S    
O13   C9    1.272079 A    
C98   C122  1.205289 T    
O35   C14   1.272328 A    
Zn12  O40   1.917929 S    
Zn9   O1    1.924970 S    
C86   C110  1.445624 S    
O52   C20   1.268936 A    
C134  C142  1.434820 S    
Zn4   O1    1.923204 S    
O58   H34   0.992755 S    
C26   O55   1.407987 S    
O72   H48   0.988340 S    
C55   C91   1.394945 A    
C27   H4    1.117500 S    
C29   O60   1.409039 S    
O22   C3    1.271950 A    
C79   O83   1.384949 S    
C32   H7    1.117311 S    
C44   H16   1.112690 S    
Zn7   O19   1.912212 S    
Zn13  O32   1.910675 S    
O54   H30   0.992756 S    
O15   C11   1.272167 A    
Zn14  O31   1.910616 S    
O51   C19   1.268699 A    
C22   C33   1.437430 S    
C40   C43   1.552887 S    
Zn4   O5    1.912278 S    
C66   O70   1.385132 S    
O20   C16   1.272078 A    
C6    C125  1.433600 S    
O10   C6    1.271263 A    
O23   C2    1.271955 A    
Zn11  O25   1.911639 S    
Zn10  O38   1.917929 S    
C37   C42   1.552884 S    
C62   C102  1.443255 S    
C25   O56   1.409040 S    
C64   C72   1.418423 A    
C39   C44   1.552888 S    
C136  C144  1.434809 S    
O17   C13   1.272081 A    
C100  C124  1.205282 T    
C15   C119  1.433554 S    
O45   C23   1.271439 A    
