data_mof_unit_27281.cif
_audit_creation_date              2012-12-10T18:22:29-0500
_audit_creation_method            fapswitch 2.2
_symmetry_space_group_name_H-M    P1
_symmetry_Int_Tables_number       1
_space_group_crystal_system       triclinic
_cell_length_a                    23.493912
_cell_length_b                    10.665075
_cell_length_c                    9.476971
_cell_angle_alpha                 87.937307
_cell_angle_beta                  88.403928
_cell_angle_gamma                 89.577889
_cell_volume                      2372.08346009

loop_
_atom_site_label
_atom_site_type_symbol
_atom_type_description
_atom_site_fract_x
_atom_site_fract_y
_atom_site_fract_z
_atom_type_partial_charge
C1    C     C_R   0.501100 0.259742 0.502183 0.842673
C2    C     C_R   0.499167 0.740276 0.497744 0.848688
C3    C     C_R   0.239202 0.563768 0.396373 0.184396
C4    C     C_R   0.763683 0.419609 0.409920 0.206786
C5    C     C_R   0.298268 0.585095 0.409495 0.092197
C6    C     C_R   0.703677 0.403829 0.423772 0.057207
C7    C     C_R   0.328732 0.508850 0.506926 -0.072184
C8    C     C_R   0.671205 0.493899 0.498240 -0.084501
C9    C     C_R   0.299079 0.438799 0.612234 -0.279145
C10   C     C_R   0.698591 0.580534 0.579884 -0.265808
C11   C     C_R   0.240010 0.442213 0.619408 -0.137786
C12   C     C_R   0.757443 0.581092 0.585885 -0.139321
C13   C     C_R   0.209303 0.501888 0.511083 0.312700
C14   C     C_R   0.790573 0.503054 0.500485 0.305073
C15   C     C_3   0.516980 0.030808 0.627583 0.073087
C16   C     C_3   0.483649 0.969194 0.371993 0.074763
C17   C     C_3   0.553138 0.952957 0.523111 -0.344233
C18   C     C_3   0.447511 0.047118 0.476428 -0.347034
C19   C     C_3   0.499411 0.877005 0.493429 -0.227352
C20   C     C_3   0.501208 0.123022 0.506200 -0.224002
C21   C     C_3   0.463935 0.954255 0.597586 0.642244
C22   C     C_3   0.536666 0.045813 0.402012 0.641049
C23   C     C_R   0.391257 0.503431 0.501929 0.805519
C24   C     C_R   0.608715 0.497208 0.498913 0.786520
C25   C     C_3   0.493651 0.612896 0.046467 -0.074097
C26   C     C_3   0.505968 0.387552 0.953262 -0.070948
C27   C     C_3   0.452988 0.544634 0.952353 0.252991
C28   C     C_3   0.546785 0.455885 0.046355 0.277619
C29   C     C_3   0.540952 0.568318 0.943059 -0.068805
C30   C     C_3   0.458717 0.432289 0.056546 -0.084393
C31   C     C_R   0.880593 0.614956 0.485036 0.523315
C32   C     C_R   0.118961 0.391488 0.538062 0.518066
C33   C     C_R   0.879660 0.397793 0.556008 0.517848
C34   C     C_R   0.119164 0.615374 0.517549 0.529020
C35   C     C_R   0.939292 0.394079 0.555783 -0.009578
C36   C     C_R   0.059600 0.618405 0.512289 -0.012154
C37   C     C_R   0.969532 0.505924 0.527648 -0.016274
C38   C     C_R   0.029521 0.505140 0.529489 -0.019886
C39   C     C_R   0.939945 0.618518 0.497458 -0.011979
C40   C     C_R   0.059270 0.391031 0.548266 -0.015040
C41   C     C_R   0.969277 0.281411 0.581215 -0.171384
C42   C     C_R   0.029561 0.731391 0.489163 -0.167568
C43   C     C_R   0.028701 0.279441 0.574377 -0.162949
C44   C     C_R   0.970399 0.731081 0.478726 -0.165462
Cu1   Cu    Cu3+1 0.500010 0.499990 0.643150 0.930948
Cu2   Cu    Cu3+1 0.499990 0.500010 0.356850 0.930932
H1    H     H_    0.946961 0.193952 0.602443 0.187015
H2    H     H_    0.051763 0.819802 0.475119 0.187818
H3    H     H_    0.487461 0.707026 0.088800 0.117698
H4    H     H_    0.512059 0.293421 0.910926 0.119068
H5    H     H_    0.575565 0.625250 0.891436 0.125674
H6    H     H_    0.423998 0.375539 0.107943 0.131872
H7    H     H_    0.050550 0.190530 0.590643 0.189373
H8    H     H_    0.948628 0.819258 0.457029 0.187133
H9    H     H_    0.321684 0.383750 0.691235 0.164275
H10   H     H_    0.674132 0.646360 0.642062 0.155513
H11   H     H_    0.217938 0.394638 0.707492 0.172247
H12   H     H_    0.777586 0.644483 0.655677 0.168021
H13   H     H_    0.596393 0.913504 0.539790 0.162199
H14   H     H_    0.404388 0.087282 0.459853 0.167317
N1    N     N_R   0.851627 0.505041 0.512255 -0.454957
N2    N     N_R   0.147882 0.502759 0.521409 -0.454015
N3    N     N_3   0.500040 0.499970 0.858290 -0.190330
N4    N     N_3   0.499960 0.500030 0.141710 -0.187314
O1    O     O_R   0.500030 0.316850 0.620870 -0.594281
O2    O     O_R   0.499970 0.683150 0.379130 -0.594433
O3    O     O_R   0.500000 0.316860 0.379090 -0.558684
O4    O     O_R   0.500000 0.683140 0.620910 -0.560355
O5    O     O_R   0.417890 0.499960 0.620920 -0.602743
O6    O     O_R   0.582110 0.500040 0.379080 -0.597461
O7    O     O_R   0.417870 0.499970 0.379140 -0.583785
O8    O     O_R   0.582130 0.500030 0.620860 -0.576897
O9    O     O_2   0.852165 0.720078 0.444811 -0.546431
O10   O     O_2   0.147748 0.281530 0.542321 -0.540085
O11   O     O_2   0.849867 0.294752 0.598363 -0.557837
O12   O     O_2   0.148150 0.724099 0.519090 -0.552665
C45   C     C_3   0.397169 0.596188 0.893914 -0.335237
C46   C     C_3   0.359536 0.654349 0.006976 -0.905054
H15   H     H_    0.348719 0.582277 0.090646 0.254459
H16   H     H_    0.381426 0.734905 0.052170 0.258195
H17   H     H_    0.319406 0.689031 0.959699 0.265983
H18   H     H_    0.406571 0.668251 0.809237 0.271339
H19   H     H_    0.373172 0.517803 0.850941 0.209388
C47   C     C_3   0.603049 0.400851 0.095792 -0.406017
C48   C     C_3   0.639817 0.355043 0.972232 -0.850313
H20   H     H_    0.618605 0.276891 0.920693 0.255180
H21   H     H_    0.647907 0.432708 0.893116 0.261901
H22   H     H_    0.681418 0.320540 0.011165 0.251033
H23   H     H_    0.627177 0.473788 0.148747 0.222137
H24   H     H_    0.593437 0.320699 0.169816 0.259764
C49   C     C_3   0.209791 0.597061 0.258240 -0.419557
C50   C     C_3   0.184655 0.481495 0.192797 -0.807250
H25   H     H_    0.217260 0.405841 0.185441 0.258027
H26   H     H_    0.147198 0.446118 0.255190 0.261910
H27   H     H_    0.170355 0.506673 0.084630 0.243819
H28   H     H_    0.176158 0.669001 0.273023 0.242957
H29   H     H_    0.240185 0.635809 0.177009 0.200175
C51   C     C_3   0.798317 0.356341 0.293502 -0.413324
C52   C     C_3   0.815488 0.451508 0.176121 -0.819444
H30   H     H_    0.776969 0.496749 0.130997 0.255660
H31   H     H_    0.843372 0.524737 0.216798 0.270136
H32   H     H_    0.839202 0.403124 0.090665 0.252615
H33   H     H_    0.836909 0.309500 0.334431 0.232789
H34   H     H_    0.774736 0.281163 0.243879 0.211840
C53   C     C_3   0.325502 0.705132 0.348304 -0.487990
C54   C     C_3   0.333794 0.798473 0.464322 -0.727441
H35   H     H_    0.292486 0.818488 0.519161 0.278634
H36   H     H_    0.364413 0.760963 0.542540 0.264159
H37   H     H_    0.350750 0.887649 0.416898 0.237636
H38   H     H_    0.367346 0.685672 0.297418 0.225577
H39   H     H_    0.299303 0.753950 0.268018 0.219894
C55   C     C_3   0.675859 0.283845 0.378256 -0.405650
C56   C     C_3   0.696685 0.170010 0.465482 -0.747755
H40   H     H_    0.743398 0.156978 0.452226 0.262679
H41   H     H_    0.685886 0.181847 0.579156 0.245587
H42   H     H_    0.675550 0.084040 0.430879 0.269519
H43   H     H_    0.629082 0.286531 0.394595 0.233269
H44   H     H_    0.683718 0.269381 0.264412 0.219156
C57   C     C_3   0.534454 0.063625 0.775271 -0.339650
C58   C     C_3   0.554315 0.948096 0.860446 -0.806087
H45   H     H_    0.519608 0.878020 0.872381 0.276984
H46   H     H_    0.591976 0.904566 0.807876 0.240884
H47   H     H_    0.566540 0.976293 0.967014 0.256967
H48   H     H_    0.569323 0.133371 0.766606 0.193960
H49   H     H_    0.496941 0.104694 0.830363 0.210611
C59   C     C_3   0.466641 0.936494 0.223804 -0.344912
C60   C     C_3   0.446323 0.051804 0.139012 -0.805636
H50   H     H_    0.408263 0.093929 0.191320 0.243103
H51   H     H_    0.480617 0.122926 0.128062 0.277558
H52   H     H_    0.434558 0.023762 0.032042 0.256636
H53   H     H_    0.504447 0.896432 0.168881 0.213091
H54   H     H_    0.432192 0.865843 0.231252 0.193528
F1    F     F_    0.426366 0.905573 0.699924 -0.695307
F2    F     F_    0.574000 0.094211 0.299087 -0.706825

loop_
_geom_bond_atom_site_label_1
_geom_bond_atom_site_label_2
_ccdc_geom_bond_type
C38   C40   A    
C53   H38   S    
C29   N3    S    
C59   C60   S    
C8    C24   S    
C4    C51   S    
C28   C47   S    
C18   C21   S    
C23   O5    A    
C36   C42   A    
C24   O6    A    
C5    C53   S    
C45   C46   S    
C47   H24   S    
C22   F2    S    
C59   H53   S    
C28   C29   S    
C35   C37   A    
Cu2   O2    S    
C30   N4    S    
C26   H4    S    
C48   H20   S    
C55   H43   S    
C46   H16   S    
C31   O9    S    
C54   H35   S    
C45   H19   S    
C51   H33   S    
C34   N2    A    
C3    C49   S    
C31   N1    A    
C17   C19   S    
C49   H28   S    
C43   H7    S    
C40   C43   A    
C13   N2    S    
C15   C57   S    
C1    O1    A    
C9    H9    S    
C26   C28   S    
C10   H10   S    
C18   C20   S    
C3    C13   A    
C58   H47   S    
C56   H42   S    
C12   H12   S    
C53   H39   S    
C57   H48   S    
C27   C30   S    
C2    O2    A    
C41   C43   A    
C42   C44   A    
C21   F1    S    
C55   C56   S    
C58   H46   S    
C48   H21   S    
C25   C29   S    
C15   C20   S    
Cu1   O5    S    
C23   O7    A    
C47   C48   S    
C4    C6    A    
C49   C50   S    
C5    C7    A    
C46   H15   S    
C6    C8    A    
C3    C5    A    
Cu1   Cu2   S    
C14   N1    S    
Cu1   N3    S    
C50   H27   S    
Cu2   N4    S    
C25   N4    S    
C26   N3    S    
C60   H51   S    
C37   C38   A    
C52   H30   S    
C59   H54   S    
Cu1   O4    S    
C50   H26   S    
C41   H1    S    
C16   C18   S    
C42   H2    S    
C49   H29   S    
C9    C11   A    
Cu2   O7    S    
C10   C12   A    
C17   H13   S    
C28   N4    S    
C18   H14   S    
C52   H31   S    
C12   C14   A    
C26   C30   S    
Cu1   O1    S    
C33   O11   S    
C47   H23   S    
C60   H50   S    
C57   H49   S    
C58   H45   S    
C24   O8    A    
C56   H40   S    
C29   H5    S    
C48   H22   S    
C7    C9    A    
C30   H6    S    
C1    C20   S    
C16   C22   S    
C19   C21   S    
C2    C19   S    
C6    C55   S    
C8    C10   A    
C20   C22   S    
C27   C45   S    
C57   C58   S    
C15   C17   S    
C39   C44   A    
C1    O3    A    
C25   C27   S    
C53   C54   S    
C2    O4    A    
C17   C22   S    
C36   C38   A    
C60   H52   S    
C32   N2    A    
Cu2   O3    S    
C37   C39   A    
C55   H44   S    
C11   C13   A    
C46   H17   S    
C54   H36   S    
C45   H18   S    
C16   C19   S    
C7    C23   S    
C50   H25   S    
C33   C35   A    
C31   C39   A    
C34   C36   A    
C32   C40   A    
C4    C14   A    
C35   C41   A    
C25   H3    S    
Cu2   O6    S    
C44   H8    S    
C15   C21   S    
C52   H32   S    
C33   N1    A    
C51   C52   S    
C32   O10   S    
C27   N3    S    
C56   H41   S    
C11   H11   S    
C16   C59   S    
C51   H34   S    
C34   O12   S    
Cu1   O8    S    
C54   H37   S    
