data_mof_unit_15722.cif
_audit_creation_date              2012-12-11T14:29:58-0500
_audit_creation_method            fapswitch 2.2
_symmetry_space_group_name_H-M    P1
_symmetry_Int_Tables_number       1
_space_group_crystal_system       triclinic
_cell_length_a                    12.914398
_cell_length_b                    12.914406
_cell_length_c                    26.907324
_cell_angle_alpha                 90.0
_cell_angle_beta                  90.000027
_cell_angle_gamma                 120.000236
_cell_volume                      3886.4108434

loop_
_atom_site_label
_atom_site_type_symbol
_atom_type_description
_atom_site_fract_x
_atom_site_fract_y
_atom_site_fract_z
_atom_type_partial_charge
C1    C     C_R   0.557456 0.459083 0.821152 0.551742
C2    C     C_R   0.454000 0.559352 0.177403 0.530560
C3    C     C_R   0.065636 0.347210 0.480010 0.205634
C4    C     C_R   0.337481 0.040661 0.031691 0.196218
C5    C     C_R   0.652793 0.718426 0.480010 0.205632
C6    C     C_R   0.289373 0.934721 0.532434 0.227934
C7    C     C_R   0.946044 0.283728 0.978951 0.215979
C8    C     C_R   0.645348 0.710626 0.532434 0.227934
C9    C     C_R   0.337685 0.053956 0.978952 0.215979
C10   C     C_R   0.065280 0.354655 0.532434 0.227934
C11   C     C_R   0.716272 0.662317 0.978952 0.215979
C12   C     C_R   0.440434 0.896731 0.321989 0.531000
C13   C     C_R   0.105352 0.546000 0.177403 0.530558
C14   C     C_R   0.023772 0.499638 0.970872 0.003731
C15   C     C_R   0.507669 0.030751 0.523795 0.003693
C16   C     C_R   0.500362 0.524135 0.970871 0.003732
C17   C     C_R   0.969249 0.476919 0.523795 0.003693
C18   C     C_R   0.475866 0.976228 0.970872 0.003731
C19   C     C_R   0.523083 0.492331 0.523795 0.003692
C20   C     C_R   0.495430 0.011802 0.472451 -0.001306
C21   C     C_R   0.893549 0.439611 0.677415 0.524656
C22   C     C_R   0.035650 0.511269 0.022698 -0.000726
C23   C     C_R   0.516373 0.504569 0.472450 -0.001306
C24   C     C_R   0.475619 0.964350 0.022698 -0.000727
C25   C     C_R   0.988198 0.483629 0.472451 -0.001308
C26   C     C_R   0.488731 0.524382 0.022698 -0.000726
C27   C     C_R   0.127289 0.715753 0.961932 -0.064163
C28   C     C_R   0.723713 0.146160 0.513288 -0.062414
C29   C     C_R   0.284247 0.411539 0.961931 -0.064163
C30   C     C_R   0.853840 0.577553 0.513287 -0.062417
C31   C     C_R   0.588463 0.872711 0.961932 -0.064164
C32   C     C_R   0.540917 0.098374 0.821152 0.551742
C33   C     C_R   0.422447 0.276286 0.513287 -0.062414
C34   C     C_R   0.710871 0.124317 0.462214 -0.054175
C35   C     C_R   0.143515 0.726981 0.013396 -0.062444
C36   C     C_R   0.413447 0.289129 0.462214 -0.054177
C37   C     C_R   0.583465 0.856485 0.013395 -0.062443
C38   C     C_R   0.875683 0.586553 0.462214 -0.054176
C39   C     C_R   0.273019 0.416537 0.013395 -0.062442
C40   C     C_R   0.029804 0.588914 0.889756 -0.082538
C41   C     C_R   0.635856 0.110739 0.595772 -0.105254
C42   C     C_R   0.411086 0.440892 0.889756 -0.082538
C43   C     C_R   0.560389 0.453938 0.677414 0.524657
C44   C     C_R   0.889261 0.525117 0.595772 -0.105252
C45   C     C_R   0.559109 0.970196 0.889756 -0.082539
C46   C     C_R   0.474883 0.364144 0.595772 -0.105253
C47   C     C_R   0.582871 0.016769 0.391418 -0.110586
C48   C     C_R   0.109229 0.637913 0.095683 -0.097058
C49   C     C_R   0.433899 0.417128 0.391418 -0.110583
C50   C     C_R   0.528684 0.890770 0.095683 -0.097057
C51   C     C_R   0.983230 0.566101 0.391418 -0.110584
C52   C     C_R   0.362086 0.471317 0.095682 -0.097057
C53   C     C_R   0.061462 0.535920 0.126202 -0.018242
C54   C     C_R   0.901626 0.442543 0.821152 0.551741
C55   C     C_R   0.467199 0.946415 0.372356 -0.015244
C56   C     C_R   0.464079 0.525542 0.126202 -0.018241
C57   C     C_R   0.053585 0.520784 0.372356 -0.015246
C58   C     C_R   0.474459 0.938538 0.126202 -0.018243
C59   C     C_R   0.479217 0.532801 0.372356 -0.015244
C60   C     C_R   0.534313 0.063923 0.626391 -0.015160
C61   C     C_R   0.966886 0.474229 0.869558 -0.007224
C62   C     C_R   0.529610 0.465686 0.626391 -0.015159
C63   C     C_R   0.507343 0.033114 0.869558 -0.007224
C64   C     C_R   0.936077 0.470391 0.626391 -0.015158
C65   C     C_R   0.546062 0.106451 0.677415 0.524657
C66   C     C_R   0.525771 0.492657 0.869558 -0.007222
C67   C     C_R   0.062056 0.602424 0.940459 0.056775
C68   C     C_R   0.623154 0.095160 0.544468 0.046410
C69   C     C_R   0.397576 0.459634 0.940459 0.056776
C70   C     C_R   0.904840 0.527995 0.544468 0.046411
C71   C     C_R   0.540368 0.937943 0.940459 0.056774
C72   C     C_R   0.472006 0.376845 0.544467 0.046411
C73   C     C_R   0.597346 0.051559 0.441714 0.041185
C74   C     C_R   0.094225 0.626073 0.044108 0.036222
C75   C     C_R   0.454214 0.402654 0.441714 0.041186
C76   C     C_R   0.456297 0.559566 0.321989 0.531002
C77   C     C_R   0.531848 0.905775 0.044108 0.036222
C78   C     C_R   0.948441 0.545786 0.441714 0.041180
C79   C     C_R   0.373927 0.468154 0.044107 0.036223
C80   C     C_R   0.962327 0.379886 0.897429 -0.092442
C81   C     C_R   0.420420 0.999462 0.605801 -0.070550
C82   C     C_R   0.620114 0.582441 0.897429 -0.092441
C83   C     C_R   0.000539 0.420960 0.605801 -0.070549
C84   C     C_R   0.417559 0.037672 0.897429 -0.092441
C85   C     C_R   0.579041 0.579579 0.605801 -0.070549
C86   C     C_R   0.368051 0.918506 0.402502 -0.062476
C87   C     C_R   0.440648 0.894648 0.177403 0.530559
C88   C     C_R   0.994437 0.423424 0.104896 -0.072465
C89   C     C_R   0.550457 0.631948 0.402502 -0.062483
C90   C     C_R   0.428987 0.005562 0.104896 -0.072465
C91   C     C_R   0.081494 0.449546 0.402503 -0.062478
C92   C     C_R   0.576576 0.571014 0.104896 -0.072464
C93   C     C_R   0.976141 0.386229 0.949092 -0.052147
C94   C     C_R   0.404501 0.984548 0.554345 -0.038890
C95   C     C_R   0.613771 0.589913 0.949092 -0.052146
C96   C     C_R   0.015453 0.419955 0.554346 -0.038891
C97   C     C_R   0.410088 0.023858 0.949092 -0.052146
C98   C     C_R   0.103269 0.543703 0.321989 0.530999
C99   C     C_R   0.580047 0.595498 0.554345 -0.038891
C100  C     C_R   0.381140 0.954726 0.451599 -0.045649
C101  C     C_R   0.992705 0.408971 0.053160 -0.049369
C102  C     C_R   0.573589 0.618860 0.451599 -0.045648
C103  C     C_R   0.416266 0.007294 0.053160 -0.049368
C104  C     C_R   0.045274 0.426414 0.451600 -0.045647
C105  C     C_R   0.591029 0.583735 0.053160 -0.049368
C106  C     C_R   0.959339 0.296819 0.031691 0.196216
C107  C     C_R   0.281574 0.934365 0.480009 0.205622
C108  C     C_R   0.703181 0.662521 0.031691 0.196218
Cr1   Cr    Cr6+3 0.487630 0.241180 0.750000 1.053921
Cr2   Cr    Cr6+3 0.753550 0.512370 0.750000 1.053921
Cr3   Cr    Cr6+3 0.758820 0.246450 0.750000 1.053921
Cr4   Cr    Cr6+3 0.241180 0.487630 0.250000 1.061729
Cr5   Cr    Cr6+3 0.512370 0.753550 0.250000 1.061721
Cr6   Cr    Cr6+3 0.246450 0.758820 0.250000 1.061733
H1    H     H_    0.163306 0.726079 0.111666 0.183181
H2    H     H_    0.614483 0.948651 0.866715 0.126461
H3    H     H_    0.835345 0.559812 0.611489 0.147658
H4    H     H_    0.334167 0.385518 0.866715 0.126459
H5    H     H_    0.190902 0.814397 0.029568 0.159040
H6    H     H_    0.789583 0.161655 0.438999 0.192308
H7    H     H_    0.185603 0.376508 0.029567 0.159037
H8    H     H_    0.838345 0.627926 0.438999 0.192320
H9    H     H_    0.623494 0.809098 0.029567 0.159039
H10   H     H_    0.372073 0.210417 0.438999 0.192302
H11   H     H_    0.812430 0.198975 0.528685 0.138022
H12   H     H_    0.659920 0.042288 0.367799 0.148173
H13   H     H_    0.161549 0.795512 0.939265 0.149293
H14   H     H_    0.386545 0.187570 0.528684 0.138022
H15   H     H_    0.633962 0.838451 0.939264 0.149293
H16   H     H_    0.801025 0.613454 0.528685 0.138021
H17   H     H_    0.204488 0.366040 0.939264 0.149292
H18   H     H_    0.949642 0.347273 0.129368 0.205160
H19   H     H_    0.278286 0.862022 0.388374 0.201480
H20   H     H_    0.652726 0.602369 0.129368 0.205159
H21   H     H_    0.137978 0.416265 0.388375 0.201478
H22   H     H_    0.397632 0.050357 0.129368 0.205161
H23   H     H_    0.273920 0.437229 0.111665 0.183180
H24   H     H_    0.583740 0.721714 0.388374 0.201471
H25   H     H_    0.345245 0.969256 0.630603 0.211997
H26   H     H_    0.946001 0.301173 0.877956 0.209373
H27   H     H_    0.624011 0.654754 0.630603 0.211997
H28   H     H_    0.355171 0.053998 0.877956 0.209370
H29   H     H_    0.030745 0.375991 0.630603 0.211997
H30   H     H_    0.698828 0.644828 0.877956 0.209371
H31   H     H_    0.050308 0.173766 0.137067 0.382262
H32   H     H_    0.144905 0.027300 0.383002 0.375525
H33   H     H_    0.826237 0.876537 0.137069 0.382259
H34   H     H_    0.957712 0.617631 0.367799 0.148184
H35   H     H_    0.972726 0.117621 0.382997 0.375509
H36   H     H_    0.123459 0.949694 0.137067 0.382261
H37   H     H_    0.882349 0.855129 0.382984 0.375502
H38   H     H_    0.095017 0.762112 0.635320 0.366123
H39   H     H_    0.824389 0.080310 0.876294 0.355059
H40   H     H_    0.667089 0.904981 0.635320 0.366123
H41   H     H_    0.255928 0.175614 0.876294 0.355057
H42   H     H_    0.237892 0.332912 0.635321 0.366123
H43   H     H_    0.919688 0.744077 0.876294 0.355058
H44   H     H_    0.562772 0.836693 0.111666 0.183182
H45   H     H_    0.382368 0.340080 0.367799 0.148173
H46   H     H_    0.724467 0.164655 0.611489 0.147659
H47   H     H_    0.051349 0.665832 0.866715 0.126461
H48   H     H_    0.440187 0.275532 0.611489 0.147659
O1    O     O_R   0.460870 0.120930 0.805240 -0.514478
O2    O     O_R   0.120930 0.460870 0.194760 -0.484765
O3    O     O_R   0.539130 0.660060 0.305240 -0.500339
O4    O     O_R   0.339940 0.879070 0.194760 -0.484765
O5    O     O_R   0.498910 0.350470 0.801870 -0.473613
O6    O     O_R   0.851560 0.501090 0.698130 -0.504626
O7    O     O_R   0.649530 0.148440 0.801870 -0.473612
O8    O     O_R   0.498910 0.350470 0.698130 -0.504625
O9    O     O_R   0.851560 0.501090 0.801870 -0.473614
O10   O     O_R   0.649530 0.148440 0.698130 -0.504625
O11   O     O_R   0.350470 0.498910 0.301870 -0.496798
O12   O     O_R   0.660060 0.539130 0.694760 -0.513359
O13   O     O_R   0.501090 0.851560 0.198130 -0.496454
O14   O     O_R   0.148440 0.649530 0.301870 -0.496797
O15   O     O_R   0.350470 0.498910 0.198130 -0.496454
O16   O     O_R   0.501090 0.851560 0.301870 -0.496802
O17   O     O_R   0.148440 0.649530 0.198130 -0.496454
O18   O     O_3   0.666667 0.333333 0.750000 -0.261678
O19   O     O_3   0.333333 0.666667 0.250000 -0.275693
O20   O     O_2   0.841352 0.095025 0.085997 -0.254985
O21   O     O_2   0.019028 0.126358 0.040023 -0.087347
O22   O     O_3   0.053075 0.243203 0.120120 -0.566805
O23   O     O_R   0.879070 0.339940 0.805240 -0.514477
O24   O     O_2   0.063332 0.824286 0.438813 -0.274962
O25   O     O_2   0.126470 0.012974 0.483168 -0.096388
O26   O     O_3   0.213958 0.021992 0.395888 -0.570523
O27   O     O_2   0.904974 0.746325 0.085998 -0.254994
O28   O     O_2   0.873645 0.892671 0.040024 -0.087342
O29   O     O_3   0.756798 0.809873 0.120120 -0.566802
O30   O     O_2   0.175717 0.239052 0.438814 -0.275019
O31   O     O_2   0.987030 0.113498 0.483170 -0.096375
O32   O     O_3   0.978009 0.191966 0.395889 -0.570527
O33   O     O_2   0.253679 0.158651 0.085998 -0.254991
O34   O     O_R   0.460870 0.120930 0.694760 -0.513359
O35   O     O_2   0.107332 0.980977 0.040023 -0.087345
O36   O     O_3   0.190127 0.946925 0.120120 -0.566804
O37   O     O_2   0.760950 0.936665 0.438814 -0.275033
O38   O     O_2   0.886505 0.873536 0.483170 -0.096349
O39   O     O_3   0.808040 0.786044 0.395890 -0.570510
O40   O     O_2   0.159224 0.978254 0.598015 -0.227560
O41   O     O_2   0.045383 0.811567 0.541187 -0.168800
O42   O     O_3   0.161019 0.779861 0.611888 -0.551182
O43   O     O_2   0.001278 0.136479 0.931082 -0.218267
O44   O     O_2   0.826710 0.041096 0.985569 -0.146815
O45   O     O_R   0.660060 0.539130 0.805240 -0.514478
O46   O     O_3   0.802465 0.120247 0.902303 -0.571134
O47   O     O_2   0.819028 0.840778 0.598016 -0.227560
O48   O     O_2   0.766180 0.954616 0.541187 -0.168799
O49   O     O_3   0.618838 0.838977 0.611888 -0.551180
O50   O     O_2   0.135203 0.998728 0.931082 -0.218266
O51   O     O_2   0.214392 0.173295 0.985569 -0.146816
O52   O     O_3   0.317789 0.197539 0.902304 -0.571130
O53   O     O_2   0.021750 0.180974 0.598016 -0.227560
O54   O     O_2   0.188437 0.233822 0.541188 -0.168797
O55   O     O_3   0.220141 0.381164 0.611889 -0.551181
O56   O     O_R   0.879070 0.339940 0.694760 -0.513359
O57   O     O_2   0.863524 0.864799 0.931082 -0.218269
O58   O     O_2   0.958905 0.785614 0.985569 -0.146815
O59   O     O_3   0.879753 0.682216 0.902304 -0.571133
O60   O     O_R   0.120930 0.460870 0.305240 -0.500333
O61   O     O_R   0.539130 0.660060 0.194760 -0.484767
O62   O     O_R   0.339940 0.879070 0.305240 -0.500328
S1    S     S_3+6 0.965543 0.185774 0.069655 0.053264
S2    S     S_3+6 0.247145 0.105519 0.949993 0.067892
S3    S     S_3+6 0.123483 0.282139 0.570597 0.068835
S4    S     S_3+6 0.858376 0.752859 0.949993 0.067892
S5    S     S_3+6 0.165978 0.946456 0.449754 0.050398
S6    S     S_3+6 0.814227 0.779770 0.069655 0.053263
S7    S     S_3+6 0.053546 0.219524 0.449755 0.050380
S8    S     S_3+6 0.220232 0.034459 0.069655 0.053263
S9    S     S_3+6 0.780480 0.834023 0.449755 0.050388
S10   S     S_3+6 0.158654 0.876520 0.570596 0.068833
S11   S     S_3+6 0.894484 0.141625 0.949993 0.067892
S12   S     S_3+6 0.717864 0.841345 0.570596 0.068834

loop_
_geom_bond_atom_site_label_1
_geom_bond_atom_site_label_2
_ccdc_geom_bond_type
C3    C104  A    
O30   S7    D    
C12   O16   A    
C32   O7    A    
C4    C103  A    
C35   C74   A    
C89   C102  A    
C45   C71   A    
C35   H5    S    
C45   H2    S    
C91   C104  A    
C58   C87   S    
O21   S1    D    
C15   C94   A    
C88   C101  A    
C64   C83   A    
O24   S5    D    
C108  S6    S    
C44   C64   A    
H31   O22   S    
O59   S4    S    
C30   C38   A    
C21   O6    A    
C46   C62   A    
Cr3   O56   S    
C18   C24   A    
C84   C97   A    
C4    S8    S    
H32   O26   S    
C76   O11   A    
C36   H10   S    
C8    C99   A    
O37   S9    D    
Cr5   O3    S    
C43   O12   A    
O36   S8    S    
C87   O4    A    
C66   C82   A    
C1    O5    A    
C61   C80   A    
C41   H46   S    
C32   O1    A    
C101  C106  A    
C33   C36   A    
C98   O14   A    
O49   S12   S    
O58   S4    D    
Cr1   O34   S    
Cr3   O10   S    
C59   C89   A    
Cr5   O61   S    
C21   C64   S    
O42   S10   S    
O51   S2    D    
Cr1   O5    S    
C33   C72   A    
C37   H9    S    
C27   H13   S    
C12   O62   A    
H33   O29   S    
C11   S4    S    
C6    C94   A    
C40   C67   A    
O33   S8    D    
C6    C107  A    
C49   C75   A    
C44   C70   A    
C9    S2    S    
C51   C57   A    
C2    O15   A    
C10   C96   A    
O57   S4    D    
C52   C79   A    
C86   C100  A    
C14   C93   A    
C46   C72   A    
Cr5   O13   S    
C65   O34   A    
O50   S2    D    
Cr2   O9    S    
C31   C71   A    
Cr4   O11   S    
C6    S10   S    
C28   C34   A    
C17   C70   A    
C59   C76   S    
C5    S9    S    
C23   C102  A    
H43   O59   S    
C19   C72   A    
C15   C20   A    
Cr2   O6    S    
O22   S1    S    
H37   O39   S    
C7    C93   A    
O32   S7    S    
C26   C105  A    
C30   C70   A    
C43   O8    A    
Cr6   O4    S    
C41   C68   A    
C29   C69   A    
Cr2   O12   S    
C16   C26   A    
C48   C53   A    
Cr4   O2    S    
C62   C85   A    
C7    S11   S    
Cr3   O23   S    
O54   S3    D    
C65   O10   A    
C25   C78   A    
C50   C58   A    
C48   C74   A    
O43   S11   D    
C42   C66   A    
O38   S9    D    
C47   C73   A    
O41   S10   D    
C82   H30   S    
Cr1   O1    S    
C3    S7    S    
C19   C99   A    
C42   H4    S    
C38   C78   A    
C27   C35   A    
C30   H16   S    
C37   C77   A    
C45   C63   A    
C33   H14   S    
C50   H44   S    
C40   C61   A    
C31   C37   A    
O44   S11   D    
O28   S6    D    
C39   C79   A    
Cr6   O62   S    
H41   O52   S    
C19   C23   A    
C13   C53   S    
H40   O49   S    
C85   C99   A    
C36   C75   A    
H35   O32   S    
O40   S10   D    
H39   O46   S    
C90   H22   S    
C60   C81   A    
C24   C77   A    
C86   H19   S    
O39   S9    S    
C20   C100  A    
Cr2   O18   S    
C14   C67   A    
C29   C39   A    
C1    C66   S    
C7    C106  A    
C91   H21   S    
C76   O3    A    
O20   S1    D    
C17   C96   A    
C38   H8    S    
C105  C108  A    
C22   C101  A    
O46   S11   S    
H42   O55   S    
C58   C90   A    
C48   H1    S    
C8    S12   S    
C18   C97   A    
O55   S3    S    
C60   C65   S    
C89   H24   S    
O48   S12   D    
C21   O56   A    
C107  S5    S    
Cr3   O18   S    
C52   H23   S    
Cr5   O19   S    
C28   H11   S    
C84   H28   S    
C88   H18   S    
C85   H27   S    
O26   S5    S    
C50   C77   A    
C106  S1    S    
Cr1   O8    S    
C13   O2    A    
C47   C55   A    
O35   S8    D    
C11   C95   A    
C18   C71   A    
C81   H25   S    
C5    C102  A    
C100  C107  A    
C9    C97   A    
C82   C95   A    
C57   C91   A    
C28   C68   A    
Cr4   O60   S    
C54   O9    A    
C92   H20   S    
C16   C69   A    
C41   C60   A    
C23   C75   A    
C39   H7    S    
C5    C8    A    
C25   C104  A    
Cr4   O19   S    
C54   C61   S    
C32   C63   S    
Cr6   O19   S    
C87   O13   A    
C15   C68   A    
C26   C79   A    
C49   C59   A    
C47   H12   S    
C63   C84   A    
C24   C103  A    
C17   C25   A    
C14   C22   A    
C55   C86   A    
O27   S6    D    
C80   C93   A    
C51   C78   A    
C40   H47   S    
C31   H15   S    
C3    C10   A    
C80   H26   S    
C1    O45   A    
C83   H29   S    
C81   C94   A    
C16   C95   A    
Cr1   O18   S    
C10   S3    S    
C51   H34   S    
O29   S6    S    
C83   C96   A    
C98   O60   A    
C13   O17   A    
C2    O61   A    
C20   C73   A    
Cr5   O16   S    
C53   C88   A    
O53   S3    D    
C29   H17   S    
C42   C69   A    
O52   S2    S    
Cr2   O45   S    
C57   C98   S    
C90   C103  A    
O47   S12   D    
C12   C55   S    
C27   C67   A    
C34   C73   A    
O25   S5    D    
C92   C105  A    
C56   C92   A    
C44   H3    S    
C34   H6    S    
Cr6   O17   S    
C46   H48   S    
C11   C108  A    
Cr6   O14   S    
C22   C74   A    
H38   O42   S    
C2    C56   S    
O31   S7    D    
Cr3   O7    S    
C4    C9    A    
C49   H45   S    
C54   O23   A    
H36   O36   S    
C52   C56   A    
C43   C62   S    
Cr4   O15   S    
