data_mof_unit_48403.cif
_audit_creation_date              2012-12-10T17:37:47-0500
_audit_creation_method            fapswitch 2.2
_symmetry_space_group_name_H-M    P1
_symmetry_Int_Tables_number       1
_space_group_crystal_system       triclinic
_cell_length_a                    12.354943
_cell_length_b                    13.160127
_cell_length_c                    17.291766
_cell_angle_alpha                 106.402657
_cell_angle_beta                  76.169807
_cell_angle_gamma                 116.910669
_cell_volume                      2384.60761004

loop_
_atom_site_label
_atom_site_type_symbol
_atom_type_description
_atom_site_fract_x
_atom_site_fract_y
_atom_site_fract_z
_atom_type_partial_charge
C1    C     C_R   0.144911 0.715057 0.511270 0.838375
C2    C     C_R   0.858101 0.485227 0.791485 0.400302
C3    C     C_R   0.957097 0.570103 0.169795 0.044849
C4    C     C_R   0.956794 0.564367 0.249019 -0.234787
C5    C     C_R   0.100177 0.474105 0.202564 -0.163243
C6    C     C_R   0.104181 0.482296 0.123473 -0.153640
C7    C     C_R   0.030375 0.526470 0.106316 0.122205
C8    C     C_2   0.926123 0.470888 0.987409 -0.158344
C9    C     C_2   0.030200 0.521677 0.021109 -0.246559
C10   C     C_R   0.024135 0.512634 0.265455 -0.071301
C11   C     C_R   0.733161 0.963036 0.411525 0.368177
C12   C     C_R   0.983785 0.497130 0.651923 0.810041
C13   C     C_R   0.776671 0.161488 0.482560 -0.153579
C14   C     C_R   0.194320 0.920066 0.590647 0.265099
C15   C     C_R   0.282185 0.016732 0.634220 0.322840
C16   C     C_R   0.406586 0.039203 0.613198 0.223230
C17   C     C_R   0.446172 0.976162 0.539502 -0.069884
C18   C     C_R   0.356935 0.873948 0.498775 -0.021034
C19   C     C_R   0.571095 0.010749 0.504323 0.091786
C20   C     C_R   0.608089 0.931673 0.441784 0.060223
C21   C     C_R   0.518822 0.828968 0.405208 -0.181861
C22   C     C_R   0.396062 0.806248 0.428657 -0.135720
C23   C     C_R   0.856293 0.285838 0.490167 0.850923
C24   C     C_R   0.656506 0.126814 0.520890 -0.166266
C25   C     C_R   0.816890 0.077783 0.432825 -0.178333
C26   C     C_R   0.230545 0.840223 0.529235 -0.242869
C27   C     C_R   0.656343 0.690403 0.625612 -0.277472
C28   C     C_R   0.256412 0.360227 0.381965 0.488689
C29   C     C_R   0.369681 0.361085 0.343519 0.303975
C30   C     C_R   0.472203 0.431645 0.382420 -0.306981
C31   C     C_R   0.462037 0.490508 0.463083 -0.060997
C32   C     C_R   0.351651 0.504845 0.493708 0.191706
C33   C     C_R   0.560889 0.543305 0.511237 -0.011360
C34   C     C_R   0.014198 0.501037 0.348695 0.809824
C35   C     C_R   0.559862 0.633687 0.578408 0.133105
C36   C     C_R   0.458477 0.661531 0.600763 -0.229093
C37   C     C_R   0.353379 0.593416 0.562479 -0.108623
C38   C     C_R   0.654744 0.503069 0.499726 0.116858
C39   C     C_R   0.751188 0.654505 0.608319 0.176342
C40   C     C_R   0.964114 0.480666 0.736803 -0.173328
C41   C     C_R   0.047627 0.457632 0.766073 -0.057994
C42   C     C_R   0.025911 0.443652 0.846015 -0.153184
C43   C     C_R   0.930731 0.462014 0.900421 0.075060
C44   C     C_R   0.844429 0.478135 0.872527 -0.163571
Cu1   Cu    Cu3+1 0.900140 0.524980 0.518800 1.016522
Cu2   Cu    Cu3+1 0.099860 0.475020 0.481200 0.974701
H1    H     H_    0.161502 0.449900 0.074933 0.159995
H2    H     H_    0.911349 0.102648 0.405715 0.236536
H3    H     H_    0.542915 0.770468 0.353517 0.185285
H4    H     H_    0.627720 0.193751 0.557164 0.213198
H5    H     H_    0.332092 0.734453 0.390712 0.161188
H6    H     H_    0.825225 0.698327 0.645031 0.194937
H7    H     H_    0.903835 0.601345 0.298081 0.178849
H8    H     H_    0.456328 0.730186 0.652678 0.162701
H9    H     H_    0.657194 0.760799 0.676792 0.169604
H10   H     H_    0.559940 0.444282 0.347559 0.182530
H11   H     H_    0.275899 0.613363 0.588263 0.195787
H12   H     H_    0.154728 0.436025 0.214188 0.199222
H13   H     H_    0.118843 0.554548 0.984599 0.157594
H14   H     H_    0.767559 0.488139 0.914493 0.176358
H15   H     H_    0.837643 0.439325 0.024356 0.170703
H16   H     H_    0.087838 0.422503 0.867035 0.167917
N1    N     N_R   0.749710 0.562810 0.547300 -0.204614
N2    N     N_R   0.249640 0.437820 0.453210 -0.270975
O1    O     O_R   0.025490 0.682370 0.523640 -0.524733
O2    O     O_R   0.194150 0.640180 0.491890 -0.614176
O3    O     O_R   0.905900 0.523560 0.631310 -0.522158
O4    O     O_R   0.074570 0.481370 0.599560 -0.617812
O5    O     O_R   0.805850 0.359820 0.508110 -0.575084
O6    O     O_R   0.974510 0.317630 0.476360 -0.541515
O7    O     O_R   0.925430 0.518630 0.400440 -0.605447
O8    O     O_R   0.094100 0.476440 0.368690 -0.548224
C45   C     C_R   0.162851 0.451429 0.720607 0.123897
C46   C     C_R   0.272661 0.529918 0.752637 -0.204725
C47   C     C_R   0.375809 0.505526 0.730746 -0.102074
C48   C     C_R   0.372044 0.405002 0.674449 -0.049977
C49   C     C_R   0.265647 0.329477 0.638555 -0.108179
C50   C     C_R   0.160391 0.351361 0.662622 -0.040790
H17   H     H_    0.275512 0.605862 0.799109 0.145308
H18   H     H_    0.458283 0.563876 0.758267 0.165576
H19   H     H_    0.451627 0.385861 0.660192 0.168163
H20   H     H_    0.262986 0.251371 0.594854 0.154206
H21   H     H_    0.075783 0.287684 0.639449 0.152798
Cl1   Cl    Cl    0.787965 0.864073 0.342661 -0.624960
Cl2   Cl    Cl    0.039295 0.897943 0.618731 -0.551799
Cl3   Cl    Cl    0.504885 0.130383 0.688138 -0.521644
Cl4   Cl    Cl    0.235057 0.104966 0.720458 -0.474476
C51   C     C_R   0.633503 0.383724 0.449798 0.162509
C52   C     C_R   0.691535 0.365894 0.369696 -0.123017
C53   C     C_R   0.659875 0.254474 0.321005 -0.124053
C54   C     C_R   0.564145 0.159385 0.349719 -0.052647
C55   C     C_R   0.500083 0.176169 0.426864 -0.130775
C56   C     C_R   0.536239 0.286653 0.477167 -0.167461
H22   H     H_    0.750320 0.438603 0.341268 0.129652
H23   H     H_    0.705283 0.242901 0.259439 0.151191
H24   H     H_    0.537093 0.073441 0.311339 0.143019
H25   H     H_    0.422189 0.103501 0.447833 0.141992
H26   H     H_    0.485021 0.296556 0.536258 0.119933
Cl5   Cl    Cl    0.126880 0.265926 0.332377 -0.552208
Cl6   Cl    Cl    0.387568 0.279133 0.245246 -0.560605
C57   C     C_R   0.880724 0.622281 0.156019 0.084661
C58   C     C_R   0.755310 0.580759 0.186146 -0.120607
C59   C     C_R   0.682763 0.629367 0.173428 -0.063424
C60   C     C_R   0.734769 0.720046 0.130928 -0.074349
C61   C     C_R   0.859472 0.762442 0.101269 -0.081813
C62   C     C_R   0.932429 0.714115 0.113881 -0.087552
H27   H     H_    0.713556 0.510053 0.218779 0.133145
H28   H     H_    0.586275 0.596843 0.196659 0.144016
H29   H     H_    0.678542 0.757751 0.121249 0.135228
H30   H     H_    0.899707 0.833013 0.068665 0.153199
H31   H     H_    0.029096 0.748477 0.091116 0.144742
Cl7   Cl    Cl    0.736710 0.499632 0.765082 -0.588571

loop_
_geom_bond_atom_site_label_1
_geom_bond_atom_site_label_2
_ccdc_geom_bond_type
C61   H30   S    
C57   C58   A    
C4    H7    S    
Cu1   O7    S    
C45   C46   A    
C23   O5    A    
C35   C36   A    
C18   C26   A    
C8    C43   S    
C43   C44   A    
C21   H3    S    
C53   H23   S    
C49   C50   A    
C12   O4    A    
C2    Cl7   S    
C5    H12   S    
C28   C29   A    
Cu2   O2    S    
C3    C7    A    
C5    C6    A    
C27   H9    S    
C11   C25   A    
C15   C16   A    
C13   C23   S    
C41   C42   A    
C52   H22   S    
C17   C19   A    
C54   H24   S    
C50   H21   S    
C19   C20   A    
C2    C44   A    
C8    C9    D    
Cu1   O3    S    
C1    O1    A    
C45   C50   A    
C31   C33   A    
C59   H28   S    
C47   H18   S    
C42   H16   S    
Cu2   O8    S    
C8    H15   S    
C3    C57   S    
C39   H6    S    
C21   C22   A    
C16   Cl3   S    
C23   O6    A    
C13   C25   A    
C60   C61   A    
C55   H25   S    
C1    O2    A    
C62   H31   S    
C24   H4    S    
C12   O3    A    
C11   C20   A    
C6    H1    S    
Cu1   O5    S    
C48   C49   A    
C32   N2    A    
C46   C47   A    
C27   C39   A    
C54   C55   A    
C16   C17   A    
C27   C35   A    
Cu1   Cu2   S    
C30   H10   S    
Cu1   N1    S    
C13   C24   A    
Cu2   N2    S    
C9    H13   S    
C12   C40   S    
C47   C48   A    
Cu2   O4    S    
C29   C30   A    
C31   C32   A    
C14   C15   A    
C20   C21   A    
C17   C18   A    
C58   H27   S    
C10   C34   S    
C32   C37   A    
C14   C26   A    
C25   H2    S    
C28   N2    A    
C28   Cl5   S    
C40   C41   A    
C46   H17   S    
Cu1   O1    S    
C1    C26   S    
C42   C43   A    
C4    C10   A    
C3    C4    A    
C34   O8    A    
C15   Cl4   S    
C38   N1    A    
C57   C62   A    
C7    C9    S    
C51   C56   A    
C36   C37   A    
C29   Cl6   S    
C18   C22   A    
C14   Cl2   S    
C48   H19   S    
C6    C7    A    
C11   Cl1   S    
C39   N1    A    
C61   C62   A    
C33   C38   A    
C19   C24   A    
C5    C10   A    
C53   C54   A    
C30   C31   A    
C49   H20   S    
C44   H14   S    
C56   H26   S    
C55   C56   A    
C33   C35   A    
C58   C59   A    
Cu2   O6    S    
C36   H8    S    
C41   C45   S    
C2    C40   A    
C51   C52   A    
C38   C51   S    
C59   C60   A    
C60   H29   S    
C52   C53   A    
C34   O7    A    
C37   H11   S    
C22   H5    S    
