data_mof_unit_37252.cif
_audit_creation_date              2012-12-10T19:13:30-0500
_audit_creation_method            fapswitch 2.2
_symmetry_space_group_name_H-M    P1
_symmetry_Int_Tables_number       1
_space_group_crystal_system       triclinic
_cell_length_a                    9.755961
_cell_length_b                    10.69247
_cell_length_c                    16.605527
_cell_angle_alpha                 89.293883
_cell_angle_beta                  85.218842
_cell_angle_gamma                 88.039061
_cell_volume                      1725.09443991

loop_
_atom_site_label
_atom_site_type_symbol
_atom_type_description
_atom_site_fract_x
_atom_site_fract_y
_atom_site_fract_z
_atom_type_partial_charge
C1    C     C_R   0.497170 0.742211 0.502360 0.859251
C2    C     C_R   0.341303 0.467496 0.783675 -0.299286
C3    C     C_R   0.433344 0.315846 0.165162 0.209371
C4    C     C_R   0.422347 0.373238 0.240151 -0.302865
C5    C     C_R   0.655029 0.446032 0.216776 -0.287967
C6    C     C_R   0.666096 0.393631 0.139787 0.205376
C7    C     C_R   0.552403 0.333455 0.112593 0.112841
C8    C     C_2   0.446407 0.379315 0.990003 -0.190882
C9    C     C_2   0.546520 0.316802 0.025770 -0.209583
C10   C     C_R   0.531017 0.441530 0.265247 -0.086134
C11   C     C_3   0.344234 0.936468 0.495532 0.101730
C12   C     C_R   0.481040 0.498707 0.653700 0.889445
C13   C     C_3   0.346874 0.077137 0.507733 -0.443123
C14   C     C_3   0.551568 0.925052 0.583077 -0.476169
C15   C     C_3   0.585909 0.926053 0.429785 -0.494669
C16   C     C_3   0.492367 0.878438 0.504417 0.134805
C17   C     C_3   0.499062 0.121588 0.502776 0.127809
C18   C     C_3   0.577454 0.065820 0.574069 0.074104
C19   C     C_3   0.572069 0.069800 0.422837 -0.512104
C20   C     C_3   0.906538 0.596107 0.557394 -0.320537
C21   C     C_3   0.068361 0.604568 0.551155 -0.254948
C22   C     C_3   0.923106 0.377548 0.530209 0.145758
C23   C     C_R   0.500963 0.257739 0.500787 0.902988
C24   C     C_3   0.930888 0.530101 0.418869 0.159811
C25   C     C_3   0.084292 0.384326 0.534219 -0.286751
C26   C     C_3   0.093222 0.517788 0.418580 -0.220010
C27   C     C_R   0.519180 0.490867 0.346957 0.891659
C28   C     C_R   0.470406 0.479196 0.740887 -0.062685
C29   C     C_R   0.590565 0.458113 0.780171 -0.207578
C30   C     C_R   0.582446 0.421876 0.860489 -0.231090
C31   C     C_R   0.453854 0.405608 0.903164 0.146807
C32   C     C_R   0.331942 0.429956 0.864772 0.243062
H1    H     H_    0.290118 0.122513 0.459069 0.144777
H2    H     H_    0.289869 0.104040 0.565549 0.195843
H3    H     H_    0.695574 0.898679 0.436464 0.202431
H4    H     H_    0.511219 0.096414 0.371042 0.185690
H5    H     H_    0.329263 0.361892 0.279539 0.153373
H6    H     H_    0.675625 0.109294 0.409851 0.199663
H7    H     H_    0.868617 0.573784 0.620822 0.140128
H8    H     H_    0.859673 0.689424 0.544154 0.182550
H9    H     H_    0.095166 0.695625 0.523281 0.195621
H10   H     H_    0.110701 0.371458 0.597801 0.137813
H11   H     H_    0.144824 0.599586 0.389852 0.183799
H12   H     H_    0.131314 0.436089 0.381224 0.107134
H13   H     H_    0.138715 0.307306 0.499843 0.181995
H14   H     H_    0.634647 0.274245 0.990935 0.162246
H15   H     H_    0.247729 0.483171 0.753595 0.149384
H16   H     H_    0.361164 0.423585 0.026701 0.187979
H17   H     H_    0.677568 0.409495 0.889184 0.152071
N1    N     N_3   0.861190 0.500250 0.501720 -0.091629
N2    N     N_3   0.138550 0.503270 0.501080 -0.064871
O1    O     O_R   0.383960 0.685090 0.500020 -0.594009
O2    O     O_R   0.616040 0.685320 0.499960 -0.662636
O3    O     O_R   0.370240 0.499890 0.615830 -0.625519
O4    O     O_R   0.602330 0.500120 0.615770 -0.622749
O5    O     O_R   0.383960 0.314680 0.500040 -0.654982
O6    O     O_R   0.616040 0.314910 0.499980 -0.586473
O7    O     O_R   0.397670 0.499880 0.384230 -0.629677
O8    O     O_R   0.629760 0.500110 0.384170 -0.637895
Zn1   Zn    Zn3+2 0.345040 0.499850 0.500040 0.899215
Zn2   Zn    Zn3+2 0.654960 0.500150 0.499960 0.913886
H18   H     H_    0.691489 0.467191 0.748545 0.151945
N3    N     N_2   0.789010 0.407029 0.088427 -0.318611
H19   H     H_    0.876763 0.387859 0.117614 0.221471
C33   C     C_3   0.796346 0.525057 0.045023 -0.815395
H20   H     H_    0.803128 0.603284 0.087842 0.239760
H21   H     H_    0.704403 0.541206 0.010618 0.256018
H22   H     H_    0.889308 0.523587 0.001598 0.239812
N4    N     N_2   0.227476 0.881744 0.542764 -0.296294
H23   H     H_    0.133893 0.914723 0.525015 0.212873
C34   C     C_3   0.225140 0.861359 0.629143 -0.800832
H24   H     H_    0.123732 0.825054 0.651879 0.214658
H25   H     H_    0.236596 0.949999 0.660632 0.230688
H26   H     H_    0.303675 0.789165 0.643729 0.246289
H27   H     H_    0.323891 0.922197 0.431164 0.108826
H28   H     H_    0.483332 0.906455 0.637755 0.191969
N5    N     N_2   0.563911 0.134340 0.650226 -0.307285
H29   H     H_    0.638225 0.107615 0.688320 0.220657
C35   C     C_3   0.431162 0.160078 0.693219 -0.787039
H30   H     H_    0.446099 0.209780 0.749918 0.249607
H31   H     H_    0.380028 0.072407 0.710967 0.225988
H32   H     H_    0.366365 0.222808 0.657532 0.244502
H33   H     H_    0.557394 0.883581 0.372856 0.166100
H34   H     H_    0.650811 0.874595 0.592588 0.148610
H35   H     H_    0.687111 0.070370 0.553563 0.151580
H36   H     H_    0.105819 0.602009 0.612584 0.158651
H37   H     H_    0.876216 0.358810 0.592543 0.134284
H38   H     H_    0.897046 0.463219 0.374625 0.105996
H39   H     H_    0.741542 0.493601 0.237468 0.158898
N6    N     N_2   0.889828 0.654813 0.390251 -0.303335
H40   H     H_    0.786185 0.672791 0.398394 0.288887
C36   C     C_3   0.939557 0.689813 0.308409 -0.906219
H41   H     H_    0.872121 0.765925 0.285578 0.244603
H42   H     H_    0.939894 0.609174 0.266861 0.238767
H43   H     H_    0.044377 0.726948 0.307205 0.252356
N7    N     N_2   0.892361 0.271881 0.480245 -0.261144
H44   H     H_    0.923392 0.279478 0.419735 0.207302
C37   C     C_3   0.929748 0.148513 0.510757 -0.901810
H45   H     H_    0.882888 0.075929 0.475766 0.239387
H46   H     H_    0.896103 0.138877 0.576031 0.242856
H47   H     H_    0.042094 0.129569 0.502266 0.225521
N8    N     N_2   0.200056 0.417212 0.907265 -0.324122
H48   H     H_    0.123943 0.474587 0.885615 0.215705
C38   C     C_3   0.157515 0.289342 0.917872 -0.811018
H49   H     H_    0.146443 0.246656 0.858146 0.233526
H50   H     H_    0.056741 0.287970 0.954255 0.245249
H51   H     H_    0.233377 0.232734 0.950373 0.268048
N9    N     N_2   0.321192 0.247260 0.140784 -0.304522
H52   H     H_    0.227835 0.267969 0.172490 0.214878
C39   C     C_3   0.348713 0.113946 0.133241 -0.801245
H53   H     H_    0.258095 0.069376 0.110978 0.236144
H54   H     H_    0.368566 0.072259 0.192994 0.230034
H55   H     H_    0.438805 0.094230 0.089336 0.252829

loop_
_geom_bond_atom_site_label_1
_geom_bond_atom_site_label_2
_ccdc_geom_bond_type
C10   C27   S    
N3    C33   S    
C14   C18   S    
C14   H34   S    
C38   H50   S    
C26   H12   S    
C23   O5    A    
O3    Zn1   S    
N5    H29   S    
C15   C19   S    
C17   C23   S    
C12   C28   S    
C28   C29   A    
C24   C26   S    
C3    C7    A    
C19   H4    S    
C5    C10   A    
C30   C31   A    
C20   H8    S    
O7    Zn1   S    
C15   C16   S    
N9    H52   S    
C2    C32   A    
N4    C34   S    
C1    O2    A    
C39   H53   S    
C20   N1    S    
O1    Zn1   S    
C29   H18   S    
O2    Zn2   S    
C8    C9    D    
C33   H21   S    
C22   C25   S    
N7    C37   S    
C22   N1    S    
C9    H14   S    
C12   O3    A    
N4    H23   S    
C11   H27   S    
C15   H3    S    
C38   H49   S    
C26   H11   S    
N5    C35   S    
C24   N1    S    
O8    Zn2   S    
C18   H35   S    
C35   H31   S    
C20   H7    S    
C15   H33   S    
C36   H43   S    
N3    H19   S    
C14   H28   S    
C6    N3    S    
C8    H16   S    
C13   H1    S    
C29   C30   A    
C19   H6    S    
C34   H26   S    
C11   C16   S    
N6    C36   S    
C31   C32   A    
C33   H22   S    
N7    H44   S    
C36   H42   S    
C17   C18   S    
C1    C16   S    
C22   H37   S    
C20   C21   S    
N8    C38   S    
C24   H38   S    
C39   H55   S    
C21   H9    S    
C30   H17   S    
C33   H20   S    
C37   H46   S    
C2    H15   S    
C32   N8    S    
C4    C10   A    
C3    C4    A    
C25   H13   S    
C21   N2    S    
C34   H25   S    
C23   O6    A    
C21   H36   S    
C8    C31   S    
C22   N7    S    
C27   O7    A    
C24   N6    S    
C25   H10   S    
C35   H32   S    
C11   N4    S    
O6    Zn2   S    
C6    C7    A    
C3    N9    S    
C37   H47   S    
C25   N2    S    
C13   C17   S    
C34   H24   S    
C27   O8    A    
C26   N2    S    
C11   C13   S    
N6    H40   S    
C5    C6    A    
C18   N5    S    
O4    Zn2   S    
C36   H41   S    
C17   C19   S    
N9    C39   S    
C14   C16   S    
N8    H48   S    
C1    O1    A    
C39   H54   S    
C12   O4    A    
C35   H30   S    
C7    C9    S    
C13   H2    S    
O5    Zn1   S    
C4    H5    S    
C37   H45   S    
N1    Zn2   S    
C2    C28   A    
N2    Zn1   S    
C38   H51   S    
C5    H39   S    
