data_mof_unit_60996.cif
_audit_creation_date              2012-10-26T18:35:49-0400
_audit_creation_method            fapswitch 2.2
_symmetry_space_group_name_H-M    P1
_symmetry_Int_Tables_number       1
_space_group_crystal_system       triclinic
_cell_length_a                    10.75437
_cell_length_b                    12.749755
_cell_length_c                    13.900554
_cell_angle_alpha                 97.930527
_cell_angle_beta                  90.207649
_cell_angle_gamma                 93.235861
_cell_volume                      1884.61862457

loop_
_atom_site_label
_atom_site_type_symbol
_atom_type_description
_atom_site_fract_x
_atom_site_fract_y
_atom_site_fract_z
_atom_type_partial_charge
C1    C     C_R   0.498691 0.483580 0.315824 0.540177
C2    C     C_1   0.497911 0.474196 0.212489 -0.021434
C3    C     C_2   0.464403 0.028163 0.473642 -0.166099
C4    C     C_R   0.259435 0.500054 0.499631 0.539482
C5    C     C_2   0.535651 0.971836 0.526366 -0.164546
C6    C     C_1   0.525587 0.854634 0.519100 0.138050
C7    C     C_1   0.474444 0.145366 0.480907 0.134266
C8    C     C_R   0.501362 0.516425 0.684175 0.547362
C9    C     C_R   0.740622 0.499761 0.500627 0.563724
C10   C     C_3   0.063256 0.384209 0.486474 -0.241538
C11   C     C_3   0.920793 0.384238 0.487694 -0.261224
C12   C     C_3   0.878479 0.499871 0.501212 0.075235
C13   C     C_3   0.078195 0.557691 0.598578 -0.222389
C14   C     C_3   0.074942 0.556984 0.416864 -0.240016
C15   C     C_3   0.121834 0.499767 0.500294 0.032282
C16   C     C_3   0.933857 0.557728 0.600021 -0.017073
C17   C     C_3   0.931429 0.554157 0.415430 -0.231873
C18   C     C_1   0.502237 0.525828 0.787508 -0.018797
C19   C     C_2   0.503881 0.543574 0.978394 -0.123176
C20   C     C_2   0.496405 0.456483 0.021603 -0.123521
C21   C     C_1   0.497190 0.465644 0.125426 -0.053441
C22   C     C_1   0.503034 0.534403 0.874571 -0.052603
Cu1   Cu    Cu3+1 0.491980 0.395330 0.493960 0.967737
Cu2   Cu    Cu3+1 0.508020 0.604670 0.506040 0.989182
H1    H     H_    0.095324 0.340990 0.545511 0.134778
H2    H     H_    0.885056 0.341882 0.547777 0.125211
H3    H     H_    0.111149 0.517041 0.659049 0.095529
H4    H     H_    0.899772 0.512170 0.658581 0.131659
H5    H     H_    0.112525 0.640965 0.426543 0.130717
H6    H     H_    0.108581 0.518094 0.345842 0.114028
H7    H     H_    0.895774 0.509587 0.345323 0.105785
H8    H     H_    0.920031 0.695694 0.694016 0.222066
H9    H     H_    0.935811 0.715331 0.577446 0.232788
H10   H     H_    0.900092 0.636165 0.418696 0.138633
H11   H     H_    0.121006 0.640051 0.610923 0.132933
H12   H     H_    0.489642 0.378005 0.979318 0.135461
H13   H     H_    0.510637 0.622053 0.020677 0.135750
H14   H     H_    0.604301 0.014215 0.577004 0.125817
H15   H     H_    0.395756 0.985779 0.423006 0.123362
H16   H     H_    0.093231 0.340653 0.416170 0.134909
H17   H     H_    0.882496 0.339726 0.418357 0.133513
N1    N     N_1   0.479930 0.238040 0.484880 -0.190309
N2    N     N_1   0.520070 0.761960 0.515120 -0.186613
N3    N     N_3   0.892120 0.665983 0.622834 -0.611526
O1    O     O_R   0.492240 0.399110 0.356330 -0.491191
O2    O     O_R   0.505790 0.575900 0.366540 -0.495944
O3    O     O_R   0.310920 0.411610 0.494880 -0.504179
O4    O     O_R   0.324460 0.588390 0.505090 -0.506088
O5    O     O_R   0.494210 0.424100 0.633460 -0.493353
O6    O     O_R   0.507760 0.600890 0.643670 -0.483162
O7    O     O_R   0.675540 0.411610 0.494910 -0.515555
O8    O     O_R   0.689080 0.588390 0.505120 -0.464787

loop_
_geom_bond_atom_site_label_1
_geom_bond_atom_site_label_2
_ccdc_geom_bond_type
C12   C17   S    
C16   H4    S    
Cu1   Cu2   S    
C7    N1    T    
Cu2   O8    S    
Cu1   O1    S    
C16   N3    S    
Cu1   O7    S    
C19   C20   D    
C9    O7    A    
C11   C12   S    
Cu2   O2    S    
C2    C21   T    
H8    N3    S    
C3    H15   S    
C5    H14   S    
C9    O8    A    
C14   C17   S    
C1    O1    A    
Cu1   N1    S    
C14   H6    S    
C10   H1    S    
C11   H17   S    
C3    C7    S    
C6    N2    T    
C13   C15   S    
C4    C15   S    
Cu2   O6    S    
C5    C6    S    
C17   H7    S    
C9    C12   S    
C1    O2    A    
Cu1   O5    S    
Cu1   O3    S    
C10   C11   S    
C14   H5    S    
Cu2   O4    S    
C8    O6    A    
C19   C22   S    
C4    O4    A    
C20   C21   S    
C10   H16   S    
C1    C2    S    
C17   H10   S    
C13   C16   S    
Cu2   N2    S    
C14   C15   S    
C13   H3    S    
C19   H13   S    
C11   H2    S    
C10   C15   S    
C18   C22   T    
H9    N3    S    
C8    O5    A    
C13   H11   S    
C8    C18   S    
C12   C16   S    
C3    C5    D    
C4    O3    A    
C20   H12   S    
