data_mof_unit_12294.cif
_audit_creation_date              2012-12-11T15:43:44-0500
_audit_creation_method            fapswitch 2.2
_symmetry_space_group_name_H-M    P1
_symmetry_Int_Tables_number       1
_space_group_crystal_system       triclinic
_cell_length_a                    14.546145
_cell_length_b                    16.227312
_cell_length_c                    6.962616
_cell_angle_alpha                 89.969776
_cell_angle_beta                  99.270685
_cell_angle_gamma                 90.046698
_cell_volume                      1622.02204837

loop_
_atom_site_label
_atom_site_type_symbol
_atom_type_description
_atom_site_fract_x
_atom_site_fract_y
_atom_site_fract_z
_atom_type_partial_charge
O1    O     O_R   0.831700 0.662810 0.581550 -0.540254
O2    O     O_R   0.168300 0.337190 0.418450 -0.541978
O3    O     O_R   0.168300 0.162810 0.418450 -0.539040
O4    O     O_R   0.831700 0.837190 0.581550 -0.543100
O5    O     O_R   0.842890 0.834390 0.255500 -0.545559
O6    O     O_R   0.157110 0.165610 0.744500 -0.545083
O7    O     O_R   0.157110 0.334390 0.744500 -0.546224
O8    O     O_R   0.842890 0.665610 0.255500 -0.545733
O9    O     O_R   0.661690 0.835580 0.024130 -0.526841
O10   O     O_R   0.338310 0.164420 0.975870 -0.527220
O11   O     O_R   0.338310 0.335580 0.975870 -0.526374
O12   O     O_R   0.661690 0.664420 0.024130 -0.525640
C1    C     C_R   0.867021 0.863125 0.433088 0.690862
C2    C     C_R   0.132845 0.136982 0.566864 0.698055
C3    C     C_R   0.135905 0.365472 0.568043 0.689386
C4    C     C_R   0.863518 0.634185 0.431591 0.695321
C5    C     C_R   0.062724 0.068475 0.530145 -0.092177
C6    C     C_R   0.936950 0.931772 0.469853 -0.092526
C7    C     C_R   0.931583 0.564180 0.468370 -0.098171
C8    C     C_R   0.066947 0.434902 0.530330 -0.097971
H1    H     H_    0.901168 0.978506 0.178786 0.122948
H2    H     H_    0.098363 0.021829 0.821304 0.125255
H3    H     H_    0.008465 0.408341 0.787730 0.133441
H4    H     H_    0.989565 0.590420 0.210347 0.134113
C9    C     C_R   0.944780 0.987313 0.318835 -0.188941
C10   C     C_R   0.054789 0.013001 0.681223 -0.188161
C11   C     C_R   0.005043 0.448330 0.662107 -0.192621
C12   C     C_R   0.993108 0.550511 0.336155 -0.192210
O13   O     O_3   0.687240 0.750000 0.366320 -0.358160
O14   O     O_3   0.312760 0.250000 0.633680 -0.359364
V1    V     V_3+5 0.757720 0.750000 0.115230 1.408902
V2    V     V_3+5 0.242280 0.250000 0.884770 1.408426
O15   O     O_R   0.650500 0.664000 0.690740 -0.546775
O16   O     O_R   0.349500 0.336000 0.309260 -0.537165
O17   O     O_R   0.349500 0.164000 0.309260 -0.545402
O18   O     O_R   0.650500 0.836000 0.690740 -0.534983
C13   C     C_R   0.632409 0.632801 0.854369 0.702225
C14   C     C_R   0.365735 0.367932 0.145110 0.701947
C15   C     C_R   0.368500 0.133296 0.145817 0.700945
C16   C     C_R   0.634898 0.868219 0.854961 0.701134
C17   C     C_R   0.006008 0.055200 0.345732 0.159168
C18   C     C_R   0.993533 0.945146 0.654376 0.157642
C19   C     C_R   0.937317 0.511072 0.633529 0.167087
C20   C     C_R   0.060200 0.487330 0.363649 0.168873
V3    V     V_3+5 0.735670 0.750000 0.607790 1.430785
V4    V     V_3+5 0.264330 0.250000 0.392210 1.431345
O19   O     O_3   0.806150 0.750000 0.906560 -0.380691
O20   O     O_3   0.193850 0.250000 0.093440 -0.379954
C21   C     C_2   0.583343 0.947863 0.850926 -0.197421
C22   C     C_2   0.433797 0.061239 0.157051 -0.190485
C23   C     C_2   0.419492 0.446508 0.149309 -0.198319
C24   C     C_2   0.568997 0.559542 0.843543 -0.192891
C25   C     C_2   0.552849 0.975994 0.014009 0.227236
C26   C     C_2   0.462442 0.025261 0.998465 0.208124
C27   C     C_2   0.450357 0.474344 0.986470 0.228324
C28   C     C_2   0.540697 0.523624 0.002175 0.218954
C29   C     C_3   0.006770 0.113076 0.176182 -0.716385
H5    H     H_    0.996584 0.177531 0.221954 0.200762
H6    H     H_    0.073623 0.107489 0.119892 0.216390
H7    H     H_    0.950161 0.098783 0.053517 0.194343
C30   C     C_3   0.992588 0.887434 0.824176 -0.716758
H8    H     H_    0.002909 0.822939 0.778870 0.201941
H9    H     H_    0.049026 0.901864 0.947067 0.194057
H10   H     H_    0.925622 0.893065 0.880011 0.214192
C31   C     C_3   0.871159 0.517418 0.779404 -0.724943
H11   H     H_    0.797945 0.516119 0.703304 0.204266
H12   H     H_    0.879673 0.465379 0.884474 0.194126
H13   H     H_    0.884693 0.574914 0.865508 0.213365
C32   C     C_3   0.124072 0.479525 0.213804 -0.726173
H14   H     H_    0.197646 0.481304 0.286270 0.190734
H15   H     H_    0.109596 0.421269 0.131085 0.213460
H16   H     H_    0.114379 0.530607 0.106161 0.195382
C33   C     C_3   0.395804 0.025150 0.807466 -0.695635
H17   H     H_    0.400159 0.084454 0.730838 0.226723
H18   H     H_    0.410024 0.973425 0.713042 0.216550
H19   H     H_    0.323119 0.015651 0.833461 0.182109
C34   C     C_3   0.628551 0.987780 0.190151 -0.671708
H20   H     H_    0.624914 0.937219 0.295661 0.226949
H21   H     H_    0.699466 0.986817 0.149569 0.171951
H22   H     H_    0.622670 0.048685 0.259381 0.190291
C35   C     C_3   0.608579 0.522240 0.191430 -0.705284
H23   H     H_    0.605837 0.581322 0.269553 0.226041
H24   H     H_    0.594295 0.470296 0.285469 0.214281
H25   H     H_    0.680744 0.512347 0.162642 0.184601
C36   C     C_3   0.375276 0.485472 0.809190 -0.675492
H26   H     H_    0.378707 0.433914 0.706344 0.227029
H27   H     H_    0.304201 0.485778 0.849031 0.178028
H28   H     H_    0.382058 0.545732 0.737543 0.189769
C37   C     C_2   0.456782 0.022851 0.349891 0.293526
H29   H     H_    0.467147 0.062112 0.475480 0.109889
O21   O     O_2   0.459364 0.947994 0.368927 -0.528728
C38   C     C_2   0.612679 0.010775 0.717997 0.335487
H30   H     H_    0.649135 0.992014 0.601745 0.059864
O22   O     O_2   0.601462 0.084391 0.743360 -0.527379
C39   C     C_2   0.549360 0.518963 0.652790 0.285785
H31   H     H_    0.541702 0.556798 0.525114 0.110022
O23   O     O_2   0.546657 0.443938 0.638078 -0.527879
C40   C     C_2   0.394915 0.509438 0.286854 0.330226
H32   H     H_    0.362059 0.490724 0.408011 0.056934
O24   O     O_2   0.405972 0.583024 0.260356 -0.525771

loop_
_geom_bond_atom_site_label_1
_geom_bond_atom_site_label_2
_ccdc_geom_bond_type
O6    V2    S    
C27   C28   S    
O11   C14   A    
O15   V3    S    
C33   H17   S    
C25   C34   S    
C39   H31   S    
C35   H23   S    
C28   C35   S    
C34   H20   S    
O2    V4    S    
C22   C26   D    
C1    C6    S    
C5    C10   A    
C6    C18   A    
C29   H6    S    
C16   C21   S    
O12   C13   A    
C24   C39   S    
C30   H9    S    
O4    C1    A    
C32   H15   S    
C35   H24   S    
C31   H12   S    
O16   V4    S    
H3    C11   S    
C37   O21   D    
O5    C1    A    
C23   C40   S    
C34   H21   S    
O8    C4    A    
V1    O19   S    
V2    O20   S    
C2    C5    S    
C30   H8    S    
C6    C9    A    
C8    C20   A    
C7    C19   A    
O4    V3    S    
V3    O19   S    
C3    C8    S    
V4    O20   S    
C36   H27   S    
O18   C16   A    
C36   H28   S    
C9    C17   A    
C13   C24   S    
C29   H7    S    
C14   C23   S    
C36   H26   S    
C12   C20   A    
O9    C16   A    
O15   C13   A    
O13   V3    S    
O10   C15   A    
C27   C36   S    
C30   H10   S    
O17   C15   A    
C7    C12   A    
O10   V2    S    
O6    C2    A    
C26   C33   S    
C22   C37   S    
C19   C31   S    
C31   H13   S    
C38   O22   D    
O18   V3    S    
O1    C4    A    
O2    C3    A    
C18   C30   S    
O3    C2    A    
O11   V2    S    
C31   H11   S    
C40   O24   D    
O12   V1    S    
C33   H19   S    
C33   H18   S    
C21   C38   S    
C35   H25   S    
C10   C18   A    
C34   H22   S    
H1    C9    S    
O7    V2    S    
O16   C14   A    
O8    V1    S    
O14   V4    S    
H4    C12   S    
C32   H16   S    
C39   O23   D    
C25   C26   S    
C8    C11   A    
O3    V4    S    
C17   C29   S    
O13   V1    S    
O14   V2    S    
O1    V3    S    
C29   H5    S    
C4    C7    S    
C21   C25   D    
O7    C3    A    
C38   H30   S    
C23   C27   D    
C32   H14   S    
C5    C17   A    
O9    V1    S    
C11   C19   A    
C15   C22   S    
C40   H32   S    
H2    C10   S    
C20   C32   S    
C37   H29   S    
O17   V4    S    
C24   C28   D    
O5    V1    S    
