data_mof_unit_61514.cif
_audit_creation_date              2012-10-26T21:17:11-0400
_audit_creation_method            fapswitch 2.2
_symmetry_space_group_name_H-M    P1
_symmetry_Int_Tables_number       1
_space_group_crystal_system       triclinic
_cell_length_a                    14.346391
_cell_length_b                    10.946623
_cell_length_c                    9.710408
_cell_angle_alpha                 89.691416
_cell_angle_beta                  90.379345
_cell_angle_gamma                 90.108265
_cell_volume                      1524.90833524

loop_
_atom_site_label
_atom_site_type_symbol
_atom_type_description
_atom_site_fract_x
_atom_site_fract_y
_atom_site_fract_z
_atom_type_partial_charge
C1    C     C_R   0.496557 0.265318 0.500649 0.558533
C2    C     C_R   0.503100 0.734365 0.499736 0.550253
C3    C     C_R   0.668885 0.499909 0.500361 0.539444
C4    C     C_1   0.228769 0.499822 0.499121 -0.044675
C5    C     C_1   0.143354 0.499746 0.499311 -0.045414
C6    C     C_1   0.042698 0.499703 0.499915 -0.004434
C7    C     C_1   0.957286 0.499703 0.500489 -0.005219
C8    C     C_1   0.856631 0.499744 0.501003 -0.049085
C9    C     C_3   0.466983 0.088856 0.750028 -0.304699
C10   C     C_3   0.643850 0.404445 0.908205 -0.236465
C11   C     C_1   0.771219 0.499810 0.501053 -0.051823
C12   C     C_2   0.500313 0.934050 0.388718 -0.143105
C13   C     C_2   0.514436 0.865352 0.501041 -0.094374
C14   C     C_2   0.510320 0.067054 0.394430 -0.132129
C15   C     C_2   0.483375 0.133423 0.503504 0.122888
C16   C     C_2   0.438108 0.443613 0.924184 0.046697
C17   C     C_2   0.447739 0.427869 0.077985 -0.005218
C18   C     C_R   0.331111 0.499948 0.499675 0.544690
Cu1   Cu    Cu3+1 0.500020 0.500020 0.638630 0.925724
Cu2   Cu    Cu3+1 0.499980 0.499980 0.361370 0.919705
H1    H     H_    0.484844 0.892593 0.289766 0.138327
H2    H     H_    0.544476 0.086808 0.749646 0.141105
H3    H     H_    0.621542 0.588653 0.861389 0.264611
H4    H     H_    0.664813 0.386544 0.016625 0.136580
H5    H     H_    0.707981 0.416654 0.846043 0.128192
H6    H     H_    0.605374 0.323398 0.868883 0.154506
H7    H     H_    0.537333 0.905417 0.597205 0.139432
H8    H     H_    0.540591 0.111426 0.304847 0.114078
H9    H     H_    0.376913 0.404264 0.875425 0.093906
H10   H     H_    0.407307 0.356619 0.127737 0.121799
H11   H     H_    0.523000 0.578153 0.108942 0.247345
H12   H     H_    0.359510 0.101452 0.605493 0.249195
H13   H     H_    0.441786 0.010075 0.811904 0.142573
H14   H     H_    0.442761 0.174033 0.799940 0.148939
N1    N     N_2   0.499070 0.498660 0.846910 -0.130470
N2    N     N_2   0.499040 0.498630 0.153040 -0.330895
N3    N     N_2   0.429370 0.079965 0.611520 -0.521744
N4    N     N_2   0.587197 0.514251 0.902381 -0.424759
O1    O     O_R   0.500010 0.321960 0.617040 -0.495793
O2    O     O_R   0.499990 0.321920 0.382900 -0.508944
O3    O     O_R   0.376070 0.500020 0.617100 -0.484304
O4    O     O_R   0.376040 0.499980 0.382950 -0.475313
O5    O     O_R   0.500010 0.678080 0.617100 -0.488553
O6    O     O_R   0.499990 0.678040 0.382960 -0.496527
O7    O     O_R   0.623960 0.500020 0.617050 -0.484463
O8    O     O_R   0.623930 0.499980 0.382900 -0.470118

loop_
_geom_bond_atom_site_label_1
_geom_bond_atom_site_label_2
_ccdc_geom_bond_type
Cu2   O4    S    
Cu1   O7    S    
C14   H8    S    
C6    C7    T    
C1    C15   S    
C17   N2    D    
H3    N4    S    
C3    O8    A    
Cu1   Cu2   S    
C2    O5    A    
C10   N4    S    
C4    C18   S    
C10   H6    S    
C9    N3    S    
C7    C8    S    
Cu1   N1    S    
H12   N3    S    
C9    H13   S    
C17   H10   S    
C5    C6    S    
Cu1   O1    S    
C8    C11   T    
C10   H5    S    
Cu2   O6    S    
C12   C14   S    
C18   O4    A    
C16   N1    D    
C9    H14   S    
Cu2   O2    S    
Cu2   O8    S    
C9    H2    S    
C3    C11   S    
C1    O1    A    
Cu2   N2    S    
N1    N4    S    
C12   C13   D    
C18   O3    A    
C2    O6    A    
C2    C13   S    
H11   N2    S    
C15   N3    S    
C1    O2    A    
C10   H4    S    
C16   H9    S    
C14   C15   D    
C12   H1    S    
C3    O7    A    
C13   H7    S    
Cu1   O3    S    
C16   C17   S    
Cu1   O5    S    
C4    C5    T    
