data_mof_unit_62575.cif
_audit_creation_date              2012-12-10T17:17:52-0500
_audit_creation_method            fapswitch 2.2
_symmetry_space_group_name_H-M    P1
_symmetry_Int_Tables_number       1
_space_group_crystal_system       triclinic
_cell_length_a                    18.558022
_cell_length_b                    18.557899
_cell_length_c                    59.606807
_cell_angle_alpha                 90.096197
_cell_angle_beta                  90.042779
_cell_angle_gamma                 89.924138
_cell_volume                      20528.4064166

loop_
_atom_site_label
_atom_site_type_symbol
_atom_type_description
_atom_site_fract_x
_atom_site_fract_y
_atom_site_fract_z
_atom_type_partial_charge
Br1   Br    Br    0.389981 0.728780 0.033865 -0.250309
Br2   Br    Br    0.762405 0.879381 0.537541 -0.269176
Br3   Br    Br    0.103316 0.777812 0.531614 -0.250506
Br4   Br    Br    0.239660 0.121025 0.538480 -0.260705
Br5   Br    Br    0.126238 0.245379 0.540083 -0.271520
Br6   Br    Br    0.220648 0.898992 0.530676 -0.252337
Br7   Br    Br    0.896341 0.779484 0.530595 -0.251337
Br8   Br    Br    0.767390 0.113395 0.536349 -0.253529
Br9   Br    Br    0.799364 0.595897 0.760929 -0.204868
Br10  Br    Br    0.587200 0.787903 0.759091 -0.198045
Br11  Br    Br    0.208960 0.583081 0.764526 -0.193560
Br12  Br    Br    0.268959 0.388349 0.035630 -0.260953
Br13  Br    Br    0.595873 0.197135 0.765866 -0.197484
Br14  Br    Br    0.299323 0.109529 0.259399 -0.198487
Br15  Br    Br    0.120741 0.305106 0.258769 -0.205412
Br16  Br    Br    0.707612 0.072984 0.265624 -0.197766
Br17  Br    Br    0.058476 0.710165 0.266115 -0.191741
Br18  Br    Br    0.402473 0.122775 0.135105 -0.300726
Br19  Br    Br    0.127453 0.410026 0.135235 -0.301301
Br20  Br    Br    0.596185 0.872873 0.134268 -0.278094
Br21  Br    Br    0.867238 0.589238 0.134228 -0.278273
Br22  Br    Br    0.895227 0.616444 0.635070 -0.303791
Br23  Br    Br    0.613768 0.268400 0.035679 -0.254032
Br24  Br    Br    0.611600 0.890487 0.635012 -0.302876
Br25  Br    Br    0.103000 0.378323 0.634177 -0.275921
Br26  Br    Br    0.384995 0.111163 0.634187 -0.275833
Br27  Br    Br    0.787204 0.554836 0.814371 -0.141381
Br28  Br    Br    0.544579 0.773396 0.812522 -0.147783
Br29  Br    Br    0.222858 0.503617 0.813864 -0.139307
Br30  Br    Br    0.519399 0.211655 0.815516 -0.135680
Br31  Br    Br    0.282177 0.071842 0.313039 -0.141913
Br32  Br    Br    0.086366 0.285239 0.312510 -0.147140
Br33  Br    Br    0.714259 0.993488 0.315053 -0.136509
Br34  Br    Br    0.723965 0.604703 0.032435 -0.257186
Br35  Br    Br    0.978522 0.710706 0.315518 -0.135433
Br36  Br    Br    0.605290 0.724646 0.032713 -0.255918
Br37  Br    Br    0.735724 0.383193 0.036786 -0.255821
Br38  Br    Br    0.385517 0.266641 0.036560 -0.262945
Br39  Br    Br    0.263369 0.619341 0.037574 -0.259369
Br40  Br    Br    0.878838 0.240027 0.538834 -0.262292
C1    C     C_R   0.500029 0.000457 0.939600 0.899909
C2    C     C_R   0.452456 0.047425 0.619775 0.318520
C3    C     C_R   0.483972 0.924539 0.831016 0.665465
C4    C     C_R   0.550126 0.971944 0.331958 0.683429
C5    C     C_R   0.968067 0.545153 0.332089 0.684227
C6    C     C_R   0.425905 0.994022 0.331385 0.671782
C7    C     C_R   0.998913 0.422816 0.331281 0.669461
C8    C     C_R   0.941021 0.522953 0.880106 0.678167
C9    C     C_R   0.496251 0.923539 0.881733 0.675810
C10   C     C_R   0.068542 0.494825 0.880806 0.672471
C11   C     C_R   0.521628 0.051561 0.879343 0.674437
C12   C     C_R   0.428303 0.013845 0.381334 0.675670
C13   C     C_R   0.954368 0.546364 0.620084 0.313140
C14   C     C_R   0.016089 0.426471 0.381589 0.676917
C15   C     C_R   0.558121 0.007165 0.379737 0.677997
C16   C     C_R   0.005071 0.555986 0.379518 0.676665
C17   C     C_R   0.939259 0.520068 0.903440 -0.247616
C18   C     C_R   0.492138 0.929428 0.904989 -0.245634
C19   C     C_R   0.066231 0.491189 0.904125 -0.226874
C20   C     C_R   0.519032 0.056619 0.902654 -0.229437
C21   C     C_R   0.431506 0.009359 0.404628 -0.231730
C22   C     C_R   0.011640 0.430577 0.404868 -0.240970
C23   C     C_R   0.560854 0.003134 0.403046 -0.243148
C24   C     C_R   0.544678 0.953278 0.620047 0.313099
C25   C     C_R   0.000932 0.559576 0.402810 -0.230047
C26   C     C_R   0.003429 0.499550 0.868052 -0.094002
C27   C     C_R   0.500185 0.986885 0.868073 -0.092705
C28   C     C_R   0.491170 0.001603 0.368087 -0.092605
C29   C     C_R   0.001937 0.488392 0.368098 -0.093164
C30   C     C_R   0.430778 0.010188 0.238052 -0.107661
C31   C     C_R   0.013136 0.430438 0.237962 -0.107664
C32   C     C_R   0.563797 0.004660 0.238405 -0.111777
C33   C     C_R   0.999505 0.562811 0.238548 -0.111079
C34   C     C_R   0.934829 0.505297 0.738424 -0.106380
C35   C     C_R   0.541525 0.949218 0.096472 -0.204069
C36   C     C_R   0.502976 0.929677 0.737898 -0.107397
C37   C     C_R   0.067787 0.507274 0.738046 -0.111785
C38   C     C_R   0.512009 0.062411 0.738507 -0.110881
C39   C     C_R   0.497341 0.006909 0.226464 -0.035807
C40   C     C_R   0.005739 0.496829 0.226497 -0.036336
C41   C     C_R   0.000741 0.506126 0.726462 -0.036781
C42   C     C_R   0.507021 0.996360 0.726429 -0.036219
C43   C     C_R   0.637956 0.857789 0.998899 0.867835
C44   C     C_R   0.141189 0.638875 0.999347 0.871672
C45   C     C_R   0.361707 0.141913 0.999083 0.871117
C46   C     C_R   0.947007 0.539159 0.096492 -0.203015
C47   C     C_R   0.860227 0.359436 0.999727 0.855106
C48   C     C_R   0.359765 0.859905 0.999571 0.852611
C49   C     C_R   0.857747 0.637882 0.998890 0.867735
C50   C     C_R   0.638626 0.141439 0.999233 0.870419
C51   C     C_R   0.142025 0.361849 0.999021 0.870477
C52   C     C_R   0.140854 0.360680 0.499931 0.855074
C53   C     C_R   0.642053 0.138086 0.499045 0.876612
C54   C     C_R   0.862029 0.642017 0.498913 0.867214
C55   C     C_R   0.357793 0.861999 0.498870 0.864000
C56   C     C_R   0.861432 0.358323 0.499237 0.877889
C57   C     C_R   0.458436 0.050142 0.096736 -0.200740
C58   C     C_R   0.359118 0.139209 0.499466 0.866997
C59   C     C_R   0.138090 0.642123 0.498922 0.864870
C60   C     C_R   0.639657 0.859246 0.499745 0.852608
C61   C     C_R   0.366851 0.993600 0.226111 0.568600
C62   C     C_R   0.000162 0.365839 0.225919 0.569539
C63   C     C_R   0.627206 0.989495 0.225999 0.570348
C64   C     C_R   0.980567 0.625357 0.226261 0.569875
C65   C     C_R   0.871331 0.485716 0.726706 0.569591
C66   C     C_R   0.479731 0.868125 0.725798 0.567719
C67   C     C_R   0.131171 0.495815 0.725291 0.570413
C68   C     C_R   0.051960 0.461351 0.096812 -0.199624
C69   C     C_R   0.503848 0.127259 0.726231 0.570850
C70   C     C_R   0.226640 0.868273 0.967822 0.687268
C71   C     C_R   0.158837 0.262854 0.959455 0.717208
C72   C     C_R   0.748679 0.144879 0.963333 0.725318
C73   C     C_R   0.843999 0.739579 0.959788 0.706347
C74   C     C_R   0.740101 0.844008 0.959821 0.706852
C75   C     C_R   0.868582 0.226643 0.967962 0.685163
C76   C     C_R   0.262948 0.158658 0.959476 0.718627
C77   C     C_R   0.145276 0.747987 0.963287 0.727091
C78   C     C_R   0.764954 0.338678 0.459280 0.703316
C79   C     C_R   0.044126 0.451521 0.596417 -0.200404
C80   C     C_R   0.631594 0.727138 0.467544 0.687852
C81   C     C_R   0.244124 0.651688 0.460669 0.719208
C82   C     C_R   0.358006 0.253042 0.464649 0.725510
C83   C     C_R   0.271825 0.369598 0.468504 0.690020
C84   C     C_R   0.347821 0.755754 0.460638 0.722377
C85   C     C_R   0.751869 0.645233 0.462910 0.725491
C86   C     C_R   0.661165 0.234398 0.459216 0.704319
C87   C     C_R   0.159579 0.873659 0.957272 -0.312650
C88   C     C_R   0.151405 0.203766 0.945265 -0.301127
C89   C     C_R   0.812744 0.119628 0.954182 -0.300038
C90   C     C_R   0.454554 0.047801 0.596397 -0.203864
C91   C     C_R   0.852873 0.799879 0.946260 -0.304534
C92   C     C_R   0.800480 0.852573 0.946280 -0.306266
C93   C     C_R   0.874426 0.159448 0.957459 -0.313055
C94   C     C_R   0.203928 0.151214 0.945275 -0.300482
C95   C     C_R   0.120058 0.811828 0.954071 -0.302952
C96   C     C_R   0.707020 0.344827 0.444609 -0.305353
C97   C     C_R   0.626095 0.660222 0.456887 -0.312935
C98   C     C_R   0.305958 0.641280 0.447915 -0.311140
C99   C     C_R   0.382002 0.318108 0.455928 -0.299680
C100  C     C_R   0.339601 0.378402 0.458794 -0.313890
C101  C     C_R   0.955128 0.547146 0.596694 -0.203735
C102  C     C_R   0.358283 0.693841 0.447883 -0.304394
C103  C     C_R   0.687826 0.620431 0.453668 -0.300973
C104  C     C_R   0.654635 0.292256 0.444571 -0.304003
C105  C     C_R   0.195863 0.748847 0.981329 -0.149058
C106  C     C_R   0.260425 0.206149 0.978438 -0.154546
C107  C     C_R   0.808713 0.243193 0.982760 -0.137701
C108  C     C_R   0.740665 0.794789 0.978321 -0.147265
C109  C     C_R   0.794825 0.740445 0.978310 -0.146828
C110  C     C_R   0.749142 0.195689 0.981388 -0.148914
C111  C     C_R   0.206255 0.260398 0.978413 -0.153788
C112  C     C_R   0.999799 0.500010 0.939609 0.899724
C113  C     C_R   0.545209 0.953608 0.596672 -0.201020
C114  C     C_R   0.243392 0.808433 0.982604 -0.139073
C115  C     C_R   0.707230 0.238396 0.478418 -0.147753
C116  C     C_R   0.751500 0.696248 0.480827 -0.150235
C117  C     C_R   0.296919 0.757091 0.478707 -0.154532
C118  C     C_R   0.257540 0.310234 0.483530 -0.135841
C119  C     C_R   0.306258 0.251717 0.482389 -0.145166
C120  C     C_R   0.242787 0.702835 0.478730 -0.152587
C121  C     C_R   0.691629 0.743619 0.482303 -0.138899
C122  C     C_R   0.761201 0.292726 0.478521 -0.147074
C123  C     C_R   0.303793 0.803587 0.998105 -0.186331
C124  C     C_R   0.498493 0.997457 0.131937 0.082521
C125  C     C_R   0.203564 0.311479 0.996509 -0.180518
C126  C     C_R   0.692221 0.199993 0.997550 -0.182165
C127  C     C_R   0.795731 0.687704 0.995921 -0.181512
C128  C     C_R   0.687875 0.795822 0.995945 -0.181916
C129  C     C_R   0.804339 0.303008 0.998500 -0.187603
C130  C     C_R   0.311181 0.203311 0.996618 -0.180876
C131  C     C_R   0.199534 0.692623 0.997723 -0.183134
C132  C     C_R   0.810566 0.297116 0.497014 -0.182773
C133  C     C_R   0.695749 0.802971 0.498258 -0.187333
C134  C     C_R   0.188427 0.703628 0.495915 -0.181465
C135  C     C_R   0.996997 0.498696 0.131975 0.082466
C136  C     C_R   0.302146 0.194561 0.498467 -0.184782
C137  C     C_R   0.198563 0.306099 0.499408 -0.188890
C138  C     C_R   0.296130 0.811777 0.495824 -0.181085
C139  C     C_R   0.809408 0.701535 0.496609 -0.178662
C140  C     C_R   0.703657 0.188402 0.496742 -0.182806
C141  C     C_R   0.309705 0.743665 0.012997 0.224320
C142  C     C_R   0.259896 0.313170 0.012693 0.226895
C143  C     C_R   0.690515 0.256873 0.013409 0.227311
C144  C     C_R   0.736772 0.683566 0.011076 0.225335
C145  C     C_R   0.683675 0.736924 0.011127 0.226140
C146  C     C_R   0.998222 0.496935 0.631897 0.082267
C147  C     C_R   0.745123 0.308232 0.013709 0.223030
C148  C     C_R   0.312592 0.259513 0.012867 0.226297
C149  C     C_R   0.256140 0.691309 0.013638 0.226597
C150  C     C_R   0.810495 0.242544 0.513697 0.223432
C151  C     C_R   0.755764 0.808789 0.513135 0.219629
C152  C     C_R   0.183067 0.763866 0.510605 0.227639
C153  C     C_R   0.247486 0.194667 0.515080 0.230152
C154  C     C_R   0.196254 0.249515 0.515442 0.223333
C155  C     C_R   0.235885 0.817397 0.510411 0.226489
C156  C     C_R   0.812717 0.760239 0.511682 0.230307
C157  C     C_R   0.497656 0.999846 0.631875 0.081276
C158  C     C_R   0.758828 0.187988 0.513284 0.227991
C159  C     C_R   0.434779 0.985444 0.167376 0.682044
C160  C     C_R   0.987980 0.434024 0.167300 0.682213
C161  C     C_R   0.561438 0.007938 0.167489 0.683901
C162  C     C_R   0.003321 0.561697 0.167639 0.684382
C163  C     C_R   0.936560 0.482155 0.667615 0.683453
C164  C     C_R   0.478545 0.937563 0.667219 0.681759
C165  C     C_R   0.061613 0.511682 0.667183 0.682971
C166  C     C_R   0.514918 0.060890 0.667543 0.684600
C167  C     C_R   0.497330 0.001752 0.202735 -0.216434
C168  C     C_R   0.000538 0.496865 0.202779 -0.217094
C169  C     C_R   0.999766 0.501542 0.702720 -0.217537
C170  C     C_R   0.501883 0.997315 0.702707 -0.216805
C171  C     C_R   0.432143 0.992712 0.190852 -0.229650
C172  C     C_R   0.000033 0.500180 0.439603 0.900493
C173  C     C_R   0.995228 0.431460 0.190783 -0.229555
C174  C     C_R   0.562978 0.003473 0.190936 -0.230224
C175  C     C_R   0.998511 0.562644 0.191088 -0.229908
C176  C     C_R   0.934651 0.489195 0.691119 -0.230307
C177  C     C_R   0.485771 0.933730 0.690688 -0.229173
C178  C     C_R   0.064542 0.507070 0.690604 -0.229519
C179  C     C_R   0.510725 0.062539 0.691012 -0.230252
C180  C     C_R   0.367155 0.987241 0.202842 0.652032
C181  C     C_R   0.993443 0.366119 0.202669 0.652143
C182  C     C_R   0.627906 0.995703 0.202757 0.653448
C183  C     C_R   0.500140 0.000002 0.439607 0.895940
C184  C     C_R   0.986850 0.626795 0.203016 0.654133
C185  C     C_R   0.870734 0.480124 0.703413 0.652495
C186  C     C_R   0.473540 0.869501 0.702548 0.652453
C187  C     C_R   0.130326 0.502572 0.702074 0.654748
C188  C     C_R   0.510103 0.127681 0.702968 0.653476
C189  C     C_R   0.500077 0.000012 0.084885 -0.102108
C190  C     C_R   0.999866 0.500271 0.084913 -0.104984
C191  C     C_R   0.999853 0.499838 0.584859 -0.098818
C192  C     C_R   0.500061 0.000506 0.584836 -0.095838
C193  C     C_R   0.000948 0.500389 0.915333 -0.181714
C194  C     C_R   0.540673 0.947141 0.119832 0.316755
C195  C     C_R   0.500422 0.996364 0.915350 -0.177150
C196  C     C_R   0.497402 0.000440 0.415362 -0.178064
C197  C     C_R   0.000564 0.496583 0.415370 -0.179448
C198  C     C_R   0.935604 0.515893 0.761968 0.004148
C199  C     C_R   0.514155 0.928087 0.761365 0.003330
C200  C     C_R   0.068391 0.511111 0.761884 -0.001645
C201  C     C_R   0.516217 0.060972 0.762384 -0.001839
C202  C     C_R   0.430848 0.021739 0.261545 0.003934
C203  C     C_R   0.025079 0.430850 0.261410 0.004856
C204  C     C_R   0.563252 0.009016 0.262249 -0.002259
C205  C     C_R   0.944673 0.538100 0.119852 0.316353
C206  C     C_R   0.003936 0.562114 0.262411 -0.002936
C207  C     C_R   0.001880 0.510006 0.773565 0.025323
C208  C     C_R   0.511808 0.993676 0.773518 0.024907
C209  C     C_R   0.496040 0.012237 0.273540 0.025680
C210  C     C_R   0.011584 0.495062 0.273547 0.025257
C211  C     C_R   0.499941 0.000066 0.060424 0.822048
C212  C     C_R   0.000031 0.499998 0.060431 0.823818
C213  C     C_R   0.999872 0.500041 0.560404 0.821047
C214  C     C_R   0.500050 0.000008 0.560402 0.819320
C215  C     C_R   0.873487 0.536043 0.774406 0.278258
C216  C     C_R   0.457666 0.049459 0.120112 0.311205
C217  C     C_R   0.531249 0.863931 0.773218 0.282538
C218  C     C_R   0.132316 0.520154 0.774757 0.282971
C219  C     C_R   0.529099 0.123202 0.775761 0.279354
C220  C     C_R   0.369244 0.046145 0.273524 0.280026
C221  C     C_R   0.053662 0.370785 0.273213 0.281058
C222  C     C_R   0.626853 0.014563 0.275495 0.280790
C223  C     C_R   0.005360 0.625650 0.275787 0.279811
C224  C     C_R   0.872406 0.526573 0.797804 0.273395
C225  C     C_R   0.521444 0.861298 0.796554 0.268525
C226  C     C_R   0.132638 0.501137 0.797549 0.264331
C227  C     C_R   0.051225 0.460773 0.120191 0.310698
C228  C     C_R   0.510996 0.122630 0.798681 0.270599
C229  C     C_R   0.366203 0.037553 0.296919 0.269983
C230  C     C_R   0.045947 0.366888 0.296627 0.270904
C231  C     C_R   0.624654 0.996069 0.298345 0.268823
C232  C     C_R   0.987057 0.621786 0.298635 0.268654
C233  C     C_R   0.935947 0.504723 0.809003 -0.163052
C234  C     C_R   0.502944 0.924930 0.808272 -0.167237
C235  C     C_R   0.066371 0.490501 0.808695 -0.164094
C236  C     C_R   0.496585 0.056039 0.809360 -0.158603
C237  C     C_R   0.427573 0.011912 0.308517 -0.167004
C238  C     C_R   0.043228 0.449197 0.619771 0.317481
C239  C     C_R   0.016396 0.426167 0.308394 -0.167313
C240  C     C_R   0.557042 0.989575 0.309130 -0.160674
C241  C     C_R   0.985102 0.553690 0.309277 -0.158835
C242  C     C_R   0.001552 0.503671 0.797143 -0.151654
C243  C     C_R   0.505697 0.991665 0.797105 -0.150744
C244  C     C_R   0.493862 0.006516 0.297123 -0.151237
C245  C     C_R   0.006262 0.492074 0.297139 -0.151424
C246  C     C_R   0.062245 0.471647 0.831423 0.675200
C247  C     C_R   0.479000 0.050566 0.832270 0.685655
C248  C     C_R   0.937390 0.487706 0.831975 0.680940
F1    F     F_    0.305268 0.974861 0.236977 -0.546182
F2    F     F_    0.131497 0.325477 0.951417 -0.621065
F3    F     F_    0.687195 0.129425 0.951816 -0.619495
F4    F     F_    0.871557 0.677542 0.951333 -0.627346
F5    F     F_    0.678247 0.871846 0.951366 -0.622324
F6    F     F_    0.910333 0.276590 0.957721 -0.605555
F7    F     F_    0.325583 0.131278 0.951436 -0.616557
F8    F     F_    0.129851 0.686402 0.951895 -0.616457
F9    F     F_    0.828065 0.365595 0.451550 -0.627916
F10   F     F_    0.588646 0.776688 0.457687 -0.604562
F11   F     F_    0.183186 0.624029 0.451587 -0.612484
F12   F     F_    0.985355 0.303111 0.236718 -0.544698
F13   F     F_    0.373801 0.193067 0.452502 -0.614047
F14   F     F_    0.219802 0.403920 0.456654 -0.600685
F15   F     F_    0.375218 0.816744 0.451553 -0.612076
F16   F     F_    0.813375 0.628665 0.451640 -0.618797
F17   F     F_    0.634446 0.171124 0.451503 -0.628563
F18   F     F_    0.303483 0.974293 0.192270 -0.503860
F19   F     F_    0.983900 0.302005 0.192006 -0.503452
F20   F     F_    0.691395 0.985670 0.191803 -0.500101
F21   F     F_    0.973164 0.689723 0.192171 -0.500520
F22   F     F_    0.807330 0.464266 0.693107 -0.502798
F23   F     F_    0.686461 0.960069 0.235774 -0.541864
F24   F     F_    0.454160 0.807715 0.691846 -0.503916
F25   F     F_    0.193593 0.496071 0.690784 -0.500710
F26   F     F_    0.506971 0.192029 0.692136 -0.500022
F27   F     F_    0.884530 0.556513 0.869995 -0.571619
F28   F     F_    0.507717 0.855724 0.873931 -0.557126
F29   F     F_    0.134986 0.503924 0.871727 -0.562673
F30   F     F_    0.551242 0.108234 0.868223 -0.576678
F31   F     F_    0.366246 0.040888 0.372854 -0.560018
F32   F     F_    0.044867 0.364779 0.373423 -0.559443
F33   F     F_    0.620422 0.024563 0.369166 -0.574348
F34   F     F_    0.947567 0.682539 0.236124 -0.543742
F35   F     F_    0.019585 0.618523 0.368654 -0.573849
F36   F     F_    0.811526 0.463243 0.737794 -0.545354
F37   F     F_    0.454385 0.808757 0.736544 -0.546566
F38   F     F_    0.192308 0.469299 0.734700 -0.543234
F39   F     F_    0.480914 0.189114 0.736139 -0.542198
F40   F     F_    0.275960 0.911124 0.957894 -0.608275
H1    H     H_    0.145631 0.921584 0.947782 0.205716
H2    H     H_    0.578027 0.646474 0.447384 0.204818
H3    H     H_    0.308007 0.598896 0.435418 0.216533
H4    H     H_    0.426610 0.319552 0.444313 0.202461
H5    H     H_    0.351777 0.426637 0.449288 0.202544
H6    H     H_    0.400491 0.691824 0.435354 0.216842
H7    H     H_    0.687701 0.576443 0.441742 0.204086
H8    H     H_    0.615782 0.290637 0.431095 0.212614
H9    H     H_    0.426102 0.089492 0.087794 0.204668
H10   H     H_    0.092983 0.431031 0.087908 0.206803
H11   H     H_    0.574897 0.911322 0.087309 0.202301
H12   H     H_    0.111468 0.204169 0.932026 0.218425
H13   H     H_    0.907586 0.570614 0.087323 0.204648
H14   H     H_    0.920523 0.584435 0.587749 0.199907
H15   H     H_    0.580532 0.916912 0.587702 0.199515
H16   H     H_    0.079790 0.415857 0.587236 0.202458
H17   H     H_    0.420900 0.085315 0.587198 0.198714
H18   H     H_    0.890202 0.535426 0.912224 0.215094
H19   H     H_    0.486883 0.880757 0.915033 0.204058
H20   H     H_    0.116277 0.485203 0.913471 0.212931
H21   H     H_    0.533168 0.107176 0.910807 0.214719
H22   H     H_    0.382797 0.016556 0.414408 0.210142
H23   H     H_    0.812685 0.075520 0.942226 0.203136
H24   H     H_    0.020407 0.382521 0.414831 0.206497
H25   H     H_    0.612456 0.005120 0.411552 0.207180
H26   H     H_    0.000948 0.611590 0.411114 0.209645
H27   H     H_    0.893962 0.800480 0.933366 0.209998
H28   H     H_    0.801318 0.893666 0.933406 0.209632
H29   H     H_    0.922513 0.145853 0.947965 0.205539
H30   H     H_    0.204379 0.111229 0.932038 0.218536
H31   H     H_    0.076055 0.811614 0.942140 0.203338
H32   H     H_    0.708401 0.383601 0.431094 0.211568
N1    N     N_R   0.498219 0.996860 0.156114 -0.358545
N2    N     N_R   0.995998 0.498123 0.156165 -0.358635
N3    N     N_R   0.998727 0.496909 0.656071 -0.358679
N4    N     N_R   0.496864 0.999481 0.656071 -0.358756
N5    N     N_R   0.001467 0.487814 0.843621 -0.346723
N6    N     N_R   0.488877 0.986604 0.843606 -0.345420
N7    N     N_R   0.488837 0.990731 0.343612 -0.346622
N8    N     N_R   0.991017 0.485122 0.343630 -0.346156
O1    O     O_3   0.500000 0.000000 0.999950 -0.557082
O2    O     O_R   0.500000 0.939340 0.450010 -0.565086
O3    O     O_R   0.060660 0.500000 0.450010 -0.567682
O4    O     O_R   0.500000 0.060660 0.450010 -0.569138
O5    O     O_R   0.500000 0.939280 0.049890 -0.618916
O6    O     O_R   0.060720 0.500000 0.049890 -0.618438
O7    O     O_R   0.500000 0.060720 0.049890 -0.617833
O8    O     O_R   0.939280 0.500000 0.049890 -0.619311
O9    O     O_R   0.000000 0.439280 0.549890 -0.614027
O10   O     O_R   0.560720 0.000000 0.549890 -0.615089
O11   O     O_R   0.000000 0.560720 0.549890 -0.620093
O12   O     O_3   0.000000 0.500000 0.999950 -0.557033
O13   O     O_R   0.439280 0.000000 0.549890 -0.616501
O14   O     O_R   0.646240 0.914580 0.986850 -0.598225
O15   O     O_R   0.085420 0.646240 0.986850 -0.607051
O16   O     O_R   0.353760 0.085420 0.986850 -0.586204
O17   O     O_R   0.914580 0.353760 0.986850 -0.577526
O18   O     O_R   0.353760 0.914580 0.986850 -0.577496
O19   O     O_R   0.914580 0.646240 0.986850 -0.598999
O20   O     O_R   0.646240 0.085420 0.986850 -0.607513
O21   O     O_R   0.085420 0.353760 0.986850 -0.587045
O22   O     O_R   0.146240 0.414580 0.486850 -0.582848
O23   O     O_3   0.000000 0.500000 0.499950 -0.557190
O24   O     O_R   0.585420 0.146240 0.486850 -0.599686
O25   O     O_R   0.853760 0.585420 0.486850 -0.608042
O26   O     O_R   0.414580 0.853760 0.486850 -0.586280
O27   O     O_R   0.853760 0.414580 0.486850 -0.599050
O28   O     O_R   0.414580 0.146240 0.486850 -0.606421
O29   O     O_R   0.146240 0.585420 0.486850 -0.589922
O30   O     O_R   0.585420 0.853760 0.486850 -0.576659
O31   O     O_R   0.414600 0.146170 0.013040 -0.601518
O32   O     O_R   0.853830 0.414600 0.013040 -0.595684
O33   O     O_R   0.585400 0.853830 0.013040 -0.600371
O34   O     O_3   0.500000 0.000000 0.499950 -0.557918
O35   O     O_R   0.146170 0.585400 0.013040 -0.595783
O36   O     O_R   0.585400 0.146170 0.013040 -0.596593
O37   O     O_R   0.146170 0.414600 0.013040 -0.602134
O38   O     O_R   0.414600 0.853830 0.013040 -0.596306
O39   O     O_R   0.853830 0.585400 0.013040 -0.600941
O40   O     O_R   0.914600 0.646170 0.513040 -0.599861
O41   O     O_R   0.353830 0.914600 0.513040 -0.599351
O42   O     O_R   0.085400 0.353830 0.513040 -0.597723
O43   O     O_R   0.646170 0.085400 0.513040 -0.598536
O44   O     O_R   0.085400 0.646170 0.513040 -0.598163
O45   O     O_R   0.439340 0.000000 0.950010 -0.567170
O46   O     O_R   0.646170 0.914600 0.513040 -0.597625
O47   O     O_R   0.914600 0.353830 0.513040 -0.597597
O48   O     O_R   0.353830 0.085400 0.513040 -0.597162
O49   O     O_2   0.374763 0.967470 0.155814 -0.409969
O50   O     O_2   0.973467 0.373288 0.155649 -0.410160
O51   O     O_2   0.622435 0.023483 0.156134 -0.414356
O52   O     O_2   0.015531 0.623608 0.156403 -0.414029
O53   O     O_2   0.877144 0.460958 0.656320 -0.407700
O54   O     O_2   0.453813 0.880145 0.655599 -0.410254
O55   O     O_2   0.120980 0.530894 0.655570 -0.415033
O56   O     O_R   0.000000 0.439340 0.950010 -0.567167
O57   O     O_2   0.537174 0.119917 0.656287 -0.412911
O58   O     O_2   0.876981 0.462732 0.841788 -0.415216
O59   O     O_2   0.449948 0.866077 0.839064 -0.394705
O60   O     O_2   0.113750 0.428736 0.840090 -0.408482
O61   O     O_2   0.446096 0.106366 0.842607 -0.426997
O62   O     O_2   0.363652 0.969500 0.340085 -0.399585
O63   O     O_2   0.979085 0.358787 0.339827 -0.395898
O64   O     O_2   0.600411 0.929618 0.341633 -0.421738
O65   O     O_2   0.922862 0.592515 0.341954 -0.425662
O66   O     O_R   0.560660 0.000000 0.950010 -0.568505
O67   O     O_R   0.000000 0.560660 0.950010 -0.567836
O68   O     O_R   0.939340 0.500000 0.450010 -0.565581
Zn1   Zn    Zn3+2 0.500000 0.913250 0.018650 1.055780
Zn2   Zn    Zn3+2 0.000000 0.586820 0.981240 1.073406
Zn3   Zn    Zn3+2 0.413180 0.000000 0.981240 1.093338
Zn4   Zn    Zn3+2 0.000000 0.413180 0.981240 1.093371
Zn5   Zn    Zn3+2 0.086820 0.500000 0.481240 1.090316
Zn6   Zn    Zn3+2 0.500000 0.086820 0.481240 1.072052
Zn7   Zn    Zn3+2 0.913180 0.500000 0.481240 1.074137
Zn8   Zn    Zn3+2 0.500000 0.913180 0.481240 1.094511
Zn9   Zn    Zn3+2 0.086750 0.500000 0.018650 1.061163
Zn10  Zn    Zn3+2 0.500000 0.086750 0.018650 1.061181
Zn11  Zn    Zn3+2 0.913250 0.500000 0.018650 1.056249
Zn12  Zn    Zn3+2 0.000000 0.413250 0.518650 1.060165
Zn13  Zn    Zn3+2 0.586750 0.000000 0.518650 1.058818
Zn14  Zn    Zn3+2 0.000000 0.586750 0.518650 1.057896
Zn15  Zn    Zn3+2 0.413250 0.000000 0.518650 1.059319
Zn16  Zn    Zn3+2 0.586820 0.000000 0.981240 1.073573

loop_
_geom_bond_atom_site_label_1
_geom_bond_atom_site_label_2
_ccdc_geom_bond_type
C41   C169  A    
O7    Zn10  S    
C44   C131  S    
C25   C197  A    
Br9   C215  S    
C171  C180  A    
C97   H2    S    
C10   C19   A    
C58   O48   A    
C82   C99   A    
C32   C39   A    
C12   C21   A    
C102  H6    S    
C187  F25   S    
C8    F27   S    
C220  C229  A    
C35   C189  A    
C235  C242  A    
C151  C156  A    
C49   C127  S    
C160  O50   S    
C174  C182  A    
C222  C231  A    
C85   F16   S    
O56   Zn4   S    
C51   O21   A    
C198  C207  A    
C113  C192  A    
C163  N3    A    
C72   C89   A    
C172  C197  S    
C79   C191  A    
C177  C186  A    
C47   O17   A    
O39   Zn11  S    
C23   H25   S    
C203  C210  A    
Br33  C231  S    
C75   F6    S    
Br29  C226  S    
C87   H1    S    
O22   Zn5   S    
C35   H11   S    
C14   F32   S    
C53   C140  S    
C7    C239  A    
C19   H20   S    
C115  C122  A    
C212  O6    A    
C4    N7    A    
C60   O46   A    
C79   H16   S    
C56   O47   A    
C217  C225  A    
C129  C147  A    
C18   C195  A    
C204  C209  A    
Br1   C141  S    
C52   O42   A    
C183  O2    A    
C132  C150  A    
C133  C151  A    
C7    O63   S    
C199  C208  A    
C230  C239  A    
C188  F26   S    
C22   H24   S    
C38   C42   A    
C226  C235  A    
C5    N8    A    
C180  F18   S    
C57   C216  A    
C89   C93   A    
C31   C62   A    
C25   H26   S    
C117  C120  A    
C118  C119  A    
C47   O32   A    
C34   C41   A    
C77   C95   A    
C78   C96   A    
C115  C140  A    
C247  O61   S    
C248  O58   S    
C78   C122  A    
C30   C39   A    
C202  C209  A    
C199  C217  A    
C176  C185  A    
C104  H8    S    
C99   C100  A    
C32   C63   A    
C166  C179  A    
C159  O49   S    
C98   H3    S    
C5    O65   S    
C183  O4    A    
C50   O20   A    
C100  H5    S    
C44   O15   A    
C6    N7    A    
C96   H32   S    
Br37  C147  S    
C59   C134  S    
C39   C167  A    
Br27  C224  S    
C112  O56   A    
O31   Zn10  S    
C214  O13   A    
C161  C174  A    
C140  C158  A    
Br28  C225  S    
C31   C203  A    
C135  C205  A    
C74   F5    S    
C153  C154  A    
O45   Zn3   S    
Br7   C156  S    
Br5   C154  S    
C236  C247  A    
C212  O8    A    
C76   F7    S    
C168  C173  A    
C209  C244  A    
C75   C107  A    
C123  C141  A    
Br8   C158  S    
C184  F21   S    
O9    Zn12  S    
C30   C61   A    
C8    C17   A    
C3    C234  A    
C68   C190  A    
O12   Zn2   S    
C11   F30   S    
C22   C197  A    
C36   C199  A    
C1    O45   A    
C233  C242  A    
C207  C242  A    
C94   H30   S    
C62   F12   S    
Br39  C149  S    
Br38  C148  S    
C110  C126  A    
C91   H27   S    
C6    C237  A    
C144  C145  A    
C64   F34   S    
C55   O26   A    
C219  C228  A    
C81   F11   S    
C23   C196  A    
C48   O38   A    
C166  O57   S    
C15   C23   A    
C200  C207  A    
C48   O18   A    
C179  C188  A    
C13   C101  A    
C112  O67   A    
C60   O30   A    
C167  C171  A    
C19   C193  A    
C20   C195  A    
C173  C181  A    
O27   Zn7   S    
O12   Zn9   S    
O38   Zn1   S    
C26   N5    S    
C186  F24   S    
Br12  C142  S    
C38   C201  A    
C248  N5    A    
C246  N5    A    
C124  C194  A    
C49   O39   A    
C86   F17   S    
C161  O51   S    
C146  N3    S    
C36   C42   A    
C95   H31   S    
C1    C195  S    
C111  C125  A    
C24   C113  A    
C12   F31   S    
C167  C174  A    
C103  H7    S    
C170  C179  A    
C34   C198  A    
C13   C146  A    
Br23  C143  S    
O43   Zn13  S    
C88   C94   A    
C127  C144  A    
C90   C192  A    
C53   O24   A    
C228  C236  A    
Br10  C217  S    
C229  C237  A    
C11   C27   A    
C189  C211  S    
C105  C114  A    
C40   C168  A    
C237  C244  A    
C116  C121  A    
C168  C175  A    
C119  C136  A    
C72   C110  A    
O6    Zn9   S    
C204  C222  A    
C54   O40   A    
C7    N8    A    
C218  C226  A    
Br26  C2    S    
Br19  C227  S    
C36   C66   A    
C83   C118  A    
O24   Zn6   S    
O47   Zn12  S    
C51   C125  S    
C234  C243  A    
Br25  C238  S    
C90   H17   S    
O32   Zn11  S    
C46   C205  A    
C18   H19   S    
C161  N1    A    
O40   Zn14  S    
C198  C215  A    
C89   H23   S    
C20   H21   S    
C213  O9    A    
Br13  C219  S    
C84   F15   S    
Br14  C220  S    
Br3   C152  S    
C34   C65   A    
C76   C106  A    
O28   Zn6   S    
C4    C240  A    
C85   C103  A    
C86   C104  A    
C247  N6    A    
C38   C69   A    
C54   C139  S    
C159  N1    A    
O23   Zn12  S    
C52   C137  S    
C106  C111  A    
C1    O66   A    
O29   Zn5   S    
Br24  C24   S    
C16   C29   A    
C130  C148  A    
C71   C88   A    
C172  O68   A    
C72   F3    S    
C21   H22   S    
C11   C20   A    
C203  C221  A    
C200  C218  A    
C124  N1    S    
C64   C184  A    
O12   Zn11  S    
C146  C238  A    
C134  C152  A    
C42   C170  A    
C164  O54   S    
C32   C204  A    
Br32  C230  S    
C109  C127  A    
Br35  C232  S    
C175  C184  A    
C61   F1    S    
C15   C28   A    
C185  F22   S    
C182  F20   S    
O1    Zn10  S    
C170  C177  A    
C57   H9    S    
C125  C142  A    
C239  C245  A    
C87   C95   A    
O12   Zn4   S    
C76   C94   A    
C82   F13   S    
O33   Zn1   S    
C35   C194  A    
C77   C105  A    
Br36  C145  S    
C44   O35   A    
C141  C149  A    
O1    Zn1   S    
C81   C120  A    
C50   O36   A    
C82   C119  A    
O11   Zn14  S    
C162  C175  A    
C16   F35   S    
C73   C91   A    
C85   C116  A    
C86   C115  A    
C163  O53   S    
C24   C157  A    
C50   C126  S    
C124  C216  A    
C74   C92   A    
O23   Zn7   S    
Br6   C155  S    
C69   C188  A    
C139  C156  A    
C241  C245  A    
Br4   C153  S    
O46   Zn13  S    
C137  C154  A    
C46   C190  A    
C163  C176  A    
C113  H15   S    
C83   F14   S    
C192  C214  S    
Br2   C151  S    
C98   C102  A    
C135  C227  A    
C54   O25   A    
C33   C206  A    
C75   C93   A    
O66   Zn16  S    
C71   C111  A    
C101  H14   S    
C67   F38   S    
C68   H10   S    
C152  C155  A    
O68   Zn7   S    
C143  C147  A    
C58   C136  S    
O21   Zn4   S    
C213  O11   A    
C84   C117  A    
C107  C110  A    
C56   O27   A    
C164  N4    A    
C246  O60   S    
C9    F28   S    
C231  C240  A    
C3    N6    A    
C157  N4    S    
C108  C128  A    
O1    Zn16  S    
C201  C219  A    
Br30  C228  S    
C91   C92   A    
C178  C187  A    
C165  N3    A    
C150  C158  A    
C43   C128  S    
C232  C241  A    
O42   Zn12  S    
C43   O33   A    
C120  C134  A    
C2    C157  A    
C126  C143  A    
C6    O62   S    
C28   N7    S    
C112  C193  S    
C101  C191  A    
C14   C22   A    
O37   Zn9   S    
C45   C130  S    
C135  N2    S    
Br18  C216  S    
C74   C108  A    
C96   C104  A    
O23   Zn14  S    
C61   C180  A    
O1    Zn3   S    
C14   C29   A    
C15   F33   S    
C210  C245  A    
O5    Zn1   S    
C92   H28   S    
C191  C213  S    
C69   F39   S    
C17   H18   S    
O26   Zn8   S    
C53   O43   A    
C215  C224  A    
C51   O37   A    
C233  C248  A    
C3    O59   S    
C80   C97   A    
O34   Zn15  S    
C142  C148  A    
C235  C246  A    
O23   Zn5   S    
C208  C243  A    
C62   C181  A    
C47   C129  S    
C105  C131  A    
C201  C208  A    
C27   N6    S    
C59   O44   A    
C79   C238  A    
C181  F19   S    
O2    Zn8   S    
C73   F4    S    
C71   F2    S    
C169  C178  A    
O34   Zn8   S    
C118  C137  A    
O18   Zn3   S    
C63   C182  A    
O3    Zn5   S    
C116  C139  A    
O13   Zn15  S    
C43   O14   A    
C16   C25   A    
Br20  C194  S    
C121  C133  A    
C131  C149  A    
C55   C138  S    
C59   O29   A    
C33   C64   A    
C52   O22   A    
C4    O64   S    
Br31  C229  S    
C66   C186  A    
Br34  C144  S    
C37   C41   A    
C49   O19   A    
C70   C87   A    
C117  C138  A    
O67   Zn2   S    
Br16  C222  S    
C97   C103  A    
C211  O7    A    
C84   C102  A    
O16   Zn3   S    
C190  C212  S    
C31   C40   A    
Br22  C13   S    
C99   H4    S    
O36   Zn10  S    
C57   C189  A    
C165  C178  A    
C46   H13   S    
C169  C176  A    
C5    C241  A    
C77   F8    S    
Br11  C218  S    
C73   C109  A    
C114  C123  A    
C37   C67   A    
C108  C109  A    
C166  N4    A    
C183  C196  S    
O8    Zn11  S    
C10   F29   S    
C45   O16   A    
Br21  C205  S    
O4    Zn6   S    
C83   C100  A    
C9    C18   A    
C67   C187  A    
C81   C98   A    
Br17  C223  S    
C68   C227  A    
O44   Zn14  S    
C63   F23   S    
C70   C114  A    
C165  O55   S    
O41   Zn15  S    
C65   F36   S    
C45   O31   A    
C160  C173  A    
C122  C132  A    
C2    C90   A    
C88   H12   S    
O34   Zn13  S    
C162  O52   S    
C10   C26   A    
C80   F10   S    
C221  C230  A    
C80   C121  A    
O48   Zn15  S    
C223  C232  A    
O17   Zn4   S    
C65   C185  A    
C106  C130  A    
C136  C153  A    
C29   N8    S    
C93   H29   S    
O10   Zn13  S    
C70   F40   S    
O20   Zn16  S    
C206  C210  A    
C21   C196  A    
C128  C145  A    
C9    C27   A    
C78   F9    S    
C224  C233  A    
C202  C220  A    
O34   Zn6   S    
C240  C244  A    
C12   C28   A    
C17   C193  A    
C236  C243  A    
C162  N2    A    
C48   C123  S    
O30   Zn8   S    
C138  C155  A    
C37   C200  A    
C164  C177  A    
C214  O10   A    
C8    C26   A    
O19   Zn2   S    
C30   C202  A    
O35   Zn9   S    
C66   F37   S    
C33   C40   A    
C160  N2    A    
C172  O3    A    
C159  C171  A    
O14   Zn16  S    
C225  C234  A    
Br40  C150  S    
C56   C132  S    
C58   O28   A    
C60   C133  S    
C211  O5    A    
O15   Zn2   S    
Br15  C221  S    
C55   O41   A    
C206  C223  A    
C107  C129  A    
O25   Zn7   S    
