data_mof_unit_17257.cif
_audit_creation_date              2012-12-10T18:11:42-0500
_audit_creation_method            fapswitch 2.2
_symmetry_space_group_name_H-M    P1
_symmetry_Int_Tables_number       1
_space_group_crystal_system       triclinic
_cell_length_a                    10.488153
_cell_length_b                    12.661865
_cell_length_c                    13.083
_cell_angle_alpha                 81.689971
_cell_angle_beta                  91.376892
_cell_angle_gamma                 102.144658
_cell_volume                      1680.66245563

loop_
_atom_site_label
_atom_site_type_symbol
_atom_type_description
_atom_site_fract_x
_atom_site_fract_y
_atom_site_fract_z
_atom_type_partial_charge
C1    C     C_R   0.477070 0.438900 0.691119 0.865230
C2    C     C_3   0.067077 0.598316 0.517982 -0.129611
C3    C     C_3   0.966380 0.520454 0.592923 -0.161940
C4    C     C_3   0.877587 0.500258 0.500512 0.019053
C5    C     C_R   0.415299 0.710323 0.060167 -0.142746
C6    C     C_R   0.499889 0.597416 0.199006 -0.047032
C7    C     C_R   0.468216 0.295655 0.842895 -0.150065
C8    C     C_R   0.470550 0.265856 0.949082 -0.139867
C9    C     C_R   0.464642 0.342246 0.014175 -0.184130
C10   C     C_R   0.448364 0.448548 0.973345 0.088723
C11   C     C_R   0.423787 0.471465 0.867359 0.030953
C12   C     C_R   0.742061 0.500311 0.500422 0.881346
C13   C     C_R   0.455373 0.532633 0.034476 0.034524
C14   C     C_R   0.412591 0.630019 0.995430 0.093459
C15   C     C_R   0.367208 0.643383 0.893484 0.226587
C16   C     C_R   0.373387 0.564839 0.830590 -0.232116
C17   C     C_R   0.508173 0.522941 0.132931 -0.231738
C18   C     C_R   0.456105 0.692871 0.162390 -0.222333
C19   C     C_R   0.451167 0.400179 0.801133 -0.116270
C20   C     C_R   0.323122 0.092490 0.341230 -0.306719
C21   C     C_R   0.671423 0.801586 0.616148 0.047902
C22   C     C_R   0.732094 0.909613 0.618113 -0.232275
C23   C     C_R   0.512502 0.561213 0.308605 0.844335
C24   C     C_R   0.678258 0.991366 0.562229 -0.135798
C25   C     C_R   0.557328 0.965896 0.511982 0.043887
C26   C     C_R   0.510940 0.855537 0.499836 0.248351
C27   C     C_R   0.486650 0.045112 0.466393 -0.064364
C28   C     C_R   0.389589 0.015484 0.392008 0.162896
C29   C     C_R   0.357576 0.908432 0.370723 -0.273751
C30   C     C_R   0.414833 0.828971 0.426162 -0.216646
C31   C     C_R   0.500594 0.150125 0.495805 0.335763
C32   C     C_R   0.348365 0.196929 0.367679 -0.044268
C33   C     C_R   0.257962 0.499650 0.499788 0.833173
C34   C     C_3   0.933109 0.401714 0.482580 -0.111830
C35   C     C_3   0.024585 0.422149 0.575019 -0.163137
C36   C     C_3   0.122536 0.499754 0.500017 0.022199
C37   C     C_3   0.033768 0.479593 0.407631 -0.191842
C38   C     C_3   0.975598 0.577899 0.425546 -0.193913
H1    H     H_    0.049282 0.358812 0.635644 0.146743
H2    H     H_    0.553416 0.455361 0.161377 0.150975
H3    H     H_    0.482449 0.237512 0.793958 0.211665
H4    H     H_    0.468622 0.315122 0.096095 0.133933
H5    H     H_    0.482414 0.184725 0.980976 0.156525
H6    H     H_    0.335657 0.576719 0.753034 0.198580
H7    H     H_    0.298922 0.257853 0.328246 0.147532
H8    H     H_    0.284544 0.885121 0.313489 0.153644
H9    H     H_    0.251460 0.071752 0.282357 0.155053
H10   H     H_    0.715346 0.737024 0.655402 0.142814
H11   H     H_    0.874837 0.321283 0.468240 0.160298
H12   H     H_    0.736645 0.073028 0.553807 0.178607
H13   H     H_    0.823148 0.929750 0.658738 0.164278
H14   H     H_    0.385507 0.748213 0.407088 0.206162
H15   H     H_    0.065949 0.462867 0.332427 0.140420
H16   H     H_    0.951040 0.641314 0.364940 0.142551
H17   H     H_    0.125472 0.678695 0.532357 0.169415
H18   H     H_    0.934320 0.537247 0.668136 0.149474
H19   H     H_    0.448578 0.751473 0.213388 0.155268
H20   H     H_    0.382120 0.784872 0.033846 0.186110
N1    N     N_R   0.432930 0.222190 0.444670 -0.113608
N2    N     N_R   0.566370 0.776980 0.554790 -0.130908
O1    O     O_R   0.467970 0.366730 0.627150 -0.561622
O2    O     O_R   0.510820 0.544830 0.662520 -0.617167
O3    O     O_R   0.664630 0.410960 0.482340 -0.587104
O4    O     O_R   0.707470 0.589060 0.517710 -0.627632
O5    O     O_R   0.489180 0.455170 0.337480 -0.620600
O6    O     O_R   0.532030 0.633270 0.372850 -0.632160
O7    O     O_R   0.292530 0.410940 0.482290 -0.614031
O8    O     O_R   0.335370 0.589040 0.517660 -0.646745
Zn1   Zn    Zn3+2 0.471390 0.381080 0.476380 0.976216
Zn2   Zn    Zn3+2 0.528610 0.618920 0.523620 0.934232
Br1   Br    Br    0.592034 0.189662 0.618323 -0.549969
Br2   Br    Br    0.300686 0.768627 0.833570 -0.544941

loop_
_geom_bond_atom_site_label_1
_geom_bond_atom_site_label_2
_ccdc_geom_bond_type
C34   C37   S    
C32   H7    S    
C35   C36   S    
C8    H5    S    
C1    O2    A    
C3    H18   S    
C7    C8    A    
C15   Br2   S    
C11   C19   A    
C9    H4    S    
C29   C30   A    
C5    H20   S    
C23   O6    A    
C36   C37   S    
C2    H17   S    
C12   O4    A    
O1    Zn1   S    
C15   C16   A    
C33   C36   S    
O2    Zn2   S    
C34   C35   S    
C11   C16   A    
C31   N1    A    
O3    Zn1   S    
C8    C9    A    
O4    Zn2   S    
C4    C12   S    
C9    C10   A    
C16   H6    S    
C21   H10   S    
C37   H15   S    
C31   Br1   S    
C21   C22   A    
C24   H12   S    
C6    C18   A    
C4    C34   S    
C1    C19   S    
C27   C31   A    
C24   C25   A    
C21   N2    A    
C12   O3    A    
C5    C18   A    
C20   C28   A    
C25   C26   A    
O7    Zn1   S    
C17   H2    S    
C35   H1    S    
C37   C38   S    
C3    C35   S    
C2    C38   S    
C18   H19   S    
C38   H16   S    
N2    Zn2   S    
C5    C14   A    
N1    Zn1   S    
C4    C38   S    
C26   C30   A    
C7    C19   A    
C22   C24   A    
C3    C4    S    
C33   O7    A    
C20   C32   A    
C2    C36   S    
C6    C17   A    
C30   H14   S    
C28   C29   A    
C34   H11   S    
C10   C13   A    
C1    O1    A    
C25   C27   A    
C13   C17   A    
C29   H8    S    
C23   O5    A    
C2    C3    S    
O6    Zn2   S    
O5    Zn1   S    
C6    C23   S    
C7    H3    S    
C20   H9    S    
C10   C11   A    
O8    Zn2   S    
C27   C28   A    
C14   C15   A    
C32   N1    A    
C13   C14   A    
C26   N2    A    
C33   O8    A    
C22   H13   S    
