data_mof_unit_53819.cif
_audit_creation_date              2012-12-10T16:52:36-0500
_audit_creation_method            fapswitch 2.2
_symmetry_space_group_name_H-M    P1
_symmetry_Int_Tables_number       1
_space_group_crystal_system       triclinic
_cell_length_a                    7.998585
_cell_length_b                    8.549506
_cell_length_c                    13.959818
_cell_angle_alpha                 94.629696
_cell_angle_beta                  95.070704
_cell_angle_gamma                 93.304358
_cell_volume                      945.769618474

loop_
_atom_site_label
_atom_site_type_symbol
_atom_type_description
_atom_site_fract_x
_atom_site_fract_y
_atom_site_fract_z
_atom_type_partial_charge
C1    C     C_R   0.043763 0.793553 0.497090 0.952846
C2    C     C_R   0.933857 0.485314 0.319388 0.841507
C3    C     C_R   0.103508 0.538207 0.787186 -0.127690
C4    C     C_R   0.890202 0.452882 0.216656 -0.118231
C5    C     C_R   0.010662 0.579600 0.947752 -0.204132
C6    C     C_R   0.888857 0.268253 0.076456 -0.193530
C7    C     C_R   0.973600 0.561822 0.847609 -0.225324
C8    C     C_R   0.958338 0.325452 0.167968 -0.242606
C9    C     C_R   0.269276 0.531326 0.829573 0.075674
C10   C     C_R   0.752340 0.525353 0.174077 0.101096
C11   C     C_R   0.290088 0.497607 0.925957 0.092175
C12   C     C_R   0.955814 0.206197 0.500293 0.959779
C13   C     C_R   0.659105 0.442642 0.092938 0.061550
C14   C     C_R   0.170919 0.548712 0.987707 0.137363
C15   C     C_R   0.739173 0.325481 0.038421 0.125357
C16   C     C_R   0.436400 0.434221 0.963931 0.069041
C17   C     C_R   0.492860 0.474233 0.061313 0.063453
C18   C     C_3   0.723435 0.695372 0.210815 -0.384009
C19   C     C_3   0.715517 0.808634 0.131395 -0.894491
C20   C     C_3   0.419354 0.604881 0.784610 -0.351161
C21   C     C_3   0.526786 0.728200 0.853545 -0.918022
C22   C     C_3   0.485295 0.306119 0.431502 -0.141593
C23   C     C_R   0.378066 0.536429 0.123324 -0.222380
C24   C     C_3   0.370304 0.249633 0.340680 -0.895919
C25   C     C_3   0.539987 0.706686 0.504285 -0.054097
C26   C     C_3   0.554395 0.821520 0.594043 -0.892827
C27   C     C_R   0.523874 0.329100 0.907158 -0.230892
C28   C     C_R   0.216914 0.569837 0.086925 -0.214778
C29   C     C_R   0.669571 0.268736 0.946123 -0.219076
C30   C     C_2   0.067419 0.957414 0.496794 -0.390685
C31   C     C_2   0.932478 0.041810 0.494871 -0.391917
C32   C     C_R   0.066863 0.518428 0.681594 0.855085
H1    H     H_    0.130854 0.616474 0.135795 0.161782
H2    H     H_    0.804681 0.990572 0.488064 0.169304
H3    H     H_    0.834279 0.811567 0.096011 0.249258
H4    H     H_    0.607754 0.776211 0.076707 0.274408
H5    H     H_    0.699663 0.929207 0.163874 0.254975
H6    H     H_    0.612195 0.703305 0.251981 0.195501
H7    H     H_    0.829975 0.744062 0.263263 0.196690
H8    H     H_    0.609970 0.800454 0.812554 0.246249
H9    H     H_    0.609327 0.671823 0.906637 0.263451
H10   H     H_    0.445371 0.808053 0.892164 0.270613
H11   H     H_    0.498875 0.514146 0.754884 0.214487
H12   H     H_    0.730840 0.182032 0.902947 0.152104
H13   H     H_    0.372038 0.671615 0.725358 0.231940
H14   H     H_    0.245861 0.202307 0.356741 0.283474
H15   H     H_    0.354970 0.346310 0.293186 0.257616
H16   H     H_    0.427929 0.152708 0.300041 0.216110
H17   H     H_    0.607849 0.318194 0.403585 0.233461
H18   H     H_    0.483886 0.216505 0.484846 0.164553
H19   H     H_    0.590215 0.941584 0.575393 0.218480
H20   H     H_    0.430268 0.829387 0.622293 0.243542
H21   H     H_    0.650622 0.786527 0.649001 0.270308
H22   H     H_    0.629191 0.740891 0.453504 0.171040
H23   H     H_    0.064139 0.269527 0.201058 0.169068
H24   H     H_    0.430617 0.724206 0.454680 0.166467
H25   H     H_    0.845964 0.573503 0.817616 0.184658
H26   H     H_    0.913412 0.610823 0.993286 0.158649
H27   H     H_    0.947665 0.174911 0.037337 0.149136
H28   H     H_    0.406296 0.548884 0.200353 0.149294
H29   H     H_    0.474457 0.286748 0.834383 0.152856
H30   H     H_    0.195959 0.008360 0.500977 0.179538
N1    N     N_2   0.440860 0.456490 0.474790 -0.040813
N2    N     N_2   0.559140 0.543510 0.525210 -0.050035
O1    O     O_R   0.891570 0.738930 0.506190 -0.620753
O2    O     O_R   0.108430 0.261070 0.493810 -0.605026
O3    O     O_R   0.174650 0.711050 0.490030 -0.642435
O4    O     O_R   0.825350 0.288950 0.509970 -0.656775
O5    O     O_R   0.909850 0.521900 0.644940 -0.603745
O6    O     O_R   0.090150 0.478100 0.355060 -0.613441
O7    O     O_R   0.192930 0.494020 0.628780 -0.613360
O8    O     O_R   0.807070 0.505980 0.371220 -0.654342
Zn1   Zn    Zn3+2 0.810990 0.518620 0.510790 0.906190
Zn2   Zn    Zn3+2 0.189010 0.481380 0.489210 0.923957

loop_
_geom_bond_atom_site_label_1
_geom_bond_atom_site_label_2
_ccdc_geom_bond_type
O6    Zn2   S    
O7    Zn2   S    
C2    C4    S    
N2    Zn1   S    
O5    Zn1   S    
C32   O5    A    
C3    C9    A    
N1    Zn2   S    
C26   H20   S    
C27   C29   A    
C9    C11   A    
C11   C16   A    
C9    C20   S    
C1    O1    A    
C20   H13   S    
C25   H24   S    
C13   C17   A    
C22   H18   S    
C25   C26   S    
C24   H14   S    
C2    O8    A    
C16   C27   A    
C30   H30   S    
C27   H29   S    
C18   H6    S    
C31   H2    S    
C3    C32   S    
C29   H12   S    
O3    Zn2   S    
C19   H3    S    
C26   H19   S    
C25   H22   S    
C23   H28   S    
C12   O4    A    
C5    C14   A    
C17   C23   A    
C21   H8    S    
C2    O6    A    
C5    H26   S    
C10   C18   S    
C22   H17   S    
C21   H9    S    
C8    H23   S    
C1    C30   S    
C1    O3    A    
C28   H1    S    
C15   C29   A    
C32   O7    A    
C3    C7    A    
C19   H4    S    
C13   C15   A    
C12   C31   S    
C30   C31   D    
C11   C14   A    
C22   C24   S    
C6    C15   A    
C4    C10   A    
N1    N2    D    
O2    Zn2   S    
C26   H21   S    
C20   H11   S    
O1    Zn1   S    
C20   C21   S    
C18   C19   S    
C4    C8    A    
C5    C7    A    
C18   H7    S    
C16   C17   A    
C6    C8    A    
C21   H10   S    
C19   H5    S    
C25   N2    S    
C14   C28   A    
O4    Zn1   S    
C23   C28   A    
C24   H15   S    
C12   O2    A    
C6    H27   S    
C7    H25   S    
C22   N1    S    
O8    Zn1   S    
C10   C13   A    
C24   H16   S    
