data_mof_unit_46165.cif
_audit_creation_date              2012-10-26T19:24:09-0400
_audit_creation_method            fapswitch 2.2
_symmetry_space_group_name_H-M    P1
_symmetry_Int_Tables_number       1
_space_group_crystal_system       triclinic
_cell_length_a                    27.792765
_cell_length_b                    10.860045
_cell_length_c                    9.568441
_cell_angle_alpha                 90.440741
_cell_angle_beta                  90.07888
_cell_angle_gamma                 92.755225
_cell_volume                      2884.62071811

loop_
_atom_site_label
_atom_site_type_symbol
_atom_type_description
_atom_site_fract_x
_atom_site_fract_y
_atom_site_fract_z
_atom_type_partial_charge
C1    C     C_R   0.503900 0.263140 0.500265 0.554078
C2    C     C_R   0.972413 0.387621 0.532518 0.014591
C3    C     C_R   0.976935 0.610735 0.484774 0.030770
C4    C     C_R   0.407457 0.499396 0.499889 0.559343
C5    C     C_R   0.949302 0.498864 0.506839 -0.021361
C6    C     C_R   0.944059 0.283226 0.577906 0.213777
C7    C     C_R   0.893270 0.280960 0.564829 0.271549
C8    C     C_R   0.870141 0.390627 0.534399 -0.003205
C9    C     C_R   0.898234 0.499258 0.505682 -0.086233
C10   C     C_R   0.875173 0.608806 0.474757 0.039539
C11   C     C_R   0.824760 0.608449 0.472861 0.397133
C12   C     C_R   0.278600 0.493870 0.626044 -0.055920
C13   C     C_R   0.819375 0.396062 0.534748 0.409196
C14   C     C_R   0.721573 0.510809 0.375412 -0.065038
C15   C     C_R   0.671368 0.509648 0.374486 -0.149102
C16   C     C_R   0.497443 0.737654 0.501633 0.539019
C17   C     C_R   0.670902 0.498988 0.627760 -0.149219
C18   C     C_R   0.721073 0.499890 0.628314 -0.056279
C19   C     C_R   0.746542 0.505383 0.502222 0.239833
C20   C     C_R   0.023283 0.385892 0.515856 0.044452
C21   C     C_R   0.050855 0.498717 0.505275 0.024726
C22   C     C_R   0.027874 0.611998 0.495848 0.018943
C23   C     C_R   0.253473 0.496392 0.499421 0.247082
C24   C     C_R   0.047487 0.274842 0.502411 -0.095911
C25   C     C_R   0.106806 0.721483 0.500137 -0.108020
C26   C     C_R   0.952601 0.717776 0.451042 -0.132575
C27   C     C_R   0.902745 0.716436 0.445821 -0.111044
C28   C     C_R   0.592535 0.501016 0.500155 0.536126
C29   C     C_R   0.056821 0.722800 0.497264 -0.138548
C30   C     C_R   0.532510 0.123634 0.754062 -0.090999
C31   C     C_R   0.527432 0.066046 0.883097 -0.128957
C32   C     C_R   0.503711 0.950974 0.891238 -0.123038
C33   C     C_R   0.489577 0.888300 0.769146 -0.093469
C34   C     C_R   0.101915 0.498077 0.502480 -0.028829
C35   C     C_R   0.499467 0.939947 0.635692 0.026288
C36   C     C_R   0.513883 0.065924 0.630601 0.027745
C37   C     C_R   0.508364 0.129453 0.502824 -0.006084
C38   C     C_R   0.500471 0.062901 0.378490 -0.156811
C39   C     C_R   0.496367 0.935666 0.380184 -0.157957
C40   C     C_R   0.175686 0.387142 0.499032 0.402051
C41   C     C_R   0.495721 0.872382 0.507250 -0.004577
C42   C     C_R   0.564231 0.664336 0.145842 -0.099339
C43   C     C_R   0.595592 0.744457 0.074115 -0.179695
C44   C     C_R   0.595656 0.744122 0.930143 -0.167116
C45   C     C_R   0.125145 0.385654 0.500623 0.023347
C46   C     C_R   0.564276 0.663872 0.857076 -0.094477
C47   C     C_R   0.531572 0.580726 0.925855 0.145402
C48   C     C_R   0.531551 0.580803 0.075635 0.153838
C49   C     C_R   0.470100 0.422855 0.073194 -0.010367
C50   C     C_R   0.470113 0.422891 0.925088 -0.010566
C51   C     C_R   0.180225 0.607077 0.499824 0.399878
C52   C     C_R   0.278642 0.499748 0.372910 -0.055633
C53   C     C_R   0.328843 0.500637 0.372846 -0.140343
C54   C     C_R   0.328796 0.494900 0.626381 -0.140646
C55   C     C_3   0.872178 0.085959 0.482227 0.011244
C56   C     C_R   0.097487 0.274734 0.497109 -0.121010
C57   C     C_3   0.841037 0.113036 0.354426 -0.253302
C58   C     C_3   0.845772 0.015505 0.240293 -0.477948
C59   C     C_R   0.129787 0.609830 0.500607 0.025655
C60   C     C_R   0.354416 0.498389 0.499693 0.004999
C61   C     C_R   0.645555 0.503178 0.500726 0.001999
Cu1   Cu    Cu3+1 0.500000 0.499990 0.640660 0.911968
Cu2   Cu    Cu3+1 0.500000 0.500010 0.359340 0.925730
H1    H     H_    0.347467 0.492960 0.725700 0.129293
H2    H     H_    0.551936 0.212223 0.752354 0.148485
H3    H     H_    0.540622 0.112371 0.977178 0.113947
H4    H     H_    0.259176 0.491431 0.724085 0.125466
H5    H     H_    0.497127 0.908900 0.992083 0.116761
H6    H     H_    0.469380 0.801997 0.782729 0.155279
H7    H     H_    0.492819 0.886904 0.281212 0.137174
H8    H     H_    0.445627 0.359684 0.128023 0.118204
H9    H     H_    0.567424 0.672214 0.256024 0.185818
H10   H     H_    0.620060 0.807283 0.131001 0.130800
H11   H     H_    0.620064 0.806925 0.874310 0.135571
H12   H     H_    0.259252 0.501858 0.274789 0.125320
H13   H     H_    0.567111 0.672001 0.747003 0.188929
H14   H     H_    0.445662 0.359705 0.868907 0.125529
H15   H     H_    0.114354 0.187079 0.489031 0.165175
H16   H     H_    0.652840 0.513521 0.275082 0.132343
H17   H     H_    0.741117 0.514886 0.277603 0.125067
H18   H     H_    0.028371 0.186626 0.489510 0.174354
H19   H     H_    0.347558 0.503292 0.273638 0.130241
H20   H     H_    0.860359 0.994049 0.523201 0.173134
H21   H     H_    0.910551 0.079106 0.450702 0.123714
H22   H     H_    0.802641 0.114758 0.386132 0.222107
H23   H     H_    0.127397 0.808770 0.501122 0.170533
H24   H     H_    0.852284 0.204504 0.310944 0.157749
H25   H     H_    0.884023 0.009780 0.208394 0.149707
H26   H     H_    0.824309 0.040379 0.147616 0.167818
H27   H     H_    0.831946 0.924116 0.277995 0.189065
H28   H     H_    0.941675 0.133940 0.692223 0.357589
H29   H     H_    0.971200 0.803699 0.424122 0.104558
H30   H     H_    0.652028 0.494420 0.726679 0.131823
H31   H     H_    0.885884 0.800807 0.419062 0.134608
H32   H     H_    0.740233 0.495920 0.726672 0.130335
H33   H     H_    0.041822 0.812499 0.499919 0.113683
H34   H     H_    0.497362 0.109112 0.279155 0.135025
N1    N     N_R   0.201981 0.496824 0.499441 -0.400754
N2    N     N_R   0.798096 0.503258 0.502891 -0.405807
N3    N     N_R   0.500460 0.501210 0.147910 -0.243866
N4    N     N_R   0.500480 0.501290 0.852040 -0.250895
O1    O     O_R   0.500000 0.319640 0.618810 -0.508130
O2    O     O_R   0.569730 0.499970 0.618800 -0.526900
O3    O     O_R   0.569740 0.499990 0.381230 -0.520096
O4    O     O_2   0.198404 0.280075 0.497300 -0.484556
O5    O     O_3   0.865979 0.173192 0.591092 -0.527194
O6    O     O_3   0.966109 0.189035 0.646020 -0.730246
O7    O     O_2   0.791237 0.295841 0.567588 -0.451541
O8    O     O_2   0.207355 0.713538 0.499379 -0.484492
O9    O     O_2   0.802458 0.712793 0.442937 -0.519922
O10   O     O_R   0.500000 0.319660 0.381240 -0.501286
O11   O     O_R   0.430260 0.500010 0.618770 -0.501123
O12   O     O_R   0.430270 0.500030 0.381200 -0.498509
O13   O     O_R   0.500000 0.680340 0.618760 -0.534812
O14   O     O_R   0.500000 0.680360 0.381190 -0.521754

loop_
_geom_bond_atom_site_label_1
_geom_bond_atom_site_label_2
_ccdc_geom_bond_type
C10   C27   A    
C43   H10   S    
C31   H3    S    
C50   H14   S    
C8    C13   A    
C47   N4    A    
C22   C29   A    
C35   C36   A    
C43   C44   A    
C52   H12   S    
C46   H13   S    
C57   C58   S    
C7    C8    A    
C39   C41   A    
C54   C60   A    
C12   C23   A    
C26   C27   A    
C37   C38   A    
C36   C37   A    
Cu1   O13   S    
C38   H34   S    
C40   N1    A    
C30   C31   A    
C31   C32   A    
C26   H29   S    
C56   H15   S    
C11   N2    A    
C18   C19   A    
C17   C61   A    
C15   H16   S    
C20   C24   A    
C45   C56   A    
C8    C9    A    
C6    O6    S    
C14   H17   S    
C9    C10   A    
C33   H6    S    
C32   H5    S    
Cu1   N4    S    
Cu2   O14   S    
C28   C61   S    
C51   N1    A    
C4    O11   A    
C51   O8    S    
C21   C22   A    
C11   O9    S    
C18   H32   S    
C2    C6    A    
C13   O7    S    
C53   C60   A    
C44   C46   A    
C25   C29   A    
C40   C45   A    
C48   N3    A    
C12   H4    S    
C55   O5    S    
C2    C20   A    
H28   O6    S    
C4    O12   A    
C19   N2    S    
C21   C34   A    
Cu2   N3    S    
C57   H24   S    
C58   H25   S    
C53   H19   S    
C13   N2    A    
C24   H18   S    
C5    C9    A    
Cu1   Cu2   S    
C28   O3    A    
C47   C48   A    
C4    C60   S    
C42   H9    S    
C17   C18   A    
C15   C61   A    
C7    O5    S    
Cu1   O11   S    
C34   C45   A    
C42   C48   A    
C44   H11   S    
C58   H27   S    
C55   C57   S    
C34   C59   A    
C2    C5    A    
C51   C59   A    
C42   C43   A    
C55   H20   S    
C16   O14   A    
C52   C53   A    
Cu1   O2    S    
C46   C47   A    
C14   C19   A    
C3    C26   A    
Cu2   O3    S    
C3    C5    A    
C16   O13   A    
C29   H33   S    
C6    C7    A    
C1    C37   S    
C24   C56   A    
C30   C36   A    
C32   C33   A    
C27   H31   S    
C1    O10   A    
C49   N3    A    
C28   O2    A    
C23   C52   A    
C38   C39   A    
C54   H1    S    
C1    O1    A    
C25   H23   S    
C33   C35   A    
C39   H7    S    
C57   H22   S    
Cu2   O10   S    
C35   C41   A    
C58   H26   S    
C30   H2    S    
C10   C11   A    
Cu2   O12   S    
C23   N1    S    
C17   H30   S    
C20   C21   A    
C50   N4    A    
C49   C50   A    
C49   H8    S    
C14   C15   A    
C3    C22   A    
C25   C59   A    
C55   H21   S    
C16   C41   S    
C12   C54   A    
C40   O4    S    
Cu1   O1    S    
