data_mof_unit_33889.cif
_audit_creation_date              2012-12-10T17:56:18-0500
_audit_creation_method            fapswitch 2.2
_symmetry_space_group_name_H-M    P1
_symmetry_Int_Tables_number       1
_space_group_crystal_system       triclinic
_cell_length_a                    12.998537
_cell_length_b                    10.745948
_cell_length_c                    9.602344
_cell_angle_alpha                 89.844182
_cell_angle_beta                  96.490044
_cell_angle_gamma                 91.860456
_cell_volume                      1331.97216577

loop_
_atom_site_label
_atom_site_type_symbol
_atom_type_description
_atom_site_fract_x
_atom_site_fract_y
_atom_site_fract_z
_atom_type_partial_charge
C1    C     C_R   0.499969 0.262757 0.500083 0.937451
C2    C     C_R   0.500031 0.737243 0.499916 0.937451
C3    C     C_R   0.499777 0.871166 0.499707 -0.140382
C4    C     C_R   0.500223 0.128834 0.500293 -0.140383
C5    C     C_R   0.434598 0.421244 0.064509 0.399921
C6    C     C_R   0.565402 0.578756 0.935491 0.399920
C7    C     C_R   0.435046 0.420756 0.916497 0.376170
C8    C     C_R   0.564954 0.579244 0.083503 0.376169
C9    C     C_R   0.300744 0.503779 0.472957 0.899074
C10   C     C_R   0.699256 0.496222 0.527043 0.899075
C11   C     C_R   0.812168 0.488485 0.543937 -0.146987
C12   C     C_R   0.187832 0.511515 0.456062 -0.146988
C13   C     C_R   0.024693 0.574412 0.330014 0.098935
C14   C     C_R   0.975306 0.425587 0.669985 0.098935
C15   C     C_R   0.132918 0.567332 0.337876 0.371699
C16   C     C_R   0.867082 0.432667 0.662123 0.371703
C17   C     C_R   0.134746 0.464902 0.564533 -0.205197
C18   C     C_R   0.865254 0.535099 0.435468 -0.205200
C19   C     C_R   0.027685 0.472512 0.559136 0.064779
C20   C     C_R   0.972315 0.527489 0.440864 0.064780
C21   C     C_R   0.592861 0.068467 0.487757 0.303733
C22   C     C_R   0.407140 0.931533 0.512244 0.303731
C23   C     C_R   0.592680 0.938401 0.487857 0.074692
C24   C     C_R   0.407320 0.061599 0.512144 0.074692
Cu1   Cu    Cu3+1 0.500000 0.500020 0.640660 1.123495
Cu2   Cu    Cu3+1 0.500000 0.499980 0.359340 1.123494
H1    H     H_    0.822241 0.578005 0.345998 0.246172
H2    H     H_    0.177759 0.421996 0.654003 0.246172
N1    N     N_R   0.500030 0.500030 0.852080 -0.278535
N2    N     N_R   0.499970 0.499970 0.147920 -0.278536
O1    O     O_R   0.499990 0.319660 0.618740 -0.527940
O2    O     O_R   0.500010 0.680340 0.381260 -0.527941
O3    O     O_R   0.499990 0.319630 0.381170 -0.540455
O4    O     O_R   0.500010 0.680370 0.618830 -0.540454
O5    O     O_R   0.349000 0.499990 0.599490 -0.557184
O6    O     O_R   0.651000 0.500010 0.400510 -0.557184
O7    O     O_R   0.348990 0.499960 0.361920 -0.510243
O8    O     O_R   0.651010 0.500040 0.638080 -0.510243
Cl1   Cl    Cl    0.802896 0.364817 0.798279 -0.525017
Cl2   Cl    Cl    0.197104 0.635180 0.201716 -0.525013
N3    N     N_3   0.967451 0.629899 0.210227 -0.524999
H3    H     H_    0.981426 0.581232 0.120468 0.273462
H4    H     H_    0.994026 0.722163 0.201633 0.285804
N4    N     N_3   0.032548 0.370093 0.789768 -0.525000
H5    H     H_    0.005978 0.277825 0.798346 0.285799
H6    H     H_    0.018567 0.418747 0.879533 0.273467
Cl3   Cl    Cl    0.709313 0.155170 0.473888 -0.577244
Cl4   Cl    Cl    0.290688 0.844830 0.526115 -0.577245
N5    N     N_3   0.686365 0.873365 0.478417 -0.527693
H7    H     H_    0.716328 0.900513 0.386055 0.300524
H8    H     H_    0.740044 0.899896 0.563349 0.279228
N6    N     N_3   0.313635 0.126635 0.521585 -0.527692
H9    H     H_    0.283672 0.099486 0.613948 0.300525
H10   H     H_    0.259956 0.100103 0.436653 0.279227
Cl5   Cl    Cl    0.347649 0.318825 0.139634 -0.459869
Cl6   Cl    Cl    0.652351 0.681175 0.860366 -0.459869
Cl7   Cl    Cl    0.351220 0.314163 0.817237 -0.513393
Cl8   Cl    Cl    0.648781 0.685837 0.182763 -0.513392

loop_
_geom_bond_atom_site_label_1
_geom_bond_atom_site_label_2
_ccdc_geom_bond_type
C12   C17   A    
Cu1   O1    S    
C22   Cl4   S    
Cu2   O7    S    
C24   N6    S    
C7    N1    A    
Cu1   O8    S    
N3    H3    S    
Cu2   O3    S    
C3    C23   A    
C19   C20   A    
C12   C15   A    
Cu1   O4    S    
C10   O8    A    
C1    C4    S    
C8    N2    A    
C2    O4    A    
N5    H8    S    
C9    O7    A    
C2    C3    S    
C1    O3    A    
C11   C18   A    
C21   Cl3   S    
N4    H5    S    
Cu2   O2    S    
C4    C21   A    
N3    H4    S    
C7    Cl7   S    
Cu1   O5    S    
C6    Cl6   S    
C22   C24   A    
C13   N3    S    
C17   C19   A    
N6    H10   S    
Cu2   N2    S    
C14   N4    S    
C18   C20   A    
C21   C23   A    
C13   C15   A    
Cu1   N1    S    
C4    C24   A    
C9    C12   S    
C14   C16   A    
C15   Cl2   S    
C23   N5    S    
C10   C11   S    
C16   Cl1   S    
C9    O5    A    
C1    O1    A    
C6    N1    A    
N6    H9    S    
C2    O2    A    
N5    H7    S    
C11   C16   A    
Cu2   O6    S    
C5    C7    A    
C3    C22   A    
C6    C8    A    
C13   C20   A    
C8    Cl8   S    
Cu1   Cu2   S    
C17   H2    S    
C14   C19   A    
C5    Cl5   S    
C18   H1    S    
C5    N2    A    
N4    H6    S    
C10   O6    A    
