data_mof_unit_66673.cif
_audit_creation_date              2013-03-05T16:02:34-0500
_audit_creation_method            fapswitch 2.2
_symmetry_space_group_name_H-M    P1
_symmetry_Int_Tables_number       1
_space_group_crystal_system       triclinic
_cell_length_a                    8.429514
_cell_length_b                    14.652429
_cell_length_c                    16.700194
_cell_angle_alpha                 106.546614
_cell_angle_beta                  81.417695
_cell_angle_gamma                 91.238713
_cell_volume                      1954.65434062

loop_
_atom_site_label
_atom_site_type_symbol
_atom_site_description
_atom_site_fract_x
_atom_site_fract_y
_atom_site_fract_z
_atom_type_partial_charge
P1    P     P_3+3 0.619500 0.379780 0.307000 0.578969
O1    O     O_2   0.449810 0.404330 0.292300 -0.357582
O2    O     O_3   0.665430 0.428070 0.399450 -0.360306
O3    O     O_3   0.183150 0.584440 0.337010 -0.398179
O4    O     O_2   0.345449 0.482647 0.194464 -0.267212
O5    O     O_3   0.644632 0.256142 0.271402 -0.549632
O6    O     O_3   0.246466 0.648821 0.192150 -0.575032
C1    C     C_3   0.077101 0.763125 0.167022 -0.792519
H1    H     H_    0.180385 0.789407 0.130744 0.286847
H2    H     H_    0.017777 0.706641 0.122850 0.212912
P2    P     P_3+3 0.105540 0.727570 0.557610 0.571948
P3    P     P_3+3 0.608866 0.758382 0.378788 0.623313
O7    O     O_2   0.286000 0.735700 0.531070 -0.287918
O8    O     O_3   0.580930 0.641410 0.378050 -0.399405
O9    O     O_2   0.456238 0.814294 0.430610 -0.241719
O10   O     O_3   0.116707 0.777080 0.666035 -0.629818
O11   O     O_3   0.602034 0.768557 0.277521 -0.440937
C2    C     C_3   0.625402 0.679072 0.217878 0.391502
H3    H     H_    0.535573 0.628096 0.233650 0.154512
H4    H     H_    0.748683 0.650802 0.213705 -0.015005
C3    C     C_3   0.602264 0.690504 0.132728 -0.634520
H5    H     H_    0.594589 0.619404 0.086997 0.242566
H6    H     H_    0.489823 0.731299 0.138349 0.279538
C4    C     C_3   0.528116 0.808179 0.702555 0.862905
C5    C     C_3   0.366948 0.810984 0.756516 -0.028116
H7    H     H_    0.301000 0.868938 0.745643 0.150289
H8    H     H_    0.307092 0.742081 0.738561 0.112574
Ba1   Ba    Ba6+2 0.356390 0.534880 0.456030 1.750955
C6    C     C_3   0.532790 0.209420 0.313995 0.545498
H9    H     H_    0.409848 0.238841 0.321613 0.039478
C7    C     C_3   0.542188 0.104325 0.262804 0.576711
H10   H     H_    0.664134 0.075500 0.258964 0.185024
C8    C     C_3   0.972667 0.803572 0.722159 0.560673
H11   H     H_    0.873556 0.804409 0.686702 0.081302
C9    C     C_3   0.986955 0.903916 0.786290 0.224906
H12   H     H_    0.083361 0.900766 0.823467 0.129281
P4    P     P_3+3 0.570190 0.620290 0.693000 0.594270
O12   O     O_2   0.739870 0.595710 0.707750 -0.262889
O13   O     O_3   0.524260 0.572010 0.600550 -0.301477
O14   O     O_3   0.006540 0.415640 0.663000 -0.307078
O15   O     O_3   0.632003 0.739595 0.710687 -0.586575
P5    P     P_3+3 0.570705 0.237943 0.618352 0.598715
O16   O     O_3   0.149240 0.378950 0.461440 -0.366003
O17   O     O_3   0.608760 0.358670 0.621950 -0.332819
O18   O     O_2   0.726714 0.180161 0.573593 -0.264378
O19   O     O_3   0.557220 0.231070 0.721716 -0.527204
Ba2   Ba    Ba6+2 0.833430 0.465200 0.543970 1.800112
P6    P     P_3+3 0.196601 0.549450 0.227756 0.512987
C10   C     C_3   0.133355 0.723066 0.232840 0.905843
H13   H     H_    0.024685 0.702174 0.269926 -0.098748
H14   H     H_    0.988793 0.822334 0.198000 0.278984
O20   O     O_3   0.040450 0.621130 0.538560 -0.315647
C11   C     C_3   0.079880 0.266890 0.283108 0.051925
H15   H     H_    0.953795 0.293675 0.303483 0.122441
H16   H     H_    0.162102 0.328024 0.293486 0.120657
C12   C     C_3   0.105845 0.210009 0.189010 0.443129
H17   H     H_    0.207565 0.159101 0.177283 0.173105
P7    P     P_3+3 0.090321 0.257903 0.437168 0.544970
O21   O     O_2   0.903680 0.264350 0.468980 -0.268137
O22   O     O_3   0.116732 0.204600 0.327840 -0.539507
H18   H     H_    0.703397 0.730612 0.109536 0.272485
C13   C     C_3   0.408256 0.271624 0.765829 0.065659
H19   H     H_    0.400891 0.348206 0.768335 0.048506
H20   H     H_    0.306785 0.233532 0.736434 0.151070
C14   C     C_3   0.388484 0.264594 0.855648 0.252683
H21   H     H_    0.481840 0.306357 0.889137 0.101453
H22   H     H_    0.269094 0.294485 0.888531 0.172918
P8    P     P_3+3 0.991732 0.457708 0.774588 0.578342
C15   C     C_3   0.878400 0.294938 0.787904 0.739692
O23   O     O_2   0.824426 0.506131 0.810921 -0.335557
O24   O     O_3   0.995470 0.360518 0.815434 -0.610765
H23   H     H_    0.775683 0.328068 0.771235 0.041149
C16   C     C_3   0.813784 0.252077 0.859418 0.142802
H24   H     H_    0.734896 0.191817 0.836305 0.194782
H25   H     H_    0.743604 0.307533 0.911445 0.089411
C17   C     C_2   0.276783 0.549149 0.757894 -0.035577
C18   C     C_R   0.893650 0.474058 0.250808 -0.597053
C19   C     C_2   0.456036 0.621570 0.860102 -0.174386
C20   C     C_2   0.430871 0.591872 0.779224 0.043556
C21   C     C_2   0.161471 0.530571 0.815625 0.252702
C22   C     C_3   0.206627 0.537630 0.902604 -0.189628
C23   C     C_3   0.324155 0.617846 0.931019 0.217038
C24   C     C_2   0.076711 0.530566 0.974390 0.334690
C25   C     C_2   0.110765 0.490092 0.034128 0.381595
C26   C     C_R   0.849160 0.424838 0.081943 0.113237
C27   C     C_R   0.987675 0.474114 0.104096 -0.146355
C28   C     C_R   0.736019 0.398916 0.141627 0.383798
C29   C     C_R   0.755107 0.425423 0.227904 0.166825
C30   C     C_R   0.012700 0.494718 0.189926 0.256342
H26   H     H_    0.565272 0.658343 0.875888 0.235452
H27   H     H_    0.913770 0.490967 0.315883 0.184140
C31   C     C_R   0.173251 0.948385 0.543787 0.033196
C32   C     C_R   0.008278 0.802632 0.502601 0.162850
C33   C     C_R   0.883468 0.759394 0.459013 -0.375998
C34   C     C_R   0.790016 0.810251 0.423218 0.131644
C35   C     C_R   0.831044 0.902051 0.421822 0.237951
C36   C     C_R   0.966510 0.945470 0.456746 -0.144321
C37   C     C_R   0.049550 0.898702 0.502686 -0.009136
H28   H     H_    0.853572 0.686496 0.456249 0.173888
C38   C     C_R   0.137787 0.086012 0.490406 -0.082913
C39   C     C_R   0.217463 0.040722 0.538807 0.111626
C40   C     C_R   0.180599 0.181921 0.491190 0.227612
C41   C     C_R   0.302468 0.225504 0.534815 -0.331568
C42   C     C_R   0.393134 0.177832 0.573180 0.238747
C43   C     C_R   0.346253 0.086878 0.578732 -0.075459
C44   C     C_R   0.023051 0.032647 0.442832 0.379831
H29   H     H_    0.412228 0.051773 0.612813 0.204281
H30   H     H_    0.338915 0.294765 0.530937 0.203739
H31   H     H_    0.231709 0.916676 0.582446 0.176617
Cl1   Cl    Cl    0.229978 0.813538 0.302600 -0.518075
Cl2   Cl    Cl    0.378815 0.839980 0.867158 -0.435050
Cl3   Cl    Cl    0.594611 0.220525 0.412019 -0.573597
Cl4   Cl    Cl    0.508361 0.088984 0.157002 -0.377036
Cl5   Cl    Cl    0.403066 0.035715 0.310086 -0.464725
Cl6   Cl    Cl    0.952955 0.721124 0.783343 -0.500451
N1    N     N_R   0.025684 0.975432 0.740981 0.232189
O25   O     O_R   0.155887 0.024134 0.749788 -0.318929
O26   O     O_R   0.926433 0.994375 0.695023 -0.335323
N2    N     N_R   0.844204 0.934549 0.850722 0.292751
O27   O     O_R   0.796362 0.023334 0.874601 -0.173611
O28   O     O_R   0.789600 0.881429 0.898802 -0.232428
N3    N     N_R   0.964043 0.155918 0.165108 0.259624
O29   O     O_R   0.868495 0.185274 0.122757 -0.244998
O30   O     O_R   0.950733 0.069486 0.171183 -0.267500
Cl7   Cl    Cl    0.165940 0.282923 0.121642 -0.473778
Cl8   Cl    Cl    0.401150 0.144254 0.858240 -0.308029
Cl9   Cl    Cl    0.967986 0.204252 0.697908 -0.554391
Cl10  Cl    Cl    0.970304 0.211067 0.902462 -0.375438
Cl11  Cl    Cl    0.583751 0.323289 0.102362 -0.378895
N4    N     N_R   0.254096 0.524655 0.672213 0.245083
O31   O     O_R   0.159414 0.576390 0.648385 -0.291814
O32   O     O_R   0.316591 0.446284 0.619838 -0.408258
Cl12  Cl    Cl    0.890954 0.587828 0.984953 -0.667072
Cl13  Cl    Cl    0.307815 0.445446 0.023414 -0.586213
N5    N     N_R   0.726137 0.953202 0.389634 0.276169
O33   O     O_R   0.617946 0.011434 0.441434 -0.322694
O34   O     O_R   0.729226 0.935233 0.308532 -0.300258
N6    N     N_R   0.997799 0.050434 0.365604 0.262690
O35   O     O_R   0.067164 0.994396 0.294373 -0.267605
O36   O     O_R   0.875339 0.101556 0.364184 -0.295243
Cl14  Cl    Cl    0.608269 0.923262 0.741649 -0.445730
N7    N     N_R   0.520403 0.797135 0.613811 0.195814
O37   O     O_R   0.494192 0.872275 0.590633 -0.416982
O38   O     O_R   0.589532 0.723728 0.556717 -0.384266

loop_
_geom_bond_atom_site_label_1
_geom_bond_atom_site_label_2
_geom_bond_distance
_ccdc_geom_bond_type
P8    C21   1.861870 S    
O14   Ba2   2.888235 S    
C28   C29   1.414380 A    
Ba1   Ba2   4.707820 S    
C32   C33   1.405429 A    
C2    C3    1.519244 S    
P2    O7    1.531557 D    
C16   H24   1.108106 S    
C6    Cl3   1.754174 S    
C9    N2    1.472780 S    
C34   C35   1.387360 A    
C17   C20   1.477089 S    
C36   C37   1.424299 A    
C31   C37   1.408751 A    
N5    O33   1.298404 A    
C11   H15   1.110617 S    
C19   H26   1.085263 S    
P4    C20   1.855180 S    
C18   C30   1.410725 A    
P4    O12   1.553760 D    
O19   C13   1.406917 S    
C33   H28   1.081801 S    
O2    Ba1   2.954278 S    
C25   C27   1.510041 S    
P1    O1    1.553407 D    
C31   H31   1.072938 S    
C44   N6    1.432620 S    
P7    O22   1.751308 S    
C12   H17   1.106483 S    
C2    H3    1.108480 S    
P5    O19   1.744360 S    
C15   O24   1.396908 S    
C13   H20   1.110292 S    
P2    O20   1.602221 S    
O16   P7    1.780232 S    
C22   C24   1.523543 S    
C17   N4    1.413856 S    
C24   C25   1.363519 D    
C18   C29   1.400041 A    
C4    N7    1.455539 S    
C1    H1    1.110996 S    
C14   H22   1.106045 S    
P3    O11   1.748906 S    
P1    Ba1   3.409803 S    
O7    Ba1   2.886874 S    
C15   C16   1.528306 S    
C41   H30   1.070756 S    
P7    C40   1.856397 S    
P4    Ba2   3.410346 S    
C7    Cl5   1.770375 S    
C3    H18   1.109765 S    
O17   Ba2   2.830733 S    
P2    C32   1.888139 S    
P1    C29   1.875700 S    
C11   H16   1.110586 S    
C3    H5    1.109690 S    
C4    O15   1.395170 S    
C16   H25   1.109233 S    
C33   C34   1.397439 A    
P5    O17   1.776610 S    
C42   C43   1.406250 A    
O3    Ba1   2.888766 S    
C11   O22   1.399093 S    
C22   C23   1.536367 S    
C35   N5    1.425731 S    
C26   C28   1.401283 A    
C39   C43   1.417044 A    
P4    O13   1.605778 S    
O4    P6    1.541564 D    
C8    Cl6   1.781802 S    
P1    O5    1.745205 S    
C4    C5    1.508446 S    
O6    C10   1.408812 S    
C19   C20   1.343660 D    
Ba1   O13   2.891637 S    
P7    O21   1.579494 D    
C26   C27   1.400650 A    
P1    O2    1.605802 S    
P5    O18   1.548958 D    
C12   N3    1.462033 S    
C15   H23   1.109015 S    
N4    O32   1.295282 A    
C6    H9    1.106684 S    
O10   C8    1.406028 S    
C43   H29   1.082311 S    
P2    O10   1.764528 S    
C19   C23   1.510864 S    
C7    H10   1.105826 S    
P3    O9    1.544292 D    
C4    Cl14  1.783671 S    
C25   Cl13  1.763695 S    
C35   C36   1.415943 A    
C13   H19   1.113654 S    
C38   C40   1.440225 A    
O11   C2    1.399588 S    
C9    N1    1.462975 S    
P3    C34   1.851135 S    
C12   Cl7   1.776208 S    
C1    H14   1.109843 S    
O12   Ba2   2.863937 S    
N2    O28   1.300991 A    
N6    O36   1.295423 A    
C31   C39   1.417516 A    
N1    O26   1.299652 A    
C36   C44   1.422142 A    
C1    H2    1.106197 S    
P3    O8    1.721777 S    
C10   H13   1.114878 S    
P6    C30   1.842641 S    
C3    H6    1.109271 S    
N7    O38   1.297197 A    
N3    O30   1.300154 A    
O13   Ba2   2.955206 S    
O3    P6    1.735713 S    
C11   C12   1.539870 S    
N5    O34   1.300435 A    
C18   H27   1.082133 S    
C13   C14   1.516914 S    
C17   C21   1.344172 D    
C21   C22   1.530776 S    
C27   C30   1.425213 A    
P5    C42   1.867334 S    
N2    O27   1.301249 A    
Ba2   O20   2.858618 S    
C5    H8    1.102022 S    
C16   Cl10  1.783806 S    
Ba1   O16   2.859264 S    
C38   C44   1.421561 A    
O6    P6    1.744240 S    
C28   Cl11  1.755347 S    
N4    O31   1.289478 A    
C5    H7    1.096114 S    
C6    C7    1.530887 S    
C14   Cl8   1.781961 S    
Ba1   O20   2.940637 S    
P2    Ba1   3.432193 S    
P8    O24   1.748127 S    
C1    C10   1.520735 S    
O2    Ba2   2.892303 S    
C38   C39   1.425363 A    
C8    C9    1.567548 S    
C8    H11   1.095905 S    
N1    O25   1.300001 A    
C2    H4    1.112174 S    
P4    O15   1.768349 S    
C40   C41   1.387059 A    
C24   Cl12  1.754144 S    
N6    O35   1.299217 A    
C5    Cl2   1.791878 S    
Ba2   O21   2.886982 S    
O5    C6    1.383032 S    
C15   Cl9   1.778170 S    
P8    O23   1.550221 D    
C14   H21   1.105500 S    
O14   P8    1.774249 S    
C41   C42   1.380805 A    
N7    O37   1.299841 A    
O1    Ba1   2.863392 S    
C9    H12   1.102973 S    
O8    Ba1   2.830088 S    
N3    O29   1.300863 A    
O16   Ba2   2.939710 S    
C32   C37   1.442354 A    
C7    Cl4   1.781899 S    
C10   Cl1   1.770528 S    
