data_mof_unit_50854.cif
_audit_creation_date              2012-12-11T16:20:31-0500
_audit_creation_method            fapswitch 2.2
_symmetry_space_group_name_H-M    P1
_symmetry_Int_Tables_number       1
_space_group_crystal_system       triclinic
_cell_length_a                    6.916282
_cell_length_b                    34.339319
_cell_length_c                    38.344026
_cell_angle_alpha                 99.551916
_cell_angle_beta                  89.804908
_cell_angle_gamma                 90.337743
_cell_volume                      8980.28000922

loop_
_atom_site_label
_atom_site_type_symbol
_atom_type_description
_atom_site_fract_x
_atom_site_fract_y
_atom_site_fract_z
_atom_type_partial_charge
O1    O     O_R   0.494320 0.461440 0.460990 -0.539140
O2    O     O_R   0.821450 0.462560 0.532500 -0.540972
O3    O     O_R   0.994330 0.538560 0.539010 -0.538981
C1    C     C_R   0.652149 0.453928 0.543753 0.708437
O4    O     O_R   0.823870 0.456770 0.460860 -0.540339
O5    O     O_R   0.996760 0.532730 0.466860 -0.538360
C2    C     C_R   0.654899 0.446160 0.447847 0.708274
O6    O     O_R   0.491880 0.467270 0.533140 -0.538897
O7    O     O_3   0.661650 0.524930 0.502050 -0.368032
V1    V     V_3+5 0.935500 0.495380 0.499620 1.412660
O8    O     O_R   0.326630 0.537440 0.467500 -0.541911
C3    C     C_R   0.158181 0.546123 0.456156 0.714233
O9    O     O_R   0.324210 0.543230 0.539140 -0.539811
C4    C     C_R   0.155367 0.553889 0.552086 0.707690
V2    V     V_3+5 0.435810 0.504620 0.500380 1.411391
O10   O     O_3   0.159790 0.475070 0.497950 -0.366962
C5    C     C_R   0.205917 0.822791 0.803355 0.599594
N1    N     N_R   0.048486 0.823352 0.825452 -0.568384
C6    C     C_R   0.905387 0.795269 0.818431 0.605441
C7    C     C_R   0.915096 0.765857 0.788168 0.021491
C8    C     C_R   0.076063 0.764761 0.765404 -0.096006
C9    C     C_R   0.225941 0.792917 0.773271 -0.114017
C10   C     C_R   0.767974 0.737322 0.780372 -0.101138
C11   C     C_R   0.779695 0.708189 0.750364 -0.161895
C12   C     C_R   0.939409 0.706666 0.727440 -0.010223
C13   C     C_R   0.087926 0.735026 0.734998 -0.020582
C14   C     C_R   0.249292 0.733302 0.712460 -0.080914
C15   C     C_R   0.400662 0.760584 0.720970 -0.248880
C16   C     C_R   0.390575 0.790448 0.750872 0.420147
C17   C     C_R   0.955434 0.677048 0.697358 0.580301
N2    N     N_R   0.111953 0.676146 0.675015 -0.554406
C18   C     C_R   0.257353 0.703799 0.682131 0.599429
O11   O     O_2   0.340465 0.851631 0.810030 -0.508292
O12   O     O_2   0.754634 0.795409 0.840880 -0.518820
H1    H     H_    0.642309 0.737523 0.797335 0.164282
H2    H     H_    0.662867 0.686887 0.745205 0.167647
O13   O     O_2   0.816612 0.649029 0.690903 -0.531468
O14   O     O_2   0.408452 0.703241 0.659705 -0.527472
H3    H     H_    0.530954 0.758011 0.705035 0.174577
C19   C     C_R   0.970636 0.639462 0.619513 -0.085597
H4    H     H_    0.843044 0.657804 0.623510 0.158233
C20   C     C_R   0.980222 0.609524 0.589910 -0.204745
H5    H     H_    0.858931 0.605276 0.571855 0.137226
C21   C     C_R   0.145692 0.585783 0.583383 -0.057176
C22   C     C_R   0.300621 0.592451 0.607334 -0.203266
H6    H     H_    0.429423 0.574464 0.603185 0.134410
C23   C     C_R   0.288856 0.621702 0.637448 -0.086271
H7    H     H_    0.408120 0.625485 0.655944 0.165941
C24   C     C_R   0.124046 0.645715 0.643854 0.348868
C25   C     C_R   0.868289 0.877571 0.862706 -0.093430
H8    H     H_    0.749518 0.873479 0.844111 0.165207
C26   C     C_R   0.855052 0.906972 0.892708 -0.202256
H9    H     H_    0.725699 0.924809 0.896672 0.133858
C27   C     C_R   0.009380 0.913979 0.916775 -0.056565
C28   C     C_R   0.175479 0.890389 0.910528 -0.204556
H10   H     H_    0.296279 0.894866 0.928685 0.137744
C29   C     C_R   0.186547 0.860338 0.881064 -0.081538
H11   H     H_    0.314765 0.842162 0.877263 0.158982
C30   C     C_R   0.034071 0.853803 0.856555 0.344348
C31   C     C_R   0.009934 0.865803 0.182692 0.575444
O15   O     O_2   0.982873 0.904988 0.192386 -0.517998
N3    N     N_R   0.030195 0.850150 0.147604 -0.560694
C32   C     C_R   0.059582 0.810491 0.137158 0.575160
C33   C     C_R   0.190749 0.886372 0.104917 -0.087675
C34   C     C_R   0.182649 0.911636 0.079768 -0.193446
C35   C     C_R   0.834812 0.915642 0.086808 -0.192499
C36   C     C_R   0.843494 0.890613 0.112149 -0.086769
C37   C     C_R   0.021400 0.875797 0.121361 0.384965
C38   C     C_R   0.045131 0.800375 0.198520 -0.047415
C39   C     C_R   0.018718 0.841309 0.208767 -0.036424
C40   C     C_R   0.001615 0.856872 0.244742 -0.124083
C41   C     C_R   0.066746 0.784906 0.162361 -0.027702
C42   C     C_R   0.004451 0.926623 0.070339 -0.057486
H12   H     H_    0.695286 0.926662 0.080369 0.127910
H13   H     H_    0.711640 0.882684 0.124636 0.115441
H14   H     H_    0.978582 0.888163 0.253405 0.170723
C43   C     C_R   0.149251 0.573356 0.429792 -0.088483
C44   C     C_R   0.069186 0.766215 0.286581 0.059546
C45   C     C_R   0.050694 0.707928 0.239365 -0.083637
C46   C     C_R   0.066718 0.724564 0.275784 0.019203
C47   C     C_R   0.097682 0.781282 0.322849 -0.176477
C48   C     C_R   0.117127 0.756311 0.347765 -0.130938
C49   C     C_R   0.106904 0.715309 0.337668 -0.018843
C50   C     C_R   0.079738 0.699347 0.301724 -0.047346
C51   C     C_R   0.065638 0.658131 0.291820 -0.097344
C52   C     C_R   0.080023 0.633660 0.317829 0.588186
N4    N     N_R   0.112005 0.649687 0.352506 -0.552200
C53   C     C_R   0.124320 0.689780 0.362763 0.571289
C54   C     C_R   0.969619 0.619590 0.400630 -0.138955
C55   C     C_R   0.978891 0.594186 0.425549 -0.200897
C56   C     C_R   0.310103 0.578458 0.408370 -0.186144
C57   C     C_R   0.300443 0.603316 0.382633 0.184012
C58   C     C_R   0.128067 0.624052 0.378712 0.384223
O16   O     O_2   0.153681 0.704933 0.397116 -0.521311
C59   C     C_R   0.045031 0.791363 0.260877 0.035323
C60   C     C_R   0.051178 0.774974 0.224407 0.069883
C61   C     C_R   0.065328 0.733487 0.213552 0.034554
C62   C     C_R   0.015687 0.832526 0.270306 -0.180936
H15   H     H_    0.852979 0.591171 0.441783 0.142021
H16   H     H_    0.838155 0.635839 0.398215 0.133590
H17   H     H_    0.140016 0.769420 0.375148 0.168951
H18   H     H_    0.111696 0.812437 0.332711 0.123282
H19   H     H_    0.997786 0.846733 0.297367 0.125177
O17   O     O_2   0.080395 0.795768 0.102487 -0.519179
C63   C     C_R   0.099075 0.744435 0.152249 -0.154395
H20   H     H_    0.316095 0.919342 0.067661 0.130706
H21   H     H_    0.329089 0.875188 0.111801 0.114327
H22   H     H_    0.124615 0.731901 0.124800 0.171974
C64   C     C_R   0.016346 0.666371 0.230609 0.384132
C65   C     C_R   0.032058 0.642222 0.256411 -0.202382
O18   O     O_2   0.061499 0.594164 0.308530 -0.526856
C66   C     C_R   0.100864 0.719341 0.177320 -0.180597
H23   H     H_    0.442332 0.562549 0.411297 0.129309
H24   H     H_    0.013109 0.610656 0.248437 0.182927
H25   H     H_    0.139012 0.689115 0.167673 0.180830
C67   C     C_R   0.749497 0.321974 0.647729 0.602088
O19   O     O_2   0.897432 0.318849 0.624397 -0.521559
N5    N     N_R   0.606420 0.349028 0.646079 -0.567320
C68   C     C_R   0.451512 0.351547 0.668781 0.602177
C69   C     C_R   0.783820 0.398820 0.618132 -0.093236
C70   C     C_R   0.795985 0.423921 0.592952 -0.202531
C71   C     C_R   0.475406 0.403325 0.572013 -0.207537
C72   C     C_R   0.465404 0.377472 0.596569 -0.082221
C73   C     C_R   0.618755 0.375175 0.620114 0.345935
C74   C     C_R   0.585462 0.299068 0.696960 -0.125436
C75   C     C_R   0.743031 0.297075 0.673371 0.016068
C76   C     C_R   0.890906 0.270088 0.675572 -0.075598
C77   C     C_R   0.434641 0.325882 0.694017 -0.123706
C78   C     C_R   0.641226 0.426663 0.569826 -0.055546
H26   H     H_    0.354458 0.404642 0.554381 0.137876
H27   H     H_    0.337714 0.359218 0.597296 0.159228
H28   H     H_    0.013460 0.267867 0.657682 0.162425
C79   C     C_R   0.512097 0.073049 0.929911 -0.056084
C80   C     C_R   0.725245 0.222273 0.751934 0.027377
C81   C     C_R   0.410520 0.250982 0.772759 0.051940
C82   C     C_R   0.564341 0.224332 0.775333 0.062746
C83   C     C_R   0.874744 0.195308 0.755918 -0.180108
C84   C     C_R   0.864636 0.170857 0.781371 -0.130711
C85   C     C_R   0.706609 0.172461 0.804321 -0.031880
C86   C     C_R   0.557233 0.199453 0.801672 -0.052242
C87   C     C_R   0.400877 0.201535 0.825474 -0.036999
C88   C     C_R   0.396876 0.176857 0.851381 0.580247
N6    N     N_R   0.541442 0.150003 0.853019 -0.553437
C89   C     C_R   0.694577 0.147439 0.829894 0.581593
C90   C     C_R   0.366855 0.100426 0.881594 -0.087405
C91   C     C_R   0.356198 0.075594 0.906989 -0.204110
C92   C     C_R   0.677824 0.096274 0.927237 -0.207651
C93   C     C_R   0.686375 0.121884 0.902431 -0.084985
C94   C     C_R   0.531527 0.124035 0.879156 0.353663
O20   O     O_2   0.833853 0.120359 0.831194 -0.532542
C95   C     C_R   0.731928 0.247133 0.725600 0.042270
C96   C     C_R   0.578192 0.273917 0.723097 0.065111
C97   C     C_R   0.416100 0.275368 0.746053 -0.021142
C98   C     C_R   0.886337 0.245803 0.701122 -0.193486
H29   H     H_    0.227269 0.057812 0.908253 0.134580
H30   H     H_    0.246710 0.101183 0.863688 0.163065
H31   H     H_    0.983066 0.150752 0.783108 0.167717
H32   H     H_    0.003435 0.192216 0.739898 0.128883
H33   H     H_    0.007520 0.226260 0.700739 0.124653
O21   O     O_2   0.316493 0.379445 0.667443 -0.508554
C99   C     C_R   0.271182 0.326230 0.716106 0.434031
H34   H     H_    0.925023 0.441755 0.592019 0.134131
H35   H     H_    0.903000 0.397877 0.636206 0.161506
C100  C     C_R   0.257409 0.252755 0.797628 -0.181997
C101  C     C_R   0.252724 0.228459 0.823238 -0.135048
O22   O     O_2   0.250280 0.180080 0.874990 -0.527650
C102  C     C_R   0.261758 0.300552 0.740860 -0.280130
H36   H     H_    0.138939 0.273077 0.798567 0.125358
H37   H     H_    0.799716 0.095072 0.944683 0.137999
H38   H     H_    0.131298 0.230954 0.841390 0.170177
H39   H     H_    0.813897 0.140097 0.901348 0.159096
H40   H     H_    0.126434 0.299970 0.754650 0.136717
C103  C     C_R   0.400166 0.179993 0.199904 0.580604
N7    N     N_R   0.543835 0.176671 0.174701 -0.554985
C104  C     C_R   0.699823 0.202053 0.178731 0.583739
C105  C     C_R   0.717009 0.231451 0.208954 -0.025333
C106  C     C_R   0.569965 0.235267 0.234742 -0.020583
C107  C     C_R   0.409432 0.209550 0.230148 -0.031879
C108  C     C_R   0.877295 0.257162 0.213918 -0.143388
C109  C     C_R   0.890626 0.286350 0.243945 -0.147914
C110  C     C_R   0.744066 0.290580 0.269800 -0.031515
C111  C     C_R   0.583522 0.264867 0.265205 -0.020557
C112  C     C_R   0.436474 0.268683 0.290993 -0.025648
C113  C     C_R   0.276183 0.242974 0.286027 -0.142923
C114  C     C_R   0.262863 0.213783 0.256002 -0.147159
C115  C     C_R   0.753365 0.320129 0.300051 0.579678
N8    N     N_R   0.609703 0.323450 0.325253 -0.554988
C116  C     C_R   0.453676 0.298077 0.321218 0.584101
O23   O     O_2   0.249852 0.154431 0.196090 -0.524176
O24   O     O_2   0.837275 0.199263 0.153397 -0.529230
H41   H     H_    0.993396 0.254774 0.194663 0.169312
H42   H     H_    0.016492 0.305522 0.246841 0.171796
O25   O     O_2   0.903712 0.345683 0.303871 -0.524801
O26   O     O_2   0.316209 0.300872 0.346550 -0.528983
H43   H     H_    0.160079 0.245362 0.305281 0.169515
H44   H     H_    0.137002 0.194610 0.253107 0.172139
C117  C     C_R   0.468957 0.380988 0.364718 -0.084158
H45   H     H_    0.341915 0.379114 0.348081 0.157863
C118  C     C_R   0.479061 0.410441 0.394660 -0.201425
H46   H     H_    0.358673 0.430525 0.400489 0.134644
C119  C     C_R   0.643934 0.414406 0.416395 -0.058963
C120  C     C_R   0.797744 0.387914 0.407602 -0.203011
H47   H     H_    0.926409 0.390045 0.423844 0.139787
C121  C     C_R   0.785778 0.357904 0.378042 -0.083578
H48   H     H_    0.904589 0.337434 0.372240 0.165021
C122  C     C_R   0.621591 0.354200 0.356139 0.353544
C123  C     C_R   0.684781 0.119137 0.135260 -0.083282
H49   H     H_    0.811849 0.121048 0.151893 0.158316
C124  C     C_R   0.674768 0.089663 0.105334 -0.200155
H50   H     H_    0.795260 0.069604 0.099511 0.135431
C125  C     C_R   0.509866 0.085645 0.083606 -0.058967
C126  C     C_R   0.355940 0.112111 0.092388 -0.202946
H51   H     H_    0.227253 0.109943 0.076150 0.139736
C127  C     C_R   0.367820 0.142147 0.121931 -0.083774
H52   H     H_    0.248919 0.162596 0.127722 0.164894
C128  C     C_R   0.532032 0.145899 0.143830 0.353373
O27   O     O_R   0.662230 0.032770 0.966890 -0.538958
O28   O     O_R   0.330090 0.043230 0.039150 -0.540389
O29   O     O_R   0.157350 0.967260 0.033130 -0.539173
C129  C     C_R   0.499013 0.053869 0.052169 0.708808
O30   O     O_R   0.332650 0.037450 0.967510 -0.541146
O31   O     O_R   0.159930 0.961430 0.960980 -0.538848
C130  C     C_R   0.501889 0.046050 0.956224 0.708721
O32   O     O_R   0.659640 0.038600 0.039040 -0.538968
O33   O     O_3   0.492510 0.975090 0.997960 -0.368162
V3    V     V_3+5 0.218600 0.004620 0.000380 1.412902
O34   O     O_R   0.830050 0.956730 0.960830 -0.539864
C131  C     C_R   0.998989 0.946051 0.947922 0.707739
O35   O     O_R   0.827490 0.962520 0.032470 -0.542004
C132  C     C_R   0.995917 0.953840 0.043866 0.707683
V4    V     V_3+5 0.718310 0.995320 0.999580 1.412193
O36   O     O_3   0.994270 0.024900 0.002040 -0.366636
O37   O     O_3   0.966196 0.648034 0.196968 -0.582286
C133  C     C_3   0.768666 0.654659 0.190640 0.077592
H53   H     H_    0.751799 0.654093 0.161754 0.153412
H54   H     H_    0.716277 0.684180 0.203816 0.116811
C134  C     C_3   0.643339 0.621766 0.201540 -0.340896
H55   H     H_    0.698829 0.592531 0.188754 0.217627
H56   H     H_    0.649543 0.623340 0.230690 0.198396
C135  C     C_3   0.433678 0.625783 0.190758 -0.757269
H57   H     H_    0.379410 0.655392 0.202523 0.232380
H58   H     H_    0.343694 0.602878 0.200425 0.249502
H59   H     H_    0.421322 0.622025 0.161516 0.231142
C136  C     C_3   0.473677 0.607752 0.359742 -0.744769
H60   H     H_    0.597059 0.589737 0.366264 0.205477
H61   H     H_    0.437291 0.597793 0.331509 0.238108
H62   H     H_    0.519810 0.639194 0.363525 0.207095
O38   O     O_3   0.107747 0.347110 0.709824 -0.546113
C137  C     C_3   0.073968 0.377729 0.738568 0.122446
H63   H     H_    0.202190 0.397749 0.743131 0.128185
H64   H     H_    0.040809 0.365635 0.763124 0.095836
C138  C     C_3   0.899803 0.401499 0.729822 -0.263843
H65   H     H_    0.930152 0.413901 0.705359 0.214978
H66   H     H_    0.771639 0.381686 0.724970 0.187209
C139  C     C_3   0.853767 0.435166 0.759885 -0.836671
H67   H     H_    0.819065 0.423332 0.784446 0.230993
H68   H     H_    0.726754 0.451736 0.752626 0.240212
H69   H     H_    0.978784 0.455779 0.764827 0.238566
O39   O     O_3   0.552905 0.813243 0.761086 -0.546073
C140  C     C_3   0.588375 0.839479 0.737081 0.119077
H70   H     H_    0.459616 0.858400 0.735156 0.127988
H71   H     H_    0.625433 0.823125 0.710383 0.103745
C141  C     C_3   0.760008 0.865890 0.750580 -0.264458
H72   H     H_    0.725635 0.882619 0.777227 0.214725
H73   H     H_    0.888532 0.847218 0.752933 0.188253
C142  C     C_3   0.808303 0.894962 0.725722 -0.832348
H74   H     H_    0.846953 0.878815 0.699085 0.233470
H75   H     H_    0.933390 0.913600 0.736333 0.239736
H76   H     H_    0.682903 0.914437 0.723435 0.237808

loop_
_geom_bond_atom_site_label_1
_geom_bond_atom_site_label_2
_ccdc_geom_bond_type
O27   C130  A    
C141  C142  S    
O34   V4    S    
N4    C53   A    
C139  H68   S    
C19   H4    S    
C75   C76   A    
C9    C16   A    
C72   C73   A    
C119  C120  A    
C34   H20   S    
C115  O25   S    
C59   C60   A    
C84   H31   S    
C92   C93   A    
C28   H10   S    
C38   C60   A    
C80   C83   A    
C90   C91   A    
C29   H11   S    
C59   C62   A    
C81   C82   A    
C23   C24   A    
C22   H6    S    
C113  C114  A    
C125  C129  S    
C137  H63   S    
O33   V4    S    
C120  C121  A    
C83   H32   S    
C25   C30   A    
C33   C37   A    
C77   C99   A    
C15   C16   A    
C136  H60   S    
O5    C3    A    
C17   N2    A    
N7    C104  A    
O31   V3    S    
C44   C46   A    
N6    C89   A    
C29   C30   A    
C70   H34   S    
C62   H19   S    
C35   H12   S    
C134  H56   S    
C110  C111  A    
C101  H38   S    
C93   H39   S    
C34   C42   A    
C67   O19   S    
C31   N3    A    
N1    C6    A    
C81   C100  A    
C95   C98   A    
C117  C118  A    
N5    C68   A    
C123  C128  A    
C89   O20   S    
C69   H35   S    
O1    C2    A    
C111  C112  A    
C90   H30   S    
O8    V2    S    
C82   C86   A    
C105  C108  A    
C91   H29   S    
O34   C131  A    
C67   N5    A    
C68   O21   S    
C137  C138  S    
O28   V3    S    
C5    N1    A    
C74   C77   A    
C25   C26   A    
C10   C11   A    
C133  H54   S    
C39   C40   A    
C79   C92   A    
C18   O14   S    
O37   C133  S    
C65   H24   S    
C71   C78   A    
N7    C128  S    
C1    O6    A    
O39   C140  S    
C68   C77   A    
C19   C20   A    
C35   C36   A    
C102  H40   S    
C139  H69   S    
C116  O26   S    
C118  H46   S    
C67   C75   A    
C134  H55   S    
C97   C102  A    
C54   C58   A    
C121  H48   S    
C107  C114  A    
C100  C101  A    
C117  C122  A    
C38   C39   A    
C20   C21   A    
N2    C24   S    
C140  C141  S    
C76   C98   A    
C42   C132  S    
C40   C62   A    
C8    C13   A    
C26   C27   A    
C25   H8    S    
C47   H18   S    
C22   C23   A    
C41   C63   A    
C86   C87   A    
C63   H22   S    
C53   O16   S    
C43   C55   A    
C137  H64   S    
V2    O10   S    
C45   C64   A    
C54   H16   S    
C123  H49   S    
C23   H7    S    
C141  H72   S    
C11   C12   A    
C99   O38   S    
C124  H50   S    
C51   C65   A    
C109  H42   S    
O32   V4    S    
C54   C55   A    
C56   C57   A    
O4    C2    A    
C61   C66   A    
C127  H52   S    
C140  H70   S    
C80   C82   A    
C15   H3    S    
C12   C13   A    
C51   C52   A    
C35   C42   A    
O30   V3    S    
C142  H76   S    
C135  H59   S    
C47   C48   A    
C32   C41   A    
C36   C37   A    
C17   O13   S    
C31   O15   S    
C133  C134  S    
C38   C41   A    
O2    C1    A    
C112  C113  A    
C125  C126  A    
N3    C32   A    
C74   C96   A    
C88   O22   S    
C133  H53   S    
C85   C89   A    
C69   C70   A    
O28   C129  A    
C49   C50   A    
C7    C10   A    
C31   C39   A    
C44   C59   A    
C110  C115  A    
C3    C43   S    
C7    C8    A    
C135  H58   S    
O33   V3    S    
C13   C14   A    
C5    O11   S    
N5    C73   S    
C26   H9    S    
C50   C51   A    
C76   H28   S    
C27   C131  S    
C99   C102  A    
O3    C4    A    
C142  H75   S    
C138  C139  S    
O1    V2    S    
C100  H36   S    
C140  H71   S    
C105  C106  A    
V4    O36   S    
C63   C66   A    
C121  C122  A    
C106  C107  A    
O6    V2    S    
C10   H1    S    
C28   C29   A    
C74   C75   A    
O9    C4    A    
C45   C46   A    
C36   H13   S    
C20   H5    S    
O29   C132  A    
C139  H67   S    
O2    V1    S    
C55   H15   S    
C129  O32   A    
N6    C94   S    
O38   C137  S    
C96   C97   A    
C33   H21   S    
C4    C21   S    
O7    V1    S    
C12   C17   A    
C141  H73   S    
C27   C28   A    
C43   C56   A    
C104  O24   S    
C56   H23   S    
C60   C61   A    
C72   H27   S    
C14   C18   A    
C52   N4    A    
C45   C61   A    
N2    C18   A    
C21   C22   A    
C70   C78   A    
C32   O17   S    
C6    O12   S    
C81   C97   A    
O5    V1    S    
C123  C124  A    
C85   C86   A    
C1    C78   S    
C138  H66   S    
C113  H43   S    
C83   C84   A    
C112  C116  A    
C87   C101  A    
C5    C9    A    
O35   C132  A    
C136  H62   S    
N3    C37   S    
C11   H2    S    
O30   C130  A    
C33   C34   A    
C6    C7    A    
O9    V2    S    
C52   O18   S    
C71   C72   A    
O4    V1    S    
C2    C119  S    
C104  C105  A    
V1    O10   S    
C87   C88   A    
O27   V4    S    
C46   C50   A    
C135  H57   S    
C57   C136  S    
C44   C47   A    
C19   C24   A    
C40   H14   S    
C109  C110  A    
C103  C107  A    
V3    O36   S    
C80   C95   A    
N4    C58   S    
N8    C122  S    
C103  O23   S    
C57   C58   A    
C79   C130  S    
C48   H17   S    
C136  H61   S    
C49   C53   A    
C127  C128  A    
C93   C94   A    
O29   V3    S    
O7    V2    S    
C117  H45   S    
C118  C119  A    
C142  H74   S    
C126  C127  A    
C103  N7    A    
C108  C109  A    
C16   O39   S    
C69   C73   A    
N1    C30   S    
C98   H33   S    
C108  H41   S    
C126  H51   S    
O35   V4    S    
O31   C131  A    
C120  H47   S    
C134  C135  S    
C64   C65   A    
C14   C15   A    
O3    V1    S    
C124  C125  A    
C88   N6    A    
N8    C116  A    
C79   C91   A    
C114  H44   S    
C48   C49   A    
C115  N8    A    
C8    C9    A    
C92   H37   S    
C95   C96   A    
C71   H26   S    
C66   H25   S    
C90   C94   A    
C84   C85   A    
C106  C111  A    
O8    C3    A    
C138  H65   S    
C64   O37   S    
