data_mof_unit_32740.cif
_audit_creation_date              2012-12-10T17:14:45-0500
_audit_creation_method            fapswitch 2.2
_symmetry_space_group_name_H-M    P1
_symmetry_Int_Tables_number       1
_space_group_crystal_system       triclinic
_cell_length_a                    10.617391
_cell_length_b                    12.972418
_cell_length_c                    11.701394
_cell_angle_alpha                 99.84521
_cell_angle_beta                  94.030182
_cell_angle_gamma                 91.100846
_cell_volume                      1583.2096773

loop_
_atom_site_label
_atom_site_type_symbol
_atom_type_description
_atom_site_fract_x
_atom_site_fract_y
_atom_site_fract_z
_atom_type_partial_charge
C1    C     C_R   0.500011 0.299216 0.478700 0.810407
C2    C     C_R   0.613352 0.585799 0.856188 0.659087
C3    C     C_R   0.556520 0.538392 0.156755 -0.043055
C4    C     C_R   0.443478 0.461610 0.843246 -0.043055
C5    C     C_R   0.546802 0.532578 0.034157 0.017097
C6    C     C_R   0.453199 0.467423 0.965843 0.017112
C7    C     C_R   0.259285 0.496673 0.499681 0.856486
C8    C     C_R   0.740715 0.503328 0.500320 0.856474
C9    C     C_3   0.044961 0.451447 0.587998 -0.310078
C10   C     C_3   0.955039 0.548557 0.412008 -0.310091
C11   C     C_3   0.951785 0.404068 0.484653 0.510144
C12   C     C_R   0.499989 0.700784 0.521300 0.810382
C13   C     C_3   0.048216 0.595935 0.515352 0.510144
C14   C     C_3   0.877479 0.504284 0.500358 -0.098139
C15   C     C_3   0.122521 0.495719 0.499646 -0.098140
C16   C     C_3   0.969745 0.553702 0.604012 -0.254881
C17   C     C_3   0.030254 0.446300 0.395993 -0.254891
C18   C     C_R   0.495416 0.813949 0.533031 -0.039911
C19   C     C_R   0.504583 0.186051 0.466968 -0.039950
C20   C     C_R   0.551111 0.018070 0.355799 -0.233626
C21   C     C_R   0.448884 0.981930 0.644199 -0.233662
C22   C     C_R   0.543656 0.125968 0.365045 -0.175843
C23   C     C_R   0.472956 0.138032 0.559840 -0.279278
C24   C     C_R   0.456335 0.874031 0.634950 -0.175843
C25   C     C_3   0.977069 0.226521 0.471701 0.061438
C26   C     C_3   0.911870 0.120410 0.427030 -0.785436
C27   C     C_3   0.022922 0.773482 0.528321 0.061428
C28   C     C_3   0.088098 0.879590 0.573065 -0.785470
C29   C     C_3   0.688705 0.749670 0.841301 0.054447
C30   C     C_3   0.764476 0.809071 0.766509 -0.794559
C31   C     C_3   0.311234 0.250324 0.158644 0.054379
C32   C     C_3   0.235471 0.190918 0.233436 -0.794565
C33   C     C_R   0.527047 0.861968 0.440161 -0.279280
C34   C     C_R   0.480291 0.030226 0.551432 0.176491
C35   C     C_R   0.519710 0.969774 0.448568 0.176498
C36   C     C_R   0.371963 0.409274 0.021481 -0.411845
C37   C     C_R   0.628039 0.590726 0.978518 -0.411819
C38   C     C_R   0.386653 0.414196 0.143812 0.659116
Cu1   Cu    Cu3+1 0.509400 0.507730 0.615930 0.985310
Cu2   Cu    Cu3+1 0.490600 0.492270 0.384070 0.985325
H1    H     H_    0.084736 0.410987 0.658029 0.145511
H2    H     H_    0.417977 0.027373 0.723256 0.131744
H3    H     H_    0.372343 0.410366 0.790106 0.131864
H4    H     H_    0.627653 0.589638 0.209895 0.131863
H5    H     H_    0.296701 0.361264 0.970243 0.138604
H6    H     H_    0.703300 0.638742 0.029753 0.138625
H7    H     H_    0.014954 0.228341 0.563130 0.141769
H8    H     H_    0.056742 0.235321 0.416901 0.132416
H9    H     H_    0.870025 0.117614 0.336797 0.247336
H10   H     H_    0.981581 0.057731 0.426914 0.195513
H11   H     H_    0.835776 0.106450 0.483607 0.256472
H12   H     H_    0.915266 0.589020 0.341979 0.145513
H13   H     H_    0.943224 0.764653 0.583084 0.132406
H14   H     H_    0.985078 0.771693 0.436886 0.141791
H15   H     H_    0.164259 0.893564 0.516561 0.256512
H16   H     H_    0.018391 0.942268 0.573135 0.195524
H17   H     H_    0.129851 0.882366 0.663325 0.247304
H18   H     H_    0.729870 0.771619 0.932413 0.126299
H19   H     H_    0.589098 0.774903 0.835901 0.136839
H20   H     H_    0.731537 0.785622 0.673393 0.241033
H21   H     H_    0.752820 0.894558 0.792579 0.205894
H22   H     H_    0.866151 0.791877 0.778294 0.233408
H23   H     H_    0.942149 0.599155 0.687234 0.186174
H24   H     H_    0.410826 0.225046 0.163981 0.136821
H25   H     H_    0.270007 0.228424 0.067547 0.126332
H26   H     H_    0.133820 0.208233 0.221787 0.233432
H27   H     H_    0.246976 0.105424 0.207244 0.205875
H28   H     H_    0.268539 0.214251 0.326535 0.241042
H29   H     H_    0.057850 0.400849 0.312770 0.186147
H30   H     H_    0.557674 0.815517 0.361447 0.143632
H31   H     H_    0.442332 0.184483 0.638555 0.143637
H32   H     H_    0.429343 0.837426 0.706446 0.152549
H33   H     H_    0.570635 0.162573 0.293544 0.152562
H34   H     H_    0.582013 0.972626 0.276740 0.131736
N1    N     N_R   0.523540 0.519360 0.790140 -0.213803
N2    N     N_R   0.476460 0.480640 0.209860 -0.213795
O1    O     O_R   0.506670 0.354460 0.582000 -0.594952
O2    O     O_3   0.111519 0.694628 0.533439 -0.581400
O3    O     O_3   0.696175 0.640983 0.800922 -0.565020
O4    O     O_3   0.303837 0.359008 0.199083 -0.565003
O5    O     O_R   0.493330 0.645540 0.418000 -0.594955
O6    O     O_R   0.490800 0.341410 0.386200 -0.566616
O7    O     O_R   0.509200 0.658590 0.613800 -0.566647
O8    O     O_R   0.324790 0.506500 0.597880 -0.597986
O9    O     O_R   0.675210 0.493500 0.402120 -0.597984
O10   O     O_R   0.308910 0.493440 0.402080 -0.531481
O11   O     O_R   0.691090 0.506560 0.597920 -0.531480
O12   O     O_3   0.888478 0.305377 0.466573 -0.581402

loop_
_geom_bond_atom_site_label_1
_geom_bond_atom_site_label_2
_ccdc_geom_bond_type
C17   H29   S    
C5    C37   A    
C1    O1    A    
Cu1   O11   S    
C27   O2    S    
C10   H12   S    
C28   H16   S    
C27   H14   S    
C31   O4    S    
C38   N2    A    
C28   H17   S    
C18   C24   A    
Cu1   O1    S    
C9    C16   S    
Cu1   O8    S    
C8    O9    A    
C26   H10   S    
C5    C6    A    
C11   C14   S    
C7    O10   A    
C10   C17   S    
C15   C17   S    
C34   C35   A    
Cu2   O10   S    
C4    N1    A    
C2    O3    S    
C20   C35   A    
C29   H19   S    
C30   H20   S    
C16   H23   S    
Cu1   N1    S    
C25   H7    S    
C32   H28   S    
C7    C15   S    
C7    O8    A    
Cu2   O5    S    
C28   H15   S    
C3    H4    S    
C1    C19   S    
Cu2   O6    S    
C19   C22   A    
C4    C6    A    
C10   C14   S    
C26   H9    S    
Cu1   Cu2   S    
C21   C34   A    
C1    O6    A    
C25   O12   S    
Cu2   N2    S    
C12   O7    A    
Cu2   O9    S    
C19   C23   A    
C29   C30   S    
C23   H31   S    
C31   C32   S    
C29   O3    S    
C11   O12   S    
C23   C34   A    
C20   H34   S    
C36   H5    S    
C3    N2    A    
C9    C11   S    
C25   H8    S    
C33   H30   S    
C32   H27   S    
C20   C22   A    
C13   C15   S    
C14   C16   S    
C30   H21   S    
C21   C24   A    
C24   H32   S    
C32   H26   S    
C31   H25   S    
C13   O2    S    
C11   C17   S    
C8    C14   S    
C31   H24   S    
C3    C5    A    
C10   C13   S    
C27   H13   S    
C4    H3    S    
C9    H1    S    
C8    O11   A    
C30   H22   S    
C25   C26   S    
Cu1   O7    S    
C26   H11   S    
C2    C37   A    
C38   O4    S    
C36   C38   A    
C33   C35   A    
C6    C36   A    
C12   O5    A    
C9    C15   S    
C18   C33   A    
C21   H2    S    
C29   H18   S    
C13   C16   S    
C12   C18   S    
C27   C28   S    
C22   H33   S    
C37   H6    S    
C2    N1    A    
