data_mof_unit_21398.cif
_audit_creation_date              2012-12-10T16:55:02-0500
_audit_creation_method            fapswitch 2.2
_symmetry_space_group_name_H-M    P1
_symmetry_Int_Tables_number       1
_space_group_crystal_system       triclinic
_cell_length_a                    9.702541
_cell_length_b                    10.912298
_cell_length_c                    15.386684
_cell_angle_alpha                 89.566736
_cell_angle_beta                  73.958077
_cell_angle_gamma                 89.393222
_cell_volume                      1565.55281766

loop_
_atom_site_label
_atom_site_type_symbol
_atom_type_description
_atom_site_fract_x
_atom_site_fract_y
_atom_site_fract_z
_atom_type_partial_charge
C1    C     C_R   0.998477 0.265566 0.505069 0.717528
C2    C     C_R   0.667477 0.543987 0.904969 -0.019459
C3    C     C_R   0.759850 0.596414 0.951113 0.025501
C4    C     C_R   0.517074 0.541286 0.947763 -0.036636
C5    C     C_R   0.468257 0.558419 0.042941 -0.002761
C6    C     C_R   0.565693 0.603410 0.088377 -0.191498
C7    C     C_R   0.707610 0.626392 0.042183 -0.177651
C8    C     C_R   0.412749 0.531688 0.898605 0.526770
C9    C     C_R   0.268901 0.513673 0.944393 -0.331028
C10   C     C_R   0.223179 0.512293 0.038515 0.070200
C11   C     C_R   0.322332 0.534650 0.088872 0.083121
C12   C     C_R   0.917062 0.503097 0.672429 0.848635
C13   C     C_R   0.078216 0.491266 0.082949 -0.174065
C14   C     C_R   0.030940 0.489402 0.177106 -0.202625
C15   C     C_R   0.272959 0.528422 0.183710 -0.232306
C16   C     C_2   0.889383 0.933714 0.512950 -0.255645
C17   C     C_2   0.007351 0.865558 0.477999 0.425138
C18   C     C_2   0.890711 0.066891 0.503743 -0.253426
C19   C     C_2   0.994058 0.134345 0.522154 0.429040
C20   C     C_2   0.394955 0.450066 0.563936 0.003918
C21   C     C_2   0.553294 0.434162 0.555413 0.121314
C22   C     C_R   0.001495 0.734280 0.495040 0.674408
C23   C     C_R   0.083026 0.501119 0.327419 0.774080
C24   C     C_R   0.870971 0.524097 0.770640 -0.288494
C25   C     C_R   0.128608 0.506307 0.227997 -0.056374
C26   C     C_R   0.903720 0.618391 0.905608 -0.334365
C27   C     C_R   0.957313 0.589692 0.813988 0.420701
C28   C     C_R   0.730550 0.491933 0.819197 0.434981
Cu1   Cu    Cu3+1 0.138640 0.500020 0.499980 0.976214
Cu2   Cu    Cu3+1 0.861360 0.499980 0.500020 0.977019
H1    H     H_    0.777647 0.665440 0.078527 0.133443
H2    H     H_    0.787955 0.891069 0.547078 0.138398
H3    H     H_    0.803142 0.109859 0.483162 0.134632
H4    H     H_    0.584705 0.364568 0.597090 0.111216
H5    H     H_    0.346303 0.536756 0.224589 0.143394
H6    H     H_    0.918755 0.472538 0.209916 0.141808
H7    H     H_    0.533327 0.628876 0.158733 0.122792
N1    N     N_2   0.346430 0.498660 0.500980 -0.266113
N2    N     N_2   0.652550 0.498630 0.501000 0.006435
O1    O     O_R   0.117050 0.321960 0.499980 -0.547069
O2    O     O_R   0.882890 0.321920 0.500020 -0.622909
O3    O     O_R   0.052910 0.500040 0.629810 -0.544216
O4    O     O_R   0.818750 0.499990 0.629840 -0.530830
O5    O     O_R   0.117110 0.678080 0.499980 -0.540315
O6    O     O_R   0.882950 0.678040 0.500020 -0.583314
O7    O     O_R   0.181250 0.500010 0.370160 -0.593074
O8    O     O_R   0.947090 0.499960 0.370190 -0.596393
H8    H     H_    0.001480 0.475438 0.044827 0.142476
O9    O     O_3   0.133771 0.919520 0.427533 -0.512722
C29   C     C_3   0.176921 0.867410 0.340364 -0.311752
H9    H     H_    0.086869 0.863788 0.308546 0.127676
H10   H     H_    0.224393 0.774659 0.342173 0.167855
H11   H     H_    0.261379 0.925815 0.296637 0.190280
O10   O     O_3   0.097798 0.080940 0.557183 -0.509472
C30   C     C_3   0.059654 0.101546 0.651222 -0.349731
H12   H     H_    0.952374 0.062796 0.685190 0.140486
H13   H     H_    0.062013 0.200860 0.666636 0.150906
H14   H     H_    0.139129 0.054204 0.679810 0.187704
H15   H     H_    0.319167 0.414611 0.624292 0.157825
H16   H     H_    0.418199 0.512451 0.438855 0.230291
O11   O     O_3   0.606040 0.607054 0.476347 -0.490655
C31   C     C_3   0.672197 0.624878 0.383429 -0.147140
H17   H     H_    0.688554 0.537781 0.344351 0.118991
H18   H     H_    0.774462 0.674547 0.372739 0.179976
H19   H     H_    0.600835 0.683841 0.355397 0.116962
H20   H     H_    0.192255 0.502505 0.905536 0.198794
H21   H     H_    0.973396 0.662258 0.940040 0.163416
O12   O     O_3   0.096113 0.621306 0.768169 -0.552998
C32   C     C_3   0.096655 0.745592 0.742213 -0.264823
H22   H     H_    0.020466 0.763724 0.701003 0.147057
H23   H     H_    0.205537 0.768575 0.699494 0.193310
H24   H     H_    0.071985 0.806646 0.802227 0.131826
O13   O     O_3   0.658260 0.405364 0.783688 -0.517308
C33   C     C_3   0.690115 0.288436 0.812941 -0.341502
H25   H     H_    0.652331 0.280105 0.887938 0.162070
H26   H     H_    0.632935 0.218912 0.784101 0.184702
H27   H     H_    0.806911 0.267229 0.788403 0.131132
O14   O     O_3   0.446481 0.547345 0.805847 -0.521319
C34   C     C_3   0.455199 0.673879 0.786054 -0.250810
H28   H     H_    0.546719 0.716077 0.804870 0.127948
H29   H     H_    0.353373 0.722533 0.820164 0.152194
H30   H     H_    0.474057 0.686151 0.712053 0.206238

loop_
_geom_bond_atom_site_label_1
_geom_bond_atom_site_label_2
_ccdc_geom_bond_type
C30   H12   S    
Cu1   O3    S    
O13   C33   S    
Cu2   O6    S    
C24   C27   A    
C4    C8    A    
C26   C27   A    
C31   H17   S    
C33   H26   S    
C26   H21   S    
C5    C11   A    
C12   O4    A    
C3    C7    A    
C14   H6    S    
C5    C6    A    
C15   C25   A    
C18   C19   D    
C32   H23   S    
C9    H20   S    
C12   O3    A    
C27   O12   S    
C1    O1    A    
O12   C32   S    
C11   C15   A    
C22   O5    A    
C8    C9    A    
C33   H27   S    
Cu1   N1    S    
C29   H10   S    
Cu2   O2    S    
C9    C10   A    
C31   H18   S    
C23   O7    A    
C13   C14   A    
C8    O14   S    
C32   H22   S    
C28   O13   S    
C15   H5    S    
N2    O11   S    
C1    C19   S    
C29   H11   S    
C7    H1    S    
C33   H25   S    
Cu2   O8    S    
C23   O8    A    
C17   O9    S    
C34   H29   S    
O14   C34   S    
C16   C17   D    
C21   H4    S    
C32   H24   S    
C2    C4    A    
Cu1   Cu2   S    
C13   H8    S    
C20   N1    D    
C21   N2    D    
C29   H9    S    
C6    H7    S    
C20   H15   S    
N1    H16   S    
C19   O10   S    
C1    O2    A    
C30   H13   S    
Cu1   O5    S    
Cu2   O4    S    
O10   C30   S    
C31   H19   S    
C3    C26   A    
C24   C28   A    
C4    C5    A    
C10   C13   A    
C34   H30   S    
C6    C7    A    
C16   H2    S    
C12   C24   S    
C17   C22   S    
Cu1   O7    S    
C2    C3    A    
Cu1   O1    S    
Cu2   N2    S    
C23   C25   S    
C14   C25   A    
O11   C31   S    
C18   H3    S    
C10   C11   A    
C34   H28   S    
C22   O6    A    
C20   C21   S    
C16   C18   S    
O9    C29   S    
C30   H14   S    
C2    C28   A    
