data_mof_unit_56527.cif
_audit_creation_date              2012-12-10T17:17:31-0500
_audit_creation_method            fapswitch 2.2
_symmetry_space_group_name_H-M    P1
_symmetry_Int_Tables_number       1
_space_group_crystal_system       triclinic
_cell_length_a                    10.213448
_cell_length_b                    10.68438
_cell_length_c                    12.259724
_cell_angle_alpha                 90.660296
_cell_angle_beta                  108.507568
_cell_angle_gamma                 93.817034
_cell_volume                      1265.07571792

loop_
_atom_site_label
_atom_site_type_symbol
_atom_type_description
_atom_site_fract_x
_atom_site_fract_y
_atom_site_fract_z
_atom_type_partial_charge
C1    C     C_R   0.052990 0.733073 0.499683 0.923198
C2    C     C_R   0.204375 0.499400 0.841012 -0.123970
C3    C     C_2   0.086430 0.866528 0.517031 -0.405365
C4    C     C_R   0.132608 0.504470 0.715321 0.835796
C5    C     C_2   0.037738 0.934150 0.587862 -0.062739
C6    C     C_2   0.941054 0.133872 0.536212 -0.306677
C7    C     C_2   0.053674 0.068867 0.582632 0.036354
C8    C     C_2   0.432709 0.509102 0.508651 -0.082701
C9    C     C_2   0.572971 0.483070 0.496065 -0.035997
C10   C     C_R   0.954052 0.266770 0.513397 0.913320
C11   C     C_R   0.866535 0.486186 0.285913 0.940091
C12   C     C_R   0.430678 0.494764 0.988659 0.090557
C13   C     C_R   0.743890 0.335896 0.990051 -0.103783
C14   C     C_R   0.794069 0.463271 0.164081 -0.169586
C15   C     C_R   0.149718 0.549941 0.924055 -0.025657
C16   C     C_R   0.236238 0.571291 0.037355 -0.181389
C17   C     C_R   0.374648 0.545833 0.068982 -0.072874
C18   C     C_2   0.981165 0.879878 0.676742 0.442014
C19   C     C_2   0.308229 0.351196 0.371322 0.604086
C20   C     C_2   0.003376 0.577716 0.900129 0.423677
C21   C     C_2   0.198157 0.122140 0.625336 0.416861
C22   C     C_R   0.340008 0.456492 0.878920 0.038007
C23   C     C_R   0.571639 0.468913 0.018200 0.012684
C24   C     C_R   0.612933 0.381849 0.949174 0.041530
C25   C     C_R   0.520417 0.337694 0.843562 0.146195
C26   C     C_R   0.386221 0.373604 0.810659 -0.226607
C27   C     C_R   0.673274 0.524271 0.115678 0.065985
C28   C     C_R   0.829754 0.368178 0.100233 0.110988
H1    H     H_    0.837822 0.086818 0.513455 0.182549
H2    H     H_    0.994765 0.783335 0.701447 0.074050
H3    H     H_    0.251330 0.262182 0.371477 0.132283
H4    H     H_    0.979066 0.661831 0.938008 0.072951
H5    H     H_    0.253770 0.121242 0.716749 0.069481
H6    H     H_    0.142073 0.912302 0.464326 0.200463
H7    H     H_    0.580967 0.402325 0.445028 0.203515
H8    H     H_    0.432505 0.583743 0.569345 0.157061
H9    H     H_    0.677081 0.629880 0.593467 0.181626
H10   H     H_    0.775883 0.265561 0.941851 0.207788
H11   H     H_    0.434787 0.558975 0.158842 0.196696
H12   H     H_    0.196034 0.607167 0.102506 0.160093
H13   H     H_    0.317328 0.330233 0.732716 0.193277
I1    I     I_    0.999453 0.255720 0.161276 -0.287056
I2    I     I_    0.576873 0.220496 0.726121 -0.272312
I3    I     I_    0.670422 0.715890 0.170669 -0.332931
N1    N     N_2   0.313640 0.446500 0.454900 -0.147788
N2    N     N_2   0.686360 0.553430 0.545150 -0.180956
O1    O     O_R   0.936910 0.692950 0.509080 -0.607483
O2    O     O_2   0.358117 0.371074 0.294267 -0.623025
O3    O     O_2   0.908964 0.502614 0.846324 -0.530122
O4    O     O_2   0.259642 0.153207 0.558294 -0.572222
O5    O     O_R   0.138320 0.658600 0.480130 -0.602405
O6    O     O_R   0.002900 0.525670 0.675280 -0.568356
O7    O     O_R   0.204310 0.491320 0.646330 -0.629892
O8    O     O_R   0.861680 0.341400 0.519870 -0.590674
O9    O     O_R   0.063090 0.307050 0.490920 -0.588413
O10   O     O_R   0.795690 0.508680 0.353670 -0.587598
O11   O     O_R   0.997100 0.474330 0.324720 -0.603150
O12   O     O_2   0.922187 0.944725 0.726388 -0.548801
Zn1   Zn    Zn3+2 0.865520 0.522940 0.519330 1.012409
Zn2   Zn    Zn3+2 0.134480 0.477060 0.480670 0.984941

loop_
_geom_bond_atom_site_label_1
_geom_bond_atom_site_label_2
_ccdc_geom_bond_type
C12   C17   A    
C6    C10   S    
C2    C4    S    
C23   C24   A    
C19   N1    S    
N1    Zn2   S    
C2    C22   A    
C6    C7    D    
C2    C15   A    
O6    Zn1   S    
C23   C27   A    
N2    Zn1   S    
O10   Zn1   S    
C3    C5    D    
C5    C18   S    
C19   H3    S    
C25   I2    S    
H9    N2    S    
C9    N2    D    
C13   C28   A    
C11   O11   A    
O9    Zn2   S    
C10   O9    A    
C1    O5    A    
C12   C23   A    
C13   H10   S    
C20   O3    D    
C16   H12   S    
C18   H2    S    
C28   I1    S    
C21   O4    D    
O7    Zn2   S    
C4    O6    A    
O8    Zn1   S    
C8    H8    S    
C15   C20   S    
C14   C27   A    
C11   C14   S    
C4    O7    A    
C21   H5    S    
C10   O8    A    
O1    Zn1   S    
C15   C16   A    
C16   C17   A    
C12   C22   A    
C6    H1    S    
C24   C25   A    
C13   C24   A    
C9    H7    S    
C20   H4    S    
C5    C7    S    
C17   H11   S    
C8    N1    D    
C1    O1    A    
O11   Zn2   S    
C22   C26   A    
O5    Zn2   S    
C19   O2    D    
C3    H6    S    
C14   C28   A    
C25   C26   A    
C7    C21   S    
C27   I3    S    
C18   O12   D    
C11   O10   A    
C26   H13   S    
C8    C9    S    
C1    C3    S    
