data_mof_unit_30782.cif
_audit_creation_date              2012-12-11T16:28:08-0500
_audit_creation_method            fapswitch 2.2
_symmetry_space_group_name_H-M    P1
_symmetry_Int_Tables_number       1
_space_group_crystal_system       triclinic
_cell_length_a                    30.132202
_cell_length_b                    22.519315
_cell_length_c                    18.014797
_cell_angle_alpha                 89.998681
_cell_angle_beta                  122.961788
_cell_angle_gamma                 90.001672
_cell_volume                      10256.3959655

loop_
_atom_site_label
_atom_site_type_symbol
_atom_type_description
_atom_site_fract_x
_atom_site_fract_y
_atom_site_fract_z
_atom_type_partial_charge
C1    C     C_R   0.531529 0.607871 0.705611 -0.112329
C2    C     C_R   0.628512 0.278909 0.419922 -0.151913
C3    C     C_R   0.730182 0.793942 0.824430 0.468171
C4    C     C_R   0.295430 0.846519 0.003944 0.536502
C5    C     C_R   0.769458 0.293400 0.175373 0.549488
C6    C     C_R   0.704650 0.846098 0.996752 0.534775
C7    C     C_R   0.230530 0.293428 0.824615 0.549357
C8    C     C_R   0.850626 0.341875 0.054009 -0.321780
C9    C     C_R   0.214798 0.797923 0.130668 -0.324913
C10   C     C_R   0.149370 0.341865 0.946002 -0.321904
C11   C     C_R   0.784824 0.798555 0.868883 -0.354179
C12   C     C_R   0.350635 0.841897 0.054045 -0.321313
C13   C     C_R   0.681553 0.641232 0.416891 -0.141518
C14   C     C_R   0.714804 0.297937 0.130678 -0.325230
C15   C     C_R   0.649458 0.841366 0.946936 -0.325630
C16   C     C_R   0.285183 0.297967 0.869305 -0.324729
C17   C     C_R   0.594675 0.581854 0.424608 -0.145460
C18   C     C_R   0.424136 0.391020 0.574910 -0.116144
C19   C     C_R   0.405326 0.581867 0.575385 -0.145990
C20   C     C_R   0.575866 0.391023 0.425091 -0.116568
C21   C     C_R   0.094670 0.081873 0.424611 -0.146041
C22   C     C_R   0.924144 0.891008 0.574903 -0.117235
C23   C     C_R   0.905330 0.081871 0.575389 -0.146388
C24   C     C_R   0.371500 0.278894 0.580082 -0.151571
C25   C     C_R   0.075856 0.891019 0.425086 -0.116006
C26   C     C_R   0.394383 0.609357 0.295342 -0.105143
C27   C     C_R   0.617467 0.416756 0.741508 -0.114742
C28   C     C_R   0.605606 0.609376 0.704672 -0.103611
C29   C     C_R   0.382532 0.416758 0.258491 -0.114732
C30   C     C_R   0.894383 0.109358 0.295344 -0.106094
C31   C     C_R   0.117467 0.916755 0.741508 -0.114715
C32   C     C_R   0.105617 0.109360 0.704654 -0.105222
C33   C     C_R   0.882519 0.916800 0.258483 -0.114572
C34   C     C_R   0.576171 0.641672 0.729586 0.058834
C35   C     C_R   0.818466 0.141306 0.583071 -0.156125
C36   C     C_R   0.403453 0.401298 0.209019 0.072774
C37   C     C_R   0.423797 0.641672 0.270419 0.058929
C38   C     C_R   0.596545 0.401296 0.790980 0.072652
C39   C     C_R   0.076201 0.141674 0.729574 0.058733
C40   C     C_R   0.903406 0.901385 0.208948 0.073574
C41   C     C_R   0.923798 0.141673 0.270422 0.058682
C42   C     C_R   0.096544 0.901292 0.790977 0.072768
C43   C     C_R   0.644296 0.595793 0.496375 0.065347
C44   C     C_R   0.387528 0.358110 0.501740 0.035750
C45   C     C_R   0.355713 0.595821 0.503611 0.059598
C46   C     C_R   0.128497 0.778904 0.419910 -0.151286
C47   C     C_R   0.612476 0.358115 0.498261 0.035785
C48   C     C_R   0.144285 0.095824 0.496383 0.059612
C49   C     C_R   0.887541 0.858092 0.501729 0.037330
C50   C     C_R   0.855716 0.095823 0.503617 0.059721
C51   C     C_R   0.112465 0.858109 0.498255 0.035710
C52   C     C_R   0.215544 0.618853 0.440202 -0.158503
C53   C     C_R   0.680381 0.209987 0.573633 -0.155483
C54   C     C_R   0.784471 0.618794 0.559754 -0.155954
C55   C     C_R   0.319627 0.209978 0.426367 -0.153104
C56   C     C_R   0.715548 0.118848 0.440216 -0.159901
C57   C     C_R   0.181538 0.141307 0.416930 -0.154251
C58   C     C_R   0.180375 0.709984 0.573622 -0.152861
C59   C     C_R   0.284455 0.118835 0.559779 -0.158632
C60   C     C_R   0.819609 0.709971 0.426293 -0.154084
C61   C     C_R   0.258449 0.597914 0.438550 -0.122894
C62   C     C_R   0.655362 0.262393 0.571904 -0.122729
C63   C     C_R   0.741565 0.597864 0.561418 -0.120258
C64   C     C_R   0.344646 0.262386 0.428097 -0.123333
C65   C     C_R   0.758452 0.097912 0.438562 -0.122145
C66   C     C_R   0.155353 0.762387 0.571894 -0.123266
C67   C     C_R   0.241548 0.097903 0.561434 -0.122808
C68   C     C_R   0.871564 0.778818 0.580072 -0.149608
C69   C     C_R   0.844628 0.762384 0.428035 -0.121091
C70   C     C_R   0.310170 0.611309 0.508408 0.137565
C71   C     C_R   0.631645 0.298688 0.496420 0.119208
C72   C     C_R   0.689843 0.611255 0.491561 0.138941
C73   C     C_R   0.368363 0.298680 0.503582 0.119006
C74   C     C_R   0.810173 0.111307 0.508417 0.137743
C75   C     C_R   0.131632 0.798682 0.496410 0.119002
C76   C     C_R   0.189829 0.111306 0.491582 0.137685
C77   C     C_R   0.868383 0.798648 0.503554 0.118230
C78   C     C_R   0.275730 0.662435 0.584516 -0.146720
C79   C     C_R   0.653612 0.226829 0.421771 -0.143125
C80   C     C_R   0.724285 0.662352 0.415424 -0.136500
C81   C     C_R   0.456198 0.417916 0.258131 -0.151514
C82   C     C_R   0.346401 0.226811 0.578232 -0.143765
C83   C     C_R   0.775734 0.162429 0.584530 -0.149742
C84   C     C_R   0.153601 0.726827 0.421757 -0.143689
C85   C     C_R   0.224272 0.162426 0.415470 -0.146607
C86   C     C_R   0.846463 0.726731 0.578210 -0.129321
C87   C     C_R   0.224025 0.653974 0.511151 0.109672
C88   C     C_R   0.682334 0.193824 0.500235 0.095643
C89   C     C_R   0.775992 0.653908 0.488796 0.109653
C90   C     C_R   0.317675 0.193810 0.499766 0.094700
C91   C     C_R   0.724030 0.153970 0.511166 0.108398
C92   C     C_R   0.468457 0.607896 0.294396 -0.111638
C93   C     C_R   0.182328 0.693824 0.500222 0.094785
C94   C     C_R   0.275976 0.153958 0.488832 0.109795
C95   C     C_R   0.817691 0.693766 0.499713 0.092754
C96   C     C_R   0.410615 0.701252 0.229553 0.092807
C97   C     C_R   0.626430 0.378019 0.881913 0.096470
C98   C     C_R   0.589319 0.701221 0.770566 0.091291
C99   C     C_R   0.373566 0.378026 0.118083 0.096518
C100  C     C_R   0.910616 0.201252 0.229553 0.093752
C101  C     C_R   0.126428 0.878013 0.881909 0.096623
C102  C     C_R   0.089381 0.201252 0.770443 0.093762
C103  C     C_R   0.543801 0.417914 0.741869 -0.151542
C104  C     C_R   0.873451 0.878225 0.117936 0.098646
C105  C     C_R   0.426273 0.782923 0.158890 -0.139445
C106  C     C_R   0.630262 0.324315 0.001278 -0.153180
C107  C     C_R   0.573801 0.782470 0.842033 -0.139525
C108  C     C_R   0.369729 0.324337 0.998706 -0.152864
C109  C     C_R   0.926268 0.282911 0.158867 -0.141154
C110  C     C_R   0.130258 0.824298 0.001265 -0.153057
C111  C     C_R   0.073730 0.282898 0.841146 -0.141015
C112  C     C_R   0.869462 0.824893 0.998160 -0.161903
C113  C     C_R   0.444020 0.731497 0.210429 -0.148886
C114  C     C_R   0.031543 0.107895 0.705602 -0.113028
C115  C     C_R   0.600670 0.350182 0.917801 -0.172670
C116  C     C_R   0.556030 0.731175 0.790225 -0.151587
C117  C     C_R   0.399324 0.350196 0.082188 -0.172416
C118  C     C_R   0.944017 0.231491 0.210417 -0.152316
C119  C     C_R   0.100667 0.850166 0.917788 -0.172783
C120  C     C_R   0.055982 0.231481 0.789591 -0.152017
C121  C     C_R   0.899134 0.850633 0.081731 -0.173542
C122  C     C_R   0.362410 0.727216 0.205509 -0.104725
C123  C     C_R   0.681749 0.379963 0.931165 -0.126974
C124  C     C_R   0.637387 0.727410 0.794279 -0.098586
C125  C     C_R   0.956168 0.917964 0.258078 -0.152383
C126  C     C_R   0.318247 0.379970 0.068835 -0.127260
C127  C     C_R   0.862414 0.227219 0.205516 -0.105410
C128  C     C_R   0.181747 0.879965 0.931167 -0.127328
C129  C     C_R   0.137580 0.227229 0.794470 -0.104762
C130  C     C_R   0.818129 0.880032 0.068909 -0.135950
C131  C     C_R   0.345517 0.780736 0.158885 0.135287
C132  C     C_R   0.711770 0.344680 0.006405 0.119192
C133  C     C_R   0.654339 0.780773 0.841351 0.131121
C134  C     C_R   0.288224 0.344691 0.993591 0.119307
C135  C     C_R   0.845518 0.280735 0.158879 0.135213
C136  C     C_R   0.968457 0.107896 0.294396 -0.113562
C137  C     C_R   0.211769 0.844680 0.006408 0.119296
C138  C     C_R   0.154475 0.280741 0.841120 0.135203
C139  C     C_R   0.788080 0.844815 0.993617 0.118658
C140  C     C_R   0.375337 0.804688 0.127322 0.116446
C141  C     C_R   0.685549 0.321192 0.045663 0.101577
C142  C     C_R   0.624664 0.804379 0.873413 0.112629
C143  C     C_R   0.314443 0.321212 0.954325 0.101582
C144  C     C_R   0.875333 0.304678 0.127300 0.117339
C145  C     C_R   0.185545 0.821182 0.045656 0.101785
C146  C     C_R   0.124663 0.304672 0.872709 0.117471
C147  C     C_R   0.043800 0.917912 0.741867 -0.151496
C148  C     C_R   0.814192 0.821619 0.954013 0.119377
C149  C     C_R   0.294770 0.803721 0.128852 -0.183293
C150  C     C_R   0.766804 0.333238 0.045157 -0.162290
C151  C     C_R   0.705026 0.803901 0.871272 -0.159476
C152  C     C_R   0.233190 0.333246 0.954844 -0.162061
C153  C     C_R   0.794771 0.303721 0.128847 -0.183583
C154  C     C_R   0.266806 0.833247 0.045168 -0.162056
C155  C     C_R   0.205221 0.303735 0.871150 -0.183450
C156  C     C_R   0.733101 0.833200 0.955123 -0.163761
C157  C     C_R   0.644719 0.580792 0.571279 -0.058701
C158  C     C_R   0.318461 0.641310 0.583060 -0.154133
C159  C     C_R   0.373925 0.391251 0.427090 -0.117034
C160  C     C_R   0.355286 0.580802 0.428715 -0.059389
C161  C     C_R   0.626077 0.391253 0.572911 -0.117440
C162  C     C_R   0.144713 0.080804 0.571282 -0.059596
C163  C     C_R   0.873933 0.891244 0.427086 -0.115759
C164  C     C_R   0.855287 0.080803 0.428718 -0.059176
C165  C     C_R   0.126072 0.891249 0.572907 -0.117046
C166  C     C_R   0.795421 0.346496 0.003917 0.536737
C167  C     C_R   0.269452 0.793390 0.175369 0.549284
C168  C     C_R   0.204575 0.346494 0.996090 0.536607
H1    H     H_    0.500104 0.619386 0.714778 0.093864
H2    H     H_    0.335131 0.702951 0.214835 0.141716
H3    H     H_    0.804304 0.786825 0.835009 0.186712
H4    H     H_    0.372655 0.856261 0.025653 0.164863
H5    H     H_    0.695199 0.285897 0.164234 0.183990
H6    H     H_    0.627559 0.855446 0.975674 0.166171
H7    H     H_    0.304786 0.285937 0.835740 0.184021
H8    H     H_    0.298910 0.409037 0.089711 0.167484
H9    H     H_    0.664524 0.703422 0.784295 0.141816
H10   H     H_    0.201083 0.909043 0.910303 0.167519
H11   H     H_    0.835139 0.202960 0.214856 0.141612
H12   H     H_    0.798790 0.908933 0.089979 0.167818
H13   H     H_    0.164851 0.202981 0.785110 0.141668
H14   H     H_    0.557940 0.348617 0.881921 0.117713
H15   H     H_    0.482217 0.713719 0.229912 0.120290
H16   H     H_    0.442054 0.348632 0.118064 0.117695
H17   H     H_    0.482151 0.420654 0.234175 0.092724
H18   H     H_    0.517921 0.713248 0.770983 0.118837
H19   H     H_    0.057936 0.848596 0.881903 0.117352
H20   H     H_    0.982214 0.213711 0.229896 0.118945
H21   H     H_    0.941860 0.849182 0.117416 0.118242
H22   H     H_    0.017788 0.213695 0.770118 0.118842
H23   H     H_    0.450338 0.802331 0.137317 0.129062
H24   H     H_    0.609920 0.305368 0.030138 0.124992
H25   H     H_    0.549842 0.801624 0.863992 0.128325
H26   H     H_    0.390069 0.305396 0.969839 0.124984
H27   H     H_    0.950329 0.302314 0.137283 0.128343
H28   H     H_    0.499880 0.619454 0.285237 0.094504
H29   H     H_    0.109915 0.805343 0.030117 0.124897
H30   H     H_    0.049670 0.302292 0.862738 0.128285
H31   H     H_    0.889730 0.806165 0.969038 0.126189
H32   H     H_    0.679128 0.577543 0.637968 0.099950
H33   H     H_    0.346052 0.379125 0.359010 0.146341
H34   H     H_    0.320876 0.577551 0.362027 0.101474
H35   H     H_    0.653950 0.379128 0.640991 0.146385
H36   H     H_    0.179125 0.077552 0.637969 0.101493
H37   H     H_    0.846065 0.879119 0.359005 0.146613
H38   H     H_    0.820875 0.077551 0.362031 0.101324
H39   H     H_    0.517848 0.420652 0.765826 0.092820
H40   H     H_    0.153945 0.879122 0.640986 0.146318
H41   H     H_    0.583859 0.577902 0.356901 0.091406
H42   H     H_    0.443599 0.378406 0.643456 0.095775
H43   H     H_    0.416133 0.577917 0.643087 0.092684
H44   H     H_    0.556403 0.378410 0.356544 0.095894
H45   H     H_    0.083858 0.077929 0.356905 0.092543
H46   H     H_    0.943611 0.878389 0.643448 0.095500
H47   H     H_    0.916142 0.077926 0.643095 0.091832
H48   H     H_    0.056382 0.878406 0.356536 0.095923
H49   H     H_    0.357783 0.621553 0.288536 0.130066
H50   H     H_    0.000121 0.119450 0.714763 0.093808
H51   H     H_    0.658589 0.418116 0.763568 0.174979
H52   H     H_    0.642227 0.621581 0.711553 0.127480
H53   H     H_    0.341411 0.418119 0.236431 0.174937
H54   H     H_    0.857784 0.121553 0.288538 0.130050
H55   H     H_    0.158589 0.918114 0.763568 0.174953
H56   H     H_    0.142217 0.121558 0.711462 0.129986
H57   H     H_    0.841409 0.918192 0.236469 0.174678
H58   H     H_    0.175894 0.611237 0.383416 0.122114
H59   H     H_    0.701673 0.184584 0.634416 0.138571
H60   H     H_    0.824120 0.611178 0.616540 0.120755
H61   H     H_    0.982113 0.920723 0.234108 0.092410
H62   H     H_    0.298333 0.184578 0.365581 0.140406
H63   H     H_    0.675898 0.111233 0.383430 0.122412
H64   H     H_    0.201670 0.684582 0.634406 0.140407
H65   H     H_    0.324104 0.111214 0.616563 0.121911
H66   H     H_    0.798291 0.684596 0.365486 0.140427
H67   H     H_    0.250988 0.573056 0.381455 0.118355
H68   H     H_    0.656665 0.275600 0.630824 0.156023
H69   H     H_    0.749025 0.573018 0.618525 0.117176
H70   H     H_    0.343340 0.275598 0.369175 0.156356
H71   H     H_    0.750990 0.073054 0.381465 0.118619
H72   H     H_    0.999879 0.119453 0.285234 0.093906
H73   H     H_    0.156658 0.775594 0.630817 0.156324
H74   H     H_    0.249008 0.073043 0.618529 0.118297
H75   H     H_    0.843291 0.775622 0.369096 0.156621
H76   H     H_    0.357988 0.651947 0.637978 0.117363
H77   H     H_    0.610190 0.305602 0.360468 0.113952
H78   H     H_    0.642027 0.651862 0.361966 0.116763
H79   H     H_    0.389824 0.305584 0.639538 0.113985
H80   H     H_    0.857992 0.151943 0.637989 0.117403
H81   H     H_    0.110172 0.805597 0.360455 0.113933
H82   H     H_    0.142013 0.151949 0.362015 0.117256
H83   H     H_    0.017847 0.920649 0.765824 0.092172
H84   H     H_    0.889923 0.805478 0.639559 0.112879
H85   H     H_    0.783578 0.190123 0.639568 0.136618
H86   H     H_    0.154918 0.715899 0.364439 0.128345
H87   H     H_    0.216430 0.190122 0.360434 0.136343
H88   H     H_    0.845185 0.715766 0.635555 0.129953
H89   H     H_    0.283573 0.690129 0.639553 0.136372
H90   H     H_    0.654930 0.215899 0.364454 0.128341
H91   H     H_    0.716436 0.690033 0.360371 0.136194
H92   H     H_    0.345085 0.215876 0.635550 0.128409
H93   H     H_    0.829502 0.348769 0.860271 0.353467
H94   H     H_    0.701088 0.409032 0.910293 0.167582
H95   H     H_    0.292435 0.813877 0.394068 0.378426
H96   H     H_    0.170436 0.348776 0.139596 0.353297
H97   H     H_    0.722097 0.867695 0.684895 0.339743
H98   H     H_    0.329578 0.848871 0.860438 0.353361
H99   H     H_    0.792540 0.314016 0.394130 0.378474
H100  H     H_    0.671128 0.847457 0.141219 0.354182
H101  H     H_    0.207151 0.314444 0.605695 0.378550
H102  H     H_    0.872638 0.356227 0.025600 0.164918
H103  H     H_    0.195190 0.785875 0.164218 0.183925
H104  H     H_    0.127357 0.356211 0.974413 0.164778
N1    N     N_R   0.532910 0.558440 0.665240 -0.043102
N2    N     N_R   0.402970 0.441090 0.454460 -0.046718
N3    N     N_R   0.402970 0.558910 0.454460 -0.046539
N4    N     N_R   0.597030 0.441090 0.545540 -0.046848
N5    N     N_R   0.097030 0.058910 0.545540 -0.046568
N6    N     N_R   0.902970 0.941090 0.454460 -0.046877
N7    N     N_R   0.902970 0.058910 0.454460 -0.046522
N8    N     N_R   0.097030 0.941090 0.545540 -0.046678
N9    N     N_R   0.566200 0.559270 0.454460 -0.038770
N10   N     N_R   0.433800 0.440730 0.545540 -0.043296
N11   N     N_R   0.433800 0.559270 0.545540 -0.038697
N12   N     N_R   0.467090 0.441560 0.334760 -0.039729
N13   N     N_R   0.566200 0.440730 0.454460 -0.043468
N14   N     N_R   0.066200 0.059270 0.454460 -0.038665
N15   N     N_R   0.933800 0.940730 0.545540 -0.043311
N16   N     N_R   0.933800 0.059270 0.545540 -0.038602
N17   N     N_R   0.066200 0.940730 0.454460 -0.043264
N18   N     N_R   0.421050 0.559750 0.334770 -0.047740
N19   N     N_R   0.578950 0.440250 0.665230 -0.050569
N20   N     N_R   0.578950 0.559750 0.665230 -0.047637
N21   N     N_R   0.421050 0.440250 0.334770 -0.050583
N22   N     N_R   0.921050 0.059750 0.334770 -0.047658
N23   N     N_R   0.467090 0.558440 0.334760 -0.043115
N24   N     N_R   0.078950 0.940250 0.665230 -0.050538
N25   N     N_R   0.078950 0.059750 0.665230 -0.047638
N26   N     N_R   0.921050 0.940250 0.334770 -0.050692
N27   N     N_R   0.532910 0.441560 0.665240 -0.039749
N28   N     N_R   0.032910 0.058440 0.665240 -0.042942
N29   N     N_R   0.967090 0.941560 0.334760 -0.039609
N30   N     N_R   0.967090 0.058440 0.334760 -0.042909
N31   N     N_R   0.032910 0.941560 0.665240 -0.039657
N32   N     N_R   0.597030 0.558910 0.545540 -0.046799
Ni1   Ni    Ni4+2 0.483090 0.500000 0.604440 0.217441
Ni2   Ni    Ni4+2 0.516910 0.500000 0.395560 0.217282
Ni3   Ni    Ni4+2 0.983090 0.000000 0.604440 0.216783
Ni4   Ni    Ni4+2 0.016910 0.000000 0.395560 0.217047
Ni5   Ni    Ni4+2 0.586780 0.500000 0.604440 0.234736
Ni6   Ni    Ni4+2 0.413220 0.500000 0.395560 0.234789
Ni7   Ni    Ni4+2 0.086780 0.000000 0.604440 0.234746
Ni8   Ni    Ni4+2 0.913220 0.000000 0.395560 0.234455
O1    O     O_2   0.715759 0.316759 0.836850 -0.300395
O2    O     O_2   0.698143 0.720886 0.686237 -0.296603
O3    O     O_2   0.638448 0.803163 0.663060 -0.268530
O4    O     O_3   0.724352 0.826431 0.668169 -0.495786
O5    O     O_2   0.215786 0.816799 0.836859 -0.299685
O6    O     O_2   0.260224 0.912772 0.857637 -0.370502
O7    O     O_3   0.309264 0.816203 0.865260 -0.514486
O8    O     O_2   0.801340 0.219418 0.312547 -0.345731
O9    O     O_2   0.860793 0.302522 0.336692 -0.266703
O10   O     O_3   0.774505 0.324921 0.330838 -0.526818
O11   O     O_2   0.784674 0.816277 0.163530 -0.298054
O12   O     O_2   0.760217 0.412714 0.857581 -0.370217
O13   O     O_2   0.739948 0.911954 0.143422 -0.371265
O14   O     O_3   0.691348 0.814986 0.135753 -0.513287
O15   O     O_2   0.198637 0.219485 0.687392 -0.345297
O16   O     O_2   0.139188 0.302574 0.663321 -0.267222
O17   O     O_3   0.225467 0.325006 0.669153 -0.526748
O18   O     O_3   0.809233 0.316113 0.865233 -0.515266
O19   O     O_2   0.301320 0.719391 0.312514 -0.345835
O20   O     O_2   0.360785 0.802490 0.336695 -0.266156
O21   O     O_3   0.274495 0.824897 0.330835 -0.526813
O22   O     O_2   0.284240 0.316764 0.163158 -0.299678
O23   O     O_2   0.239784 0.412719 0.142421 -0.370515
O24   O     O_3   0.190770 0.316121 0.134794 -0.514488
S1    S     S_3+6 0.767673 0.349144 0.887738 -0.080741
S2    S     S_3+6 0.303990 0.783493 0.291908 -0.052259
S3    S     S_3+6 0.232326 0.349148 0.112272 -0.080252
S4    S     S_3+6 0.695375 0.784732 0.707708 -0.035775
S5    S     S_3+6 0.267692 0.849197 0.887769 -0.080259
S6    S     S_3+6 0.804001 0.283516 0.291917 -0.052351
S7    S     S_3+6 0.732643 0.848455 0.113019 -0.079048
S8    S     S_3+6 0.195979 0.283573 0.708066 -0.052424

loop_
_geom_bond_atom_site_label_1
_geom_bond_atom_site_label_2
_ccdc_geom_bond_type
C61   C70   A    
N24   N31   A    
C11   H3    S    
C31   C42   A    
C100  C127  A    
C132  C150  A    
N2    N10   A    
N7    Ni8   S    
C30   H54   S    
C23   H47   S    
C124  C133  A    
C57   C76   A    
C18   H42   S    
C33   H57   S    
C52   C61   A    
C159  H33   S    
C48   C162  A    
C54   C63   A    
N30   Ni4   S    
C101  C128  A    
C81   H17   S    
N14   Ni4   S    
C131  C140  A    
N26   Ni8   S    
C134  C143  A    
O22   S3    D    
C162  N5    A    
C122  H2    S    
C133  C151  A    
C97   C115  A    
C110  C145  A    
C64   H70   S    
O13   S7    D    
H99   O10   S    
C21   C48   A    
C13   H78   S    
C28   H52   S    
C110  H29   S    
C45   C160  A    
C42   C147  A    
O16   S8    D    
C109  C118  A    
N4    N13   A    
O6    S5    D    
C147  N31   A    
C85   H87   S    
N6    N15   A    
C50   C164  A    
C28   N20   A    
C12   H4    S    
N10   Ni1   S    
C3    S4    S    
C37   C96   S    
C162  H36   S    
C103  N27   A    
C17   C43   A    
C18   C44   A    
C15   C142  A    
C41   C100  S    
C160  N3    A    
C158  H76   S    
C168  S3    S    
C47   C71   S    
C22   C49   A    
C46   C84   A    
N21   Ni6   S    
C16   H7    S    
C136  H72   S    
O1    S1    D    
C131  C149  A    
C5    S6    S    
N1    Ni1   S    
C2    C71   A    
C19   N11   A    
C31   N24   A    
C68   C77   A    
C26   N18   A    
C92   H28   S    
C63   H69   S    
C13   C72   A    
C83   C91   A    
N8    N17   A    
C106  C115  A    
H97   O4    S    
C164  H38   S    
C53   H59   S    
C105  C140  A    
C78   H89   S    
C57   C85   A    
C36   C99   S    
C84   C93   A    
C20   H44   S    
C20   C47   A    
C3    C11   A    
C86   C95   A    
C60   C95   A    
N23   Ni2   S    
C126  C134  A    
C10   C168  A    
C44   C159  A    
C27   C38   A    
C78   C87   A    
C123  C132  A    
C105  H23   S    
C69   C77   A    
C106  H24   S    
N8    Ni7   S    
C98   C124  A    
C92   N23   A    
C133  C142  A    
C105  C113  A    
C2    H77   S    
C103  H39   S    
C55   C90   A    
C125  H61   S    
C50   C74   S    
C121  H21   S    
C11   C148  A    
C86   H88   S    
C150  C166  A    
C85   C94   A    
H93   O18   S    
C8    H102  S    
C59   C67   A    
N12   Ni2   S    
C78   C158  A    
C64   C73   A    
C30   C41   A    
C2    C79   A    
C109  C144  A    
N3    N11   A    
C21   N14   A    
C125  N29   A    
C23   N16   A    
O7    S5    S    
C55   H62   S    
C59   H65   S    
C114  H50   S    
O24   S3    S    
C46   C75   A    
C67   H74   S    
C1    C34   A    
C99   C126  A    
C139  C148  A    
C33   C40   A    
C58   H64   S    
C111  C146  A    
C29   N21   A    
N5    Ni7   S    
N27   Ni1   S    
N6    Ni8   S    
C65   C74   A    
C56   H63   S    
O17   S8    S    
C38   C103  A    
O2    S4    D    
C99   C117  A    
C88   C91   S    
C36   C81   A    
N24   Ni7   S    
C7    C155  A    
C80   H91   S    
C124  H9    S    
C130  H12   S    
C10   C146  A    
N28   Ni3   S    
C52   H58   S    
H101  O17   S    
C61   H67   S    
C21   H45   S    
C51   C165  A    
C4    C12   A    
C165  N8    A    
C108  H26   S    
C42   C101  S    
C122  C131  A    
C115  H14   S    
C39   C102  S    
C132  C141  A    
C37   C92   A    
C108  C117  A    
C43   C157  A    
C110  C119  A    
C19   C45   A    
C66   H73   S    
O11   S7    D    
H95   O21   S    
C157  H32   S    
C127  H11   S    
C112  C121  A    
C97   C123  A    
O4    S4    S    
C113  H15   S    
C60   C69   A    
C138  C146  A    
C40   C125  A    
C87   C93   S    
C49   C77   S    
C62   C71   A    
C109  H27   S    
C20   N13   A    
C119  H19   S    
C107  C116  A    
C49   C163  A    
C22   N15   A    
N2    Ni6   S    
O15   S8    D    
H96   O24   S    
C24   H79   S    
C10   H104  S    
C4    S5    S    
O18   S1    S    
C27   N19   A    
C6    C156  A    
C6    S7    S    
C167  S2    S    
C138  C155  A    
C4    C154  A    
C35   C74   A    
C27   H51   S    
N19   Ni5   S    
H98   O7    S    
C149  C167  A    
C117  H16   S    
C29   H53   S    
C147  H83   S    
C35   H80   S    
C19   H43   S    
O12   S1    D    
C137  C145  A    
C58   C93   A    
C127  C135  A    
C17   H41   S    
C111  H30   S    
C160  H34   S    
C136  N30   A    
C24   C73   A    
C123  H94   S    
C32   C39   A    
C80   C89   A    
C48   C76   S    
N20   Ni5   S    
C32   H56   S    
C56   C91   A    
C150  C153  A    
C12   C140  A    
C164  N7    A    
C59   C94   A    
N13   Ni2   S    
C17   N9    A    
C68   H84   S    
C9    H103  S    
C13   C80   A    
C28   C34   A    
C104  C130  A    
C26   H49   S    
C114  N28   A    
C130  C139  A    
C79   C88   A    
C152  C168  A    
C90   C94   S    
C52   C87   A    
N32   Ni5   S    
C16   C143  A    
C60   H66   S    
O3    S4    D    
C35   C83   A    
C69   H75   S    
C23   C50   A    
C116  H18   S    
C70   C158  A    
N26   N29   A    
C89   C95   S    
C149  C154  A    
C46   H81   S    
C120  H22   S    
C152  C155  A    
C134  C152  A    
C151  C156  A    
N9    N32   A    
C54   H60   S    
C5    C14   A    
O5    S5    D    
C33   N26   A    
C7    C16   A    
N18   Ni6   S    
C96   C113  A    
C100  C118  A    
C157  N32   A    
C102  C120  A    
C30   N22   A    
C106  C141  A    
H100  O14   S    
C15   H6    S    
C45   C70   S    
C159  N2    A    
N15   Ni3   S    
O10   S6    S    
C26   C37   A    
C14   H5    S    
C82   C90   A    
C96   C122  A    
O21   S2    S    
C66   C75   A    
C9    C145  A    
C34   C98   S    
C137  C154  A    
C44   C73   S    
N22   N30   A    
C47   C161  A    
N22   Ni8   S    
C63   C72   A    
C57   H82   S    
C108  C143  A    
C43   C72   S    
C68   C86   A    
C7    S8    S    
C102  C129  A    
O9    S6    D    
N17   Ni4   S    
C29   C36   A    
C83   H85   S    
C139  C156  A    
C51   C75   S    
C56   C65   A    
C24   C82   A    
N9    Ni2   S    
N25   Ni7   S    
C6    C15   A    
C58   C66   A    
C129  C138  A    
N1    N20   A    
N19   N27   A    
C112  H31   S    
C1    N1    A    
C14   C141  A    
C81   N12   A    
C38   C97   S    
O14   S7    S    
O8    S6    D    
C62   H68   S    
N18   N23   A    
C101  C119  A    
C9    C167  A    
C54   C89   A    
O20   S2    D    
C118  H20   S    
N31   Ni3   S    
C104  C121  A    
N29   Ni4   S    
C163  H37   S    
C112  C148  A    
C25   N17   A    
C111  C120  A    
C128  C137  A    
C25   C51   A    
N16   Ni3   S    
C161  N4    A    
C40   C104  S    
C53   C62   A    
C98   C116  A    
C18   N10   A    
C39   C114  A    
C55   C64   A    
C8    C144  A    
C107  C142  A    
C8    C166  A    
C31   H55   S    
N3    Ni6   S    
C135  C144  A    
C22   H46   S    
C82   H92   S    
C84   H86   S    
N25   N28   A    
C128  H10   S    
C107  H25   S    
C126  H8    S    
C129  H13   S    
C79   H90   S    
C161  H35   S    
C25   H48   S    
N4    Ni5   S    
C32   N25   A    
O19   S2    D    
C163  N6    A    
N5    N14   A    
C3    C151  A    
C135  C153  A    
N7    N16   A    
O23   S3    D    
N12   N21   A    
C5    C153  A    
C1    H1    S    
C53   C88   A    
C166  S1    S    
C165  H40   S    
C65   H71   S    
C67   C76   A    
C41   C136  A    
N11   Ni1   S    
