data_mof_unit_41284.cif
_audit_creation_date              2013-03-05T15:44:21-0500
_audit_creation_method            fapswitch 2.2
_symmetry_space_group_name_H-M    P1
_symmetry_Int_Tables_number       1
_space_group_crystal_system       triclinic
_cell_length_a                    10.708556
_cell_length_b                    10.74283
_cell_length_c                    10.011395
_cell_angle_alpha                 89.636284
_cell_angle_beta                  90.171293
_cell_angle_gamma                 88.584944
_cell_volume                      1151.33271634

loop_
_atom_site_label
_atom_site_type_symbol
_atom_site_description
_atom_site_fract_x
_atom_site_fract_y
_atom_site_fract_z
_atom_type_partial_charge
O1    O     O_R   0.499980 0.319060 0.613040 -0.611021
O2    O     O_R   0.500020 0.319100 0.386900 -0.608561
C1    C     C_R   0.501154 0.263061 0.500274 0.974215
O3    O     O_R   0.314770 0.499960 0.613070 -0.653178
O4    O     O_R   0.314820 0.500000 0.386930 -0.623530
C2    C     C_R   0.257428 0.504039 0.499543 0.891722
Zn1   Zn    Zn3+2 0.499970 0.499970 0.650990 0.941746
Zn2   Zn    Zn3+2 0.500030 0.500030 0.349010 0.999803
O5    O     O_R   0.499980 0.680900 0.613100 -0.648675
O6    O     O_R   0.500020 0.680940 0.386960 -0.549877
O7    O     O_R   0.685180 0.500000 0.613070 -0.592894
O8    O     O_R   0.685230 0.500040 0.386930 -0.589548
C3    C     C_R   0.501207 0.737436 0.499129 0.955943
C4    C     C_R   0.742053 0.492262 0.499973 0.961341
C5    C     C_3   0.079859 0.385555 0.575651 -0.592859
H1    H     H_    0.125791 0.379462 0.674467 0.205839
H2    H     H_    0.116233 0.301609 0.522085 0.192579
C6    C     C_3   0.935201 0.380672 0.580696 0.250315
H3    H     H_    0.910444 0.295914 0.525357 0.192280
H4    H     H_    0.094614 0.628813 0.670541 0.019022
H5    H     H_    0.885277 0.612904 0.669807 0.057060
C7    C     C_3   0.063512 0.625972 0.564158 0.292260
C8    C     C_3   0.072051 0.496106 0.352807 -0.449852
C9    C     C_3   0.120594 0.504398 0.498589 -0.044462
H6    H     H_    0.101956 0.578158 0.293453 0.207027
H7    H     H_    0.114017 0.412453 0.303633 0.219318
C10   C     C_3   0.878528 0.493858 0.499840 -0.181223
C11   C     C_3   0.917851 0.618189 0.565553 0.289898
C12   C     C_3   0.929596 0.491490 0.351723 0.104522
H8    H     H_    0.894861 0.577957 0.300080 0.178243
C13   C     C_2   0.478403 0.936965 0.385359 0.517174
C14   C     C_2   0.495857 0.869641 0.497950 -0.478033
H9    H     H_    0.499721 0.910608 0.596182 0.133569
C15   C     C_2   0.462313 0.070922 0.397626 -0.272364
C16   C     C_2   0.511288 0.132125 0.499514 -0.402338
H10   H     H_    0.410894 0.120670 0.319568 0.178521
H11   H     H_    0.565101 0.089201 0.579457 0.147430
C17   C     C_2   0.581696 0.558200 0.924828 -0.127237
N1    N     N_2   0.501360 0.501330 0.852150 -0.189328
H12   H     H_    0.656721 0.605987 0.875195 0.143936
H13   H     H_    0.426016 0.462349 0.897888 0.156690
C18   C     C_2   0.576319 0.565026 0.074806 -0.041659
N2    N     N_2   0.501390 0.501360 0.147810 -0.181828
H14   H     H_    0.641720 0.625061 0.124324 0.156970
H15   H     H_    0.444765 0.438565 0.102317 0.157120
O9    O     O_3   0.098750 0.734428 0.492265 -0.622811
C19   C     C_3   0.197745 0.797461 0.554971 0.086431
H16   H     H_    0.247594 0.847999 0.475444 0.187709
H17   H     H_    0.265910 0.732431 0.603444 0.151337
C20   C     C_3   0.150874 0.893441 0.657345 -0.403411
H18   H     H_    0.099662 0.970858 0.605634 0.223473
H19   H     H_    0.088553 0.848253 0.730190 0.224029
C21   C     C_3   0.258003 0.950532 0.734060 -0.961522
H20   H     H_    0.319477 0.876697 0.779090 0.277407
H21   H     H_    0.219639 0.010067 0.815218 0.268566
H22   H     H_    0.313120 0.009984 0.666442 0.274643
O10   O     O_3   0.854555 0.717740 0.495847 -0.638353
C22   C     C_3   0.844400 0.833947 0.562724 0.173761
H23   H     H_    0.768435 0.888003 0.511420 0.155049
H24   H     H_    0.928123 0.887901 0.543570 0.185308
C23   C     C_3   0.811778 0.831665 0.712852 -0.492225
H25   H     H_    0.722773 0.782608 0.727894 0.240493
H26   H     H_    0.886663 0.784498 0.772394 0.203942
C24   C     C_3   0.799067 0.963609 0.767674 -0.929933
H27   H     H_    0.887219 0.014308 0.752947 0.270309
H28   H     H_    0.779196 0.959560 0.876378 0.270794
H29   H     H_    0.721816 0.015596 0.716956 0.268913
O11   O     O_3   0.454894 0.879701 0.263570 -0.618457
C25   C     C_3   0.524134 0.932762 0.157883 0.107081
H30   H     H_    0.576661 0.855887 0.107780 0.152126
H31   H     H_    0.595521 0.000354 0.190534 0.140618
C26   C     C_3   0.434925 0.994067 0.055707 -0.354153
H32   H     H_    0.366574 0.924729 0.021652 0.237364
H33   H     H_    0.381972 0.072475 0.102199 0.214233
C27   C     C_3   0.505556 0.043495 0.935054 -0.964129
H34   H     H_    0.581837 0.104950 0.967285 0.283423
H35   H     H_    0.440775 0.098682 0.869782 0.277819
H36   H     H_    0.545180 0.964471 0.876617 0.269587
O12   O     O_3   0.876989 0.361367 0.707693 -0.630976
C28   C     C_3   0.937092 0.410163 0.821375 0.136233
H37   H     H_    0.863930 0.452517 0.886363 0.176034
H38   H     H_    0.001141 0.486630 0.799351 0.092841
C29   C     C_3   0.002988 0.304546 0.900254 -0.299102
H39   H     H_    0.932452 0.252368 0.957784 0.256722
H40   H     H_    0.049817 0.237808 0.831115 0.210680
C30   C     C_3   0.100527 0.354817 0.995997 -0.912540
H41   H     H_    0.178501 0.395659 0.938887 0.235804
H42   H     H_    0.138762 0.277966 0.059864 0.271614
H43   H     H_    0.058026 0.427713 0.060706 0.282436
N3    N     N_R   0.887237 0.384722 0.272918 0.205519
O13   O     O_R   0.932640 0.272707 0.293552 -0.448289
O14   O     O_R   0.816818 0.404777 0.168471 -0.422479

loop_
_geom_bond_atom_site_label_1
_geom_bond_atom_site_label_2
_geom_bond_distance
_ccdc_geom_bond_type
C5    C6    1.552219 S    
C10   C12   1.582154 S    
C3    C14   1.419977 S    
Zn2   N2    2.014351 S    
N3    O13   1.301723 A    
C19   H17   1.106688 S    
C11   O10   1.429006 S    
Zn1   O7    2.020461 S    
C8    C12   1.527527 S    
C16   H11   1.079213 S    
C17   C18   1.504943 S    
C26   C27   1.526507 S    
O4    C2    1.286117 A    
O7    C4    1.289438 A    
C30   H42   1.110458 S    
C22   H24   1.096276 S    
C5    H1    1.104347 S    
C6    H3    1.106232 S    
C23   H26   1.108327 S    
C15   C16   1.330488 D    
C8    H7    1.113063 S    
C25   H31   1.116881 S    
O5    C3    1.289432 A    
O11   C25   1.418496 S    
C13   C14   1.345469 D    
C6    O12   1.433836 S    
C19   H16   1.106794 S    
C20   H19   1.107843 S    
C8    C9    1.551653 S    
C4    C10   1.461981 S    
C22   C23   1.544251 S    
C7    C11   1.564218 S    
C23   H25   1.110633 S    
C18   H14   1.084669 S    
C28   C29   1.534495 S    
C12   N3    1.476087 S    
C19   C20   1.535068 S    
C21   H21   1.110681 S    
C13   O11   1.394208 S    
C20   C21   1.522346 S    
C24   H29   1.106857 S    
C26   H33   1.109356 S    
C30   H41   1.111025 S    
C26   H32   1.111522 S    
O3    Zn1   2.018120 S    
C22   H23   1.110478 S    
C21   H20   1.110697 S    
C30   H43   1.109367 S    
O1    C1    1.282544 A    
C24   H28   1.110300 S    
C23   C24   1.526344 S    
C27   H34   1.111303 S    
C12   H8    1.115431 S    
C27   H35   1.109866 S    
N3    O14   1.301102 A    
C29   H39   1.111705 S    
C1    C16   1.408193 S    
Zn2   O8    2.018121 S    
C2    C9    1.465209 S    
C20   H18   1.109396 S    
C13   C15   1.451146 S    
N2    H15   1.025991 S    
C28   H38   1.104669 S    
C5    C9    1.559649 S    
C29   H40   1.111405 S    
H5    C11   1.103027 S    
O8    C4    1.284604 A    
C7    C9    1.576123 S    
O3    C2    1.290205 A    
C18   N2    1.292301 D    
C25   C26   1.532067 S    
C21   H22   1.109087 S    
C5    H2    1.114722 S    
O9    C19   1.418915 S    
C7    O9    1.425003 S    
O1    Zn1   1.982637 S    
O2    Zn2   1.978006 S    
C6    C10   1.565305 S    
H4    C7    1.115775 S    
C28   H37   1.110558 S    
O6    C3    1.280050 A    
O4    Zn2   2.020460 S    
C24   H27   1.111163 S    
O2    C1    1.281311 A    
C14   H9    1.081069 S    
C17   H12   1.084179 S    
O10   C22   1.422295 S    
C17   N1    1.292525 D    
C15   H10   1.084936 S    
C8    H6    1.114032 S    
C25   H30   1.110873 S    
C27   H36   1.110414 S    
O12   C28   1.415693 S    
Zn1   O5    1.978008 S    
C29   C30   1.526379 S    
N1    H13   1.025903 S    
Zn2   O6    1.982637 S    
C10   C11   1.559304 S    
Zn1   N1    2.014050 S    
