data_mof_unit_41801.cif
_audit_creation_date              2012-12-10T17:25:16-0500
_audit_creation_method            fapswitch 2.2
_symmetry_space_group_name_H-M    P1
_symmetry_Int_Tables_number       1
_space_group_crystal_system       triclinic
_cell_length_a                    27.776275
_cell_length_b                    10.769271
_cell_length_c                    9.603301
_cell_angle_alpha                 90.048291
_cell_angle_beta                  89.946733
_cell_angle_gamma                 92.602718
_cell_volume                      2869.67213751

loop_
_atom_site_label
_atom_site_type_symbol
_atom_type_description
_atom_site_fract_x
_atom_site_fract_y
_atom_site_fract_z
_atom_type_partial_charge
C1    C     C_R   0.498243 0.262597 0.499997 0.796694
C2    C     C_R   0.278794 0.502837 0.374007 -0.106318
C3    C     C_R   0.253486 0.504994 0.500106 0.358682
C4    C     C_R   0.101688 0.506857 0.490664 -0.045760
C5    C     C_R   0.124801 0.403200 0.543473 -0.016363
C6    C     C_R   0.096974 0.301543 0.594130 -0.152774
C7    C     C_R   0.129604 0.611662 0.445874 -0.021137
C8    C     C_R   0.354490 0.501250 0.500204 -0.036965
C9    C     C_R   0.645555 0.504948 0.499136 -0.040058
C10   C     C_R   0.972413 0.391406 0.497814 0.023309
C11   C     C_R   0.976730 0.617658 0.453124 0.056265
C12   C     C_R   0.407508 0.499955 0.500057 0.775008
C13   C     C_R   0.949284 0.505181 0.477928 0.029634
C14   C     C_R   0.943490 0.278182 0.494578 0.167907
C15   C     C_R   0.893319 0.282265 0.503455 -0.147461
C16   C     C_R   0.870521 0.395230 0.499912 -0.068935
C17   C     C_R   0.898277 0.506571 0.482188 -0.049095
C18   C     C_R   0.874909 0.619396 0.468724 -0.006439
C19   C     C_R   0.824396 0.618736 0.475186 0.531657
C20   C     C_R   0.820075 0.398808 0.506061 0.547424
C21   C     C_R   0.721163 0.524705 0.372161 -0.104511
C22   C     C_R   0.670956 0.521835 0.373320 -0.222913
C23   C     C_R   0.498438 0.737066 0.500071 0.770659
C24   C     C_R   0.671355 0.492009 0.623805 -0.216155
C25   C     C_R   0.721619 0.494125 0.622166 -0.104835
C26   C     C_R   0.746612 0.510225 0.496337 0.360581
C27   C     C_R   0.023113 0.396631 0.519586 0.045305
C28   C     C_R   0.050657 0.506006 0.483741 0.069236
C29   C     C_R   0.027645 0.615042 0.443375 0.041236
C30   C     C_R   0.046974 0.299473 0.584816 -0.215775
C31   C     C_R   0.106611 0.716046 0.397269 -0.142837
C32   C     C_R   0.952254 0.729430 0.441095 -0.207763
C33   C     C_R   0.902314 0.730087 0.449195 -0.148138
C34   C     C_R   0.592494 0.501342 0.499897 0.781611
C35   C     C_R   0.056567 0.718287 0.396923 -0.209763
C36   C     C_R   0.421771 0.120469 0.647910 -0.185888
C37   C     C_R   0.386218 0.051358 0.720133 -0.124013
C38   C     C_R   0.386296 0.922224 0.720397 -0.118047
C39   C     C_R   0.421936 0.861386 0.648479 -0.169356
C40   C     C_R   0.458884 0.929551 0.576418 0.099498
C41   C     C_R   0.458804 0.060885 0.576183 0.096249
C42   C     C_R   0.494866 0.128407 0.499803 -0.102881
C43   C     C_R   0.528573 0.067381 0.420274 -0.184449
C44   C     C_R   0.528610 0.939372 0.420397 -0.203454
C45   C     C_R   0.175348 0.404931 0.546919 0.533505
C46   C     C_R   0.494999 0.870457 0.500108 -0.089753
C47   C     C_R   0.565013 0.663006 0.143762 -0.162825
C48   C     C_R   0.597788 0.741243 0.071769 0.160571
C49   C     C_R   0.597117 0.741570 0.927775 -0.208462
C50   C     C_R   0.564646 0.663677 0.856009 -0.194273
C51   C     C_R   0.531810 0.580437 0.925199 0.210192
C52   C     C_R   0.531878 0.580296 0.074631 0.172036
C53   C     C_R   0.469665 0.423642 0.073883 -0.052439
C54   C     C_R   0.469695 0.423629 0.926018 -0.057634
C55   C     C_R   0.180072 0.609316 0.450574 0.532969
C56   C     C_R   0.278708 0.505242 0.626336 -0.102912
C57   C     C_R   0.328892 0.503414 0.626535 -0.236989
C58   C     C_R   0.328943 0.500959 0.373889 -0.209992
Cu1   Cu    Cu3+1 0.500000 0.499990 0.640660 0.929646
Cu2   Cu    Cu3+1 0.500000 0.500010 0.359340 0.938579
H1    H     H_    0.347633 0.499255 0.274933 0.157696
H2    H     H_    0.259377 0.507238 0.724226 0.141512
H3    H     H_    0.127235 0.797268 0.360335 0.188403
H4    H     H_    0.970906 0.818881 0.429873 0.141009
H5    H     H_    0.652757 0.479286 0.722291 0.164799
H6    H     H_    0.885257 0.818228 0.440145 0.185030
H7    H     H_    0.741190 0.482986 0.718482 0.138812
H8    H     H_    0.041437 0.801249 0.356208 0.142534
H9    H     H_    0.555734 0.119348 0.360292 0.157870
H10   H     H_    0.419191 0.220299 0.646759 0.139383
H11   H     H_    0.358097 0.098197 0.774521 0.144870
H12   H     H_    0.259507 0.502210 0.276044 0.140367
H13   H     H_    0.358232 0.868834 0.774977 0.144392
H14   H     H_    0.419487 0.760991 0.647948 0.154246
H15   H     H_    0.555741 0.893801 0.360448 0.148835
H16   H     H_    0.444795 0.361002 0.129016 0.136542
H17   H     H_    0.566938 0.670836 0.253477 0.197391
H18   H     H_    0.621985 0.802721 0.870204 0.166534
H19   H     H_    0.567102 0.672865 0.746286 0.208699
H20   H     H_    0.444845 0.360972 0.870855 0.131074
H21   H     H_    0.113691 0.223267 0.641927 0.187744
H22   H     H_    0.652115 0.532864 0.275752 0.166672
H23   H     H_    0.740359 0.537067 0.274599 0.138014
H24   H     H_    0.871904 0.195543 0.506028 0.196472
H25   H     H_    0.027323 0.222441 0.633435 0.168550
H26   H     H_    0.347573 0.503893 0.725482 0.156135
N1    N     N_R   0.201855 0.506588 0.499632 -0.468301
N2    N     N_R   0.798181 0.509473 0.493885 -0.468337
N3    N     N_R   0.500460 0.501210 0.147910 -0.192525
N4    N     N_R   0.500480 0.501290 0.852040 -0.192547
O1    O     O_R   0.500000 0.319640 0.618810 -0.574917
O2    O     O_2   0.793049 0.292476 0.522535 -0.533409
O3    O     O_2   0.207188 0.709148 0.407418 -0.537344
O4    O     O_2   0.801626 0.726277 0.463152 -0.536893
O5    O     O_R   0.500000 0.319660 0.381240 -0.572118
O6    O     O_R   0.430260 0.500010 0.618770 -0.596543
O7    O     O_R   0.430270 0.500030 0.381200 -0.577468
O8    O     O_R   0.500000 0.680340 0.618760 -0.600589
O9    O     O_R   0.500000 0.680360 0.381190 -0.588172
O10   O     O_R   0.569730 0.499970 0.618800 -0.594228
O11   O     O_R   0.569740 0.499990 0.381230 -0.599260
O12   O     O_2   0.197847 0.305273 0.595400 -0.540255
C59   C     C_3   0.633735 0.824909 0.147740 -0.856969
H27   H     H_    0.631443 0.811977 0.262319 0.219897
H28   H     H_    0.670790 0.804053 0.114292 0.247593
H29   H     H_    0.627124 0.923460 0.123410 0.242435
C60   C     C_3   0.962833 0.152900 0.459381 -0.899255
H30   H     H_    0.938847 0.103699 0.382669 0.236597
H31   H     H_    0.998722 0.161422 0.408744 0.246972
H32   H     H_    0.964076 0.094360 0.554296 0.230961

loop_
_geom_bond_atom_site_label_1
_geom_bond_atom_site_label_2
_ccdc_geom_bond_type
C10   C27   A    
C23   O9    A    
C21   C26   A    
C41   C42   A    
C25   H7    S    
C7    C55   A    
C55   O3    S    
Cu2   O9    S    
C50   H19   S    
C52   N3    A    
C53   C54   A    
C49   H18   S    
C40   C46   A    
C20   O2    S    
C28   C29   A    
C22   H22   S    
C36   C37   A    
C45   N1    A    
C54   N4    A    
C51   N4    A    
C5    C6    A    
C9    C22   A    
C15   C16   A    
C57   H26   S    
C18   C19   A    
C39   H14   S    
C8    C58   A    
C21   H23   S    
C36   H10   S    
C16   C17   A    
C34   O10   A    
C60   H30   S    
C8    C12   S    
C16   C20   A    
C58   H1    S    
Cu1   Cu2   S    
C43   H9    S    
C23   C46   S    
C21   C22   A    
C27   C30   A    
Cu1   O10   S    
C60   H31   S    
C36   C41   A    
C4    C7    A    
C2    H12   S    
C4    C28   A    
C44   C46   A    
C33   H6    S    
C50   C51   A    
C54   H20   S    
C34   O11   A    
C7    C31   A    
C3    N1    S    
C51   C52   A    
C31   H3    S    
C24   C25   A    
C32   H4    S    
C19   N2    A    
C10   C14   A    
C39   C40   A    
C25   C26   A    
Cu2   N3    S    
C48   C59   S    
C5    C45   A    
Cu1   N4    S    
C44   H15   S    
C43   C44   A    
C37   C38   A    
C8    C57   A    
C3    C56   A    
C47   C48   A    
C1    O5    A    
C17   C18   A    
C59   H28   S    
Cu1   O1    S    
C30   H25   S    
C12   O7    A    
C47   C52   A    
C19   O4    S    
C24   H5    S    
C48   C49   A    
C6    C30   A    
C11   C32   A    
Cu2   O7    S    
C37   H11   S    
C53   N3    A    
C9    C34   S    
C60   H32   S    
C31   C35   A    
C53   H16   S    
C56   C57   A    
C47   H17   S    
Cu2   O11   S    
C14   C60   S    
C59   H27   S    
C40   C41   A    
C4    C5    A    
C10   C13   A    
C2    C58   A    
C9    C24   A    
C15   H24   S    
C29   C35   A    
C13   C17   A    
C32   C33   A    
C2    C3    A    
C11   C13   A    
C38   C39   A    
C35   H8    S    
C20   N2    A    
C1    O1    A    
Cu1   O6    S    
C59   H29   S    
C56   H2    S    
C55   N1    A    
C18   C33   A    
C45   O12   S    
Cu2   O5    S    
C1    C42   S    
C23   O8    A    
C11   C29   A    
C26   N2    S    
C49   C50   A    
C42   C43   A    
C27   C28   A    
C6    H21   S    
Cu1   O8    S    
C14   C15   A    
C12   O6    A    
C38   H13   S    
