data_mof_unit_12342.cif
_audit_creation_date              2012-10-26T18:33:59-0400
_audit_creation_method            fapswitch 2.2
_symmetry_space_group_name_H-M    P1
_symmetry_Int_Tables_number       1
_space_group_crystal_system       triclinic
_cell_length_a                    11.030542
_cell_length_b                    10.763554
_cell_length_c                    9.59812
_cell_angle_alpha                 88.881002
_cell_angle_beta                  101.839126
_cell_angle_gamma                 91.582033
_cell_volume                      1114.7855486

loop_
_atom_site_label
_atom_site_type_symbol
_atom_type_description
_atom_site_fract_x
_atom_site_fract_y
_atom_site_fract_z
_atom_type_partial_charge
C1    C     C_R   0.499715 0.262409 0.500757 0.550904
C2    C     C_2   0.871305 0.509866 0.589241 -0.132818
C3    C     C_2   0.066024 0.513788 0.511460 -0.172965
C4    C     C_2   0.933980 0.486141 0.488562 -0.173170
C5    C     C_R   0.432390 0.064720 0.383122 -0.144235
C6    C     C_R   0.567590 0.935279 0.616887 -0.144247
C7    C     C_R   0.432475 0.936087 0.382280 -0.144227
C8    C     C_R   0.567510 0.063911 0.617728 -0.144397
C9    C     C_R   0.500663 0.871509 0.498758 0.030670
C10   C     C_R   0.499325 0.128490 0.501245 0.030606
C11   C     C_R   0.357039 0.312423 0.833871 0.071591
C12   C     C_R   0.500282 0.737591 0.499243 0.550898
C13   C     C_R   0.402827 0.191694 0.836976 -0.089149
C14   C     C_R   0.326262 0.093996 0.773145 -0.114939
C15   C     C_R   0.202908 0.115625 0.709039 -0.111732
C16   C     C_R   0.154992 0.234070 0.712680 -0.118244
C17   C     C_R   0.231185 0.331354 0.777880 -0.073713
C18   C     C_R   0.642613 0.687844 0.166040 0.071530
C19   C     C_R   0.596615 0.808528 0.162362 -0.089448
C20   C     C_R   0.672903 0.906450 0.226097 -0.114852
C21   C     C_R   0.796156 0.885061 0.290814 -0.111640
C22   C     C_R   0.844283 0.766627 0.287841 -0.118339
C23   C     C_R   0.263162 0.499460 0.442536 0.557911
C24   C     C_R   0.768400 0.669142 0.222630 -0.073428
C25   C     C_R   0.736838 0.500531 0.557465 0.557891
C26   C     C_R   0.433629 0.412787 0.062454 -0.006042
C27   C     C_R   0.566379 0.587209 0.937547 -0.006031
C28   C     C_R   0.433163 0.411730 0.914695 0.088881
C29   C     C_R   0.566795 0.588304 0.085293 0.088873
C30   C     C_2   0.128696 0.490107 0.410764 -0.132638
Cu1   Cu    Cu3+1 0.500000 0.500020 0.640660 0.939061
Cu2   Cu    Cu3+1 0.500000 0.499980 0.359340 0.939043
H1    H     H_    0.887277 0.446532 0.387994 0.145629
H2    H     H_    0.621206 0.112916 0.708237 0.114712
H3    H     H_    0.497565 0.173488 0.888962 0.092713
H4    H     H_    0.362309 0.001407 0.774177 0.116961
H5    H     H_    0.143786 0.040055 0.659490 0.106954
H6    H     H_    0.058323 0.249934 0.667533 0.115777
H7    H     H_    0.191935 0.420681 0.788282 0.096262
H8    H     H_    0.501937 0.826535 0.109980 0.092614
H9    H     H_    0.636709 0.999023 0.224551 0.116868
H10   H     H_    0.855046 0.960796 0.340337 0.107001
H11   H     H_    0.940884 0.750931 0.333501 0.115683
H12   H     H_    0.112735 0.553350 0.612048 0.145690
H13   H     H_    0.807842 0.579831 0.212703 0.096559
H14   H     H_    0.380161 0.343404 0.108746 0.113976
H15   H     H_    0.619819 0.656614 0.891247 0.113980
H16   H     H_    0.918823 0.542236 0.693295 0.094078
H17   H     H_    0.081177 0.457760 0.306701 0.094077
H18   H     H_    0.379225 0.114347 0.292588 0.114211
H19   H     H_    0.620760 0.885652 0.707419 0.114241
H20   H     H_    0.378802 0.887081 0.291761 0.114792
N1    N     N_R   0.500030 0.500030 0.852080 -0.238522
N2    N     N_R   0.499970 0.499970 0.147920 -0.238523
O1    O     O_R   0.499990 0.319660 0.618740 -0.491751
O2    O     O_R   0.500010 0.680340 0.381260 -0.491640
O3    O     O_R   0.499990 0.319630 0.381170 -0.516030
O4    O     O_R   0.500010 0.680370 0.618830 -0.516067
O5    O     O_R   0.320690 0.500020 0.575130 -0.491074
O6    O     O_R   0.679310 0.499980 0.424870 -0.491205
O7    O     O_R   0.320680 0.499990 0.337560 -0.504803
O8    O     O_R   0.679320 0.500010 0.662440 -0.504773

loop_
_geom_bond_atom_site_label_1
_geom_bond_atom_site_label_2
_ccdc_geom_bond_type
C15   C16   A    
Cu2   O7    S    
C3    C30   D    
C2    C4    D    
C28   N1    A    
C27   N1    A    
C29   N2    A    
C25   O6    A    
C1    O3    A    
C6    H19   S    
C27   C29   A    
C26   C28   A    
C19   C20   A    
C12   O4    A    
Cu1   O1    S    
C6    C9    A    
C20   H9    S    
C1    O1    A    
C5    C10   A    
C18   C29   S    
C8    H2    S    
C21   C22   A    
Cu1   N1    S    
C23   O5    A    
C11   C13   A    
Cu1   O8    S    
C12   O2    A    
Cu2   O3    S    
C18   C24   A    
C24   H13   S    
C11   C28   S    
Cu1   O4    S    
Cu2   N2    S    
C30   H17   S    
C7    H20   S    
C13   H3    S    
C2    C25   S    
C5    C7    A    
C25   O8    A    
C14   H4    S    
C5    H18   S    
C9    C12   S    
C22   C24   A    
C3    H12   S    
C19   H8    S    
C26   H14   S    
Cu1   O5    S    
C3    C4    S    
C23   C30   S    
C26   N2    A    
C23   O7    A    
C20   C21   A    
C8    C10   A    
C18   C19   A    
C17   H7    S    
C27   H15   S    
C7    C9    A    
Cu2   O6    S    
C4    H1    S    
C11   C17   A    
C6    C8    A    
C21   H10   S    
C13   C14   A    
C2    H16   S    
C14   C15   A    
Cu2   O2    S    
C22   H11   S    
C15   H5    S    
C1    C10   S    
Cu1   Cu2   S    
C16   H6    S    
C16   C17   A    
