data_mof_unit_68563.cif
_audit_creation_date              2012-12-11T18:15:31-0500
_audit_creation_method            fapswitch 2.2
_symmetry_space_group_name_H-M    P1
_symmetry_Int_Tables_number       1
_space_group_crystal_system       triclinic
_cell_length_a                    20.222955
_cell_length_b                    20.336134
_cell_length_c                    8.312895
_cell_angle_alpha                 89.999903
_cell_angle_beta                  91.946812
_cell_angle_gamma                 90.005698
_cell_volume                      3416.76062299

loop_
_atom_site_label
_atom_site_type_symbol
_atom_type_description
_atom_site_fract_x
_atom_site_fract_y
_atom_site_fract_z
_atom_type_partial_charge
Ba1   Ba    Ba6+2 0.999980 0.452130 0.155200 1.681204
Ba2   Ba    Ba6+2 0.999980 0.547870 0.655200 1.681737
Ba3   Ba    Ba6+2 0.499980 0.952130 0.155200 1.679741
Ba4   Ba    Ba6+2 0.499980 0.047870 0.655200 1.679583
C1    C     C_3   0.952434 0.135585 0.367800 0.617642
C2    C     C_3   0.950181 0.861983 0.867923 0.625403
C3    C     C_3   0.452528 0.635575 0.367321 0.617810
C4    C     C_3   0.452507 0.364394 0.867427 0.617906
C5    C     C_R   0.149367 0.347977 0.820893 0.049597
C6    C     C_R   0.149504 0.651931 0.320725 0.050214
C7    C     C_R   0.649380 0.847991 0.820867 0.048931
C8    C     C_R   0.649401 0.152000 0.320844 0.049695
C9    C     C_R   0.110956 0.339195 0.679389 -0.284481
C10   C     C_R   0.111205 0.660629 0.179034 -0.286928
C11   C     C_R   0.610970 0.839207 0.679374 -0.282349
C12   C     C_R   0.611009 0.160766 0.179313 -0.284703
C13   C     C_R   0.121067 0.285559 0.579270 0.010778
C14   C     C_R   0.121466 0.714163 0.078734 0.009228
C15   C     C_R   0.621090 0.785574 0.579260 0.010892
C16   C     C_R   0.621116 0.214411 0.079223 0.010963
C17   C     C_R   0.164721 0.236343 0.626486 -0.134596
C18   C     C_R   0.165055 0.763433 0.126046 -0.135759
C19   C     C_R   0.664725 0.736343 0.626511 -0.135494
C20   C     C_R   0.664748 0.263649 0.126483 -0.134850
C21   C     C_R   0.204073 0.242250 0.768960 -0.046803
C22   C     C_R   0.204247 0.757635 0.268782 -0.046109
C23   C     C_R   0.704077 0.742254 0.768983 -0.044832
C24   C     C_R   0.704083 0.257752 0.268981 -0.046955
C25   C     C_R   0.197929 0.299238 0.866185 -0.068753
C26   C     C_R   0.198056 0.700674 0.366070 -0.067519
C27   C     C_R   0.697954 0.799266 0.866131 -0.075572
C28   C     C_R   0.697951 0.200749 0.366163 -0.068959
C29   C     C_R   0.794183 0.699021 0.947461 -0.038949
C30   C     C_R   0.794095 0.301060 0.447634 -0.033560
C31   C     C_R   0.294114 0.198956 0.947557 -0.033183
C32   C     C_R   0.294121 0.801042 0.447668 -0.032876
C33   C     C_R   0.786545 0.755543 0.046680 -0.010810
C34   C     C_R   0.786328 0.244641 0.547095 -0.024733
C35   C     C_R   0.286324 0.255352 0.047079 -0.025517
C36   C     C_R   0.286341 0.744635 0.547165 -0.025689
C37   C     C_R   0.847256 0.653590 0.986576 0.022791
C38   C     C_R   0.847195 0.346461 0.486736 0.024430
C39   C     C_R   0.347226 0.153567 0.986646 0.024640
C40   C     C_R   0.347198 0.846467 0.486793 0.024339
C41   C     C_R   0.889370 0.667130 0.119777 -0.275251
C42   C     C_R   0.889264 0.332925 0.620048 -0.270047
C43   C     C_R   0.389288 0.167102 0.119974 -0.270096
C44   C     C_R   0.389246 0.832955 0.620155 -0.269897
C45   C     C_3   0.023057 0.210002 0.916946 0.302764
C46   C     C_3   0.022338 0.790901 0.411507 0.308778
C47   C     C_3   0.522974 0.709921 0.916306 0.300411
C48   C     C_3   0.523027 0.290063 0.416487 0.300559
C49   C     C_R   0.874847 0.716612 0.229129 0.037310
C50   C     C_R   0.874510 0.283651 0.729795 0.039710
C51   C     C_R   0.374520 0.216356 0.229755 0.039865
C52   C     C_R   0.374492 0.783675 0.729894 0.040333
C53   C     C_R   0.825033 0.761982 0.190232 -0.080848
C54   C     C_R   0.824485 0.238470 0.691217 -0.142562
C55   C     C_R   0.324478 0.261516 0.191215 -0.143077
C56   C     C_R   0.324472 0.738491 0.691326 -0.143621
C57   C     C_R   0.749848 0.691966 0.812462 0.391334
C58   C     C_R   0.749842 0.308055 0.312468 0.390544
C59   C     C_R   0.249866 0.191973 0.812363 0.390666
C60   C     C_R   0.249908 0.807999 0.312430 0.390655
C61   C     C_3   0.054105 0.141956 0.927360 -0.314460
C62   C     C_3   0.053639 0.858743 0.426014 -0.301949
C63   C     C_3   0.554016 0.641874 0.926880 -0.308431
C64   C     C_3   0.554078 0.358112 0.427039 -0.308321
C65   C     C_3   0.800484 0.459024 0.894513 0.634819
C66   C     C_3   0.800551 0.541012 0.394410 0.635231
C67   C     C_3   0.300212 0.959185 0.894903 0.634577
C68   C     C_3   0.300519 0.040990 0.394403 0.634868
C69   C     C_3   0.744678 0.418105 0.815891 0.232290
C70   C     C_3   0.744772 0.581951 0.315752 0.234877
C71   C     C_3   0.244125 0.918440 0.816796 0.233002
C72   C     C_3   0.244712 0.081897 0.315729 0.231615
C73   C     C_3   0.188247 0.540503 0.992406 0.302769
C74   C     C_3   0.188063 0.459415 0.492336 0.302741
C75   C     C_3   0.688160 0.040546 0.992315 0.301068
C76   C     C_3   0.688149 0.959495 0.492747 0.306227
C77   C     C_3   0.250008 0.583285 0.003938 -0.352706
C78   C     C_3   0.249762 0.416565 0.504097 -0.352635
C79   C     C_3   0.749882 0.083380 0.003909 -0.366782
C80   C     C_3   0.749935 0.916792 0.505499 -0.360001
C81   C     C_3   0.981724 0.204280 0.396259 0.329137
C82   C     C_3   0.979452 0.793054 0.888221 0.381451
C83   C     C_3   0.481643 0.704376 0.395254 0.327033
C84   C     C_3   0.481685 0.295639 0.895548 0.327215
C85   C     C_R   0.239710 0.304679 0.004766 0.004370
C86   C     C_R   0.239758 0.695282 0.504795 0.004822
C87   C     C_R   0.739810 0.804781 0.004544 -0.001612
C88   C     C_R   0.739729 0.195303 0.504741 0.004472
H1    H     H_    0.947468 0.241002 0.339534 0.038851
H2    H     H_    0.947606 0.757893 0.818431 0.045453
H3    H     H_    0.447519 0.740926 0.337370 0.040848
H4    H     H_    0.447532 0.259029 0.837990 0.040293
H5    H     H_    0.743833 0.425815 0.683209 0.032648
H6    H     H_    0.743886 0.574177 0.183083 0.032017
H7    H     H_    0.243129 0.926112 0.684093 0.033620
H8    H     H_    0.243848 0.074149 0.183061 0.032347
H9    H     H_    0.166257 0.537745 0.112155 0.003184
H10   H     H_    0.165956 0.462144 0.611950 0.002920
H11   H     H_    0.666115 0.037820 0.112007 0.006661
H12   H     H_    0.665846 0.962343 0.612121 0.002740
H13   H     H_    0.152636 0.563391 0.904569 0.066319
H14   H     H_    0.152503 0.436592 0.404270 0.066825
H15   H     H_    0.652569 0.063385 0.904358 0.069562
H16   H     H_    0.652764 0.936489 0.404556 0.066312
H17   H     H_    0.285340 0.563322 0.096799 0.156318
H18   H     H_    0.285017 0.436428 0.597269 0.156079
H19   H     H_    0.785185 0.063486 0.096925 0.154562
H20   H     H_    0.784996 0.936873 0.598814 0.133431
H21   H     H_    0.236955 0.634322 0.037117 0.056813
H22   H     H_    0.236601 0.365518 0.536960 0.056513
H23   H     H_    0.736758 0.134422 0.036902 0.062079
H24   H     H_    0.736839 0.865766 0.538699 0.055976
H25   H     H_    0.274175 0.584361 0.885946 0.123354
H26   H     H_    0.274062 0.415544 0.386273 0.123532
H27   H     H_    0.774108 0.084418 0.885991 0.119167
H28   H     H_    0.774434 0.915647 0.387943 0.131518
H29   H     H_    0.985940 0.213340 0.528000 -0.068953
H30   H     H_    0.979475 0.779718 0.017955 -0.042434
H31   H     H_    0.485434 0.713779 0.526899 -0.068317
H32   H     H_    0.485589 0.286342 0.027220 -0.068280
H33   H     H_    0.947738 0.126406 0.235746 0.080245
H34   H     H_    0.952552 0.876912 0.738811 0.031690
H35   H     H_    0.448584 0.625907 0.235409 0.081995
H36   H     H_    0.448329 0.373898 0.735454 0.081820
H37   H     H_    0.105755 0.144005 0.886521 0.107830
H38   H     H_    0.104382 0.857542 0.379173 0.104357
H39   H     H_    0.605561 0.643834 0.885281 0.106541
H40   H     H_    0.605659 0.356125 0.385714 0.106541
H41   H     H_    0.168131 0.194422 0.547367 0.111442
H42   H     H_    0.168491 0.805345 0.046905 0.110572
H43   H     H_    0.668129 0.694417 0.547406 0.111025
H44   H     H_    0.668150 0.305580 0.047389 0.111407
H45   H     H_    0.931281 0.635369 0.146106 0.076375
H46   H     H_    0.931272 0.364591 0.646204 0.075691
H47   H     H_    0.431295 0.135443 0.146129 0.075806
H48   H     H_    0.431225 0.864652 0.646370 0.075711
H49   H     H_    0.237149 0.347615 0.080858 0.111540
H50   H     H_    0.237168 0.652360 0.580931 0.110842
H51   H     H_    0.737293 0.847770 0.080477 0.111699
H52   H     H_    0.737180 0.152352 0.580790 0.111236
H53   H     H_    0.024075 0.226674 0.789863 -0.046363
H54   H     H_    0.021302 0.776450 0.282547 -0.040714
H55   H     H_    0.523776 0.726440 0.789071 -0.046014
H56   H     H_    0.523900 0.273502 0.289292 -0.046247
H57   H     H_    0.054667 0.123968 0.053519 0.123226
H58   H     H_    0.056628 0.874360 0.554059 0.124045
H59   H     H_    0.554876 0.624073 0.053217 0.124097
H60   H     H_    0.554829 0.375972 0.553322 0.124086
H61   H     H_    0.025424 0.107085 0.849391 0.155161
H62   H     H_    0.023645 0.894985 0.355185 0.168497
H63   H     H_    0.525143 0.606901 0.849610 0.160311
H64   H     H_    0.525279 0.393054 0.349530 0.160056
H65   H     H_    0.795898 0.457840 0.026078 0.094776
H66   H     H_    0.795956 0.542220 0.525982 0.094767
H67   H     H_    0.295777 0.958139 0.026544 0.094574
H68   H     H_    0.295944 0.042219 0.525969 0.095006
O1    O     O_2   0.130070 0.404060 0.104920 -0.471850
O2    O     O_2   0.130070 0.595940 0.604920 -0.471632
O3    O     O_2   0.630070 0.904060 0.104920 -0.469903
O4    O     O_2   0.630070 0.095940 0.604920 -0.471751
O5    O     O_3   0.792905 0.475613 0.343784 -0.601585
O6    O     O_3   0.792880 0.524415 0.843813 -0.601180
O7    O     O_3   0.292886 0.975586 0.343862 -0.601618
O8    O     O_3   0.292798 0.024533 0.843841 -0.601536
O9    O     O_3   0.957958 0.206894 0.970720 -0.610517
O10   O     O_3   0.958185 0.793027 0.471455 -0.604168
O11   O     O_3   0.457974 0.706901 0.970750 -0.609223
O12   O     O_3   0.457994 0.293102 0.470710 -0.609223
O13   O     O_3   0.924190 0.533610 0.949240 -0.471999
O14   O     O_3   0.924190 0.466390 0.449240 -0.472233
O15   O     O_3   0.424190 0.033610 0.949240 -0.472344
O16   O     O_3   0.424190 0.966390 0.449240 -0.472011
O17   O     O_3   0.075780 0.466370 0.861070 -0.494656
O18   O     O_3   0.075780 0.533630 0.361070 -0.494809
O19   O     O_3   0.575780 0.966370 0.861070 -0.493339
O20   O     O_3   0.575780 0.033630 0.361070 -0.494663
O21   O     O_3   0.022320 0.344950 0.359800 -0.489790
O22   O     O_3   0.022320 0.655050 0.859800 -0.493878
O23   O     O_3   0.522320 0.844950 0.359800 -0.489615
O24   O     O_3   0.522320 0.155050 0.859800 -0.489838
O25   O     O_2   0.132303 0.294633 0.248751 -0.494347
O26   O     O_2   0.131906 0.706019 0.747279 -0.491745
O27   O     O_2   0.632355 0.794678 0.248783 -0.495323
O28   O     O_2   0.632334 0.205341 0.748727 -0.494037
O29   O     O_3   0.206360 0.477525 0.942367 -0.622210
O30   O     O_3   0.206294 0.522399 0.442534 -0.622278
O31   O     O_3   0.706335 0.977560 0.942439 -0.634366
O32   O     O_3   0.706321 0.022436 0.442502 -0.622561
O33   O     O_3   0.043934 0.207822 0.326209 -0.637225
O34   O     O_3   0.043846 0.792446 0.829532 -0.652051
O35   O     O_3   0.544064 0.707798 0.326236 -0.637734
O36   O     O_3   0.544054 0.292199 0.826270 -0.637582
O37   O     O_2   0.869860 0.403670 0.205810 -0.415305
O38   O     O_2   0.869860 0.596330 0.705810 -0.415377
O39   O     O_2   0.369860 0.903670 0.205810 -0.415323
O40   O     O_2   0.369860 0.096330 0.705810 -0.415212
O41   O     O_3   0.977590 0.344880 0.951200 -0.451386
O42   O     O_3   0.977590 0.655120 0.451200 -0.452234
O43   O     O_3   0.477590 0.844880 0.951200 -0.451286
O44   O     O_3   0.477590 0.155120 0.451200 -0.451293
O45   O     O_2   0.869970 0.290248 0.065761 -0.481637
O46   O     O_2   0.869781 0.709669 0.564671 -0.486123
O47   O     O_2   0.369988 0.790250 0.065851 -0.481669
O48   O     O_2   0.369980 0.209756 0.565716 -0.481733
P1    P     P_3+3 0.136530 0.426510 0.931350 0.977884
P2    P     P_3+3 0.136530 0.573490 0.431350 0.978255
P3    P     P_3+3 0.636530 0.926510 0.931350 0.971799
P4    P     P_3+3 0.636530 0.073490 0.431350 0.977342
P5    P     P_3+3 0.863410 0.426100 0.379280 1.031676
P6    P     P_3+3 0.863410 0.573900 0.879280 1.031599
P7    P     P_3+3 0.363410 0.926100 0.379280 1.031738
P8    P     P_3+3 0.363410 0.073900 0.879280 1.031643
P9    P     P_3+3 0.918925 0.282026 0.928224 0.991893
P10   P     P_3+3 0.919040 0.718047 0.427835 0.994662
P11   P     P_3+3 0.418926 0.782029 0.928281 0.993093
P12   P     P_3+3 0.418940 0.217975 0.428187 0.992825
P13   P     P_3+3 0.080899 0.717027 0.878792 0.927067
P14   P     P_3+3 0.080846 0.282958 0.378853 0.933916
P15   P     P_3+3 0.580885 0.217023 0.878835 0.934044
P16   P     P_3+3 0.580883 0.782982 0.378842 0.933244
H69   H     H_    0.753593 0.364934 0.839472 -0.029167
H70   H     H_    0.753763 0.635124 0.339207 -0.035303
H71   H     H_    0.252840 0.865241 0.840293 -0.028392
H72   H     H_    0.253645 0.135070 0.339204 -0.028770
O49   O     O_3   0.683829 0.436837 0.877044 -0.691228
H73   H     H_    0.650191 0.407855 0.823912 0.309426
O50   O     O_3   0.683911 0.563318 0.377060 -0.691300
H74   H     H_    0.650295 0.592348 0.324014 0.309204
O51   O     O_3   0.183442 0.937450 0.878480 -0.695071
H75   H     H_    0.149492 0.908917 0.824968 0.308911
O52   O     O_3   0.183863 0.063196 0.376961 -0.691743
H76   H     H_    0.150227 0.092174 0.323816 0.309293
O53   O     O_3   0.888773 0.132036 0.429156 -0.739477
H77   H     H_    0.894044 0.131650 0.548370 0.312910
O54   O     O_3   0.883891 0.860899 0.911700 -0.749068
H78   H     H_    0.865016 0.904414 0.881366 0.316965
O55   O     O_3   0.388501 0.632231 0.426570 -0.738441
H79   H     H_    0.393112 0.632140 0.545886 0.314863
O56   O     O_3   0.388586 0.367784 0.927329 -0.738437
H80   H     H_    0.393402 0.367993 0.046618 0.314882
H81   H     H_    0.075515 0.376466 0.641776 0.062906
H82   H     H_    0.075713 0.623388 0.141486 0.063762
H83   H     H_    0.575529 0.876477 0.641755 0.062878
H84   H     H_    0.575577 0.123483 0.141675 0.062984
H85   H     H_    0.816103 0.802076 0.272556 0.070686
H86   H     H_    0.815366 0.198523 0.773834 0.070521
H87   H     H_    0.315344 0.301444 0.273870 0.071410
H88   H     H_    0.315352 0.698548 0.773954 0.071304
O57   O     O_3   0.748499 0.634737 0.726209 -0.684947
H89   H     H_    0.758965 0.646856 0.614862 0.304704
O58   O     O_3   0.748538 0.365251 0.226088 -0.685141
H90   H     H_    0.759049 0.353081 0.114802 0.304439
O59   O     O_3   0.248614 0.134818 0.725824 -0.685127
H91   H     H_    0.259117 0.147047 0.614569 0.304480
O60   O     O_3   0.248525 0.865223 0.226173 -0.685993
H92   H     H_    0.259188 0.853115 0.114954 0.304509
O61   O     O_3   0.993164 0.087481 0.441638 -0.706281
H93   H     H_    0.028836 0.077698 0.366067 0.308303
O62   O     O_3   0.985466 0.906659 0.967214 -0.704108
H94   H     H_    0.025855 0.919122 0.909486 0.305022
O63   O     O_3   0.492869 0.587751 0.443497 -0.704855
H95   H     H_    0.529158 0.577912 0.369725 0.308946
O64   O     O_3   0.492966 0.412323 0.942867 -0.704600
H96   H     H_    0.529051 0.422184 0.868515 0.308855
H97   H     H_    0.053268 0.243936 0.994216 0.092071
H98   H     H_    0.053670 0.755789 0.482713 0.079628
H99   H     H_    0.553325 0.743928 0.993066 0.091413
H100  H     H_    0.553327 0.256077 0.493405 0.091329
O65   O     O_3   0.861106 0.432155 0.851948 -0.744316
H101  H     H_    0.869411 0.448392 0.742074 0.255810
O66   O     O_3   0.861197 0.567853 0.351829 -0.744575
H102  H     H_    0.869507 0.551587 0.241940 0.255774
O67   O     O_3   0.360700 0.932077 0.852063 -0.744610
H103  H     H_    0.368995 0.948279 0.742117 0.255622
O68   O     O_3   0.361150 0.067824 0.351745 -0.744342
H104  H     H_    0.369431 0.051566 0.241885 0.255857

loop_
_geom_bond_atom_site_label_1
_geom_bond_atom_site_label_2
_ccdc_geom_bond_type
O48   P12   D    
O24   P15   S    
C83   H31   S    
C84   H4    S    
O61   H93   S    
Ba4   P8    S    
C51   C55   A    
C74   H10   S    
C40   P7    S    
Ba3   O43   S    
O12   P12   S    
C10   C14   A    
O9    P9    S    
O54   H78   S    
Ba2   O42   S    
O7    P7    S    
C35   C55   A    
C84   H32   S    
Ba1   O41   S    
C48   O12   S    
C1    H33   S    
C69   O49   S    
C78   H22   S    
C79   H27   S    
O62   H94   S    
C70   H6    S    
C48   H100  S    
O46   P10   D    
C11   C15   A    
Ba1   O13   S    
C80   H20   S    
C1    O53   S    
O44   P12   S    
O39   P7    D    
C78   H18   S    
C12   C16   A    
C62   H58   S    
C47   H99   S    
C84   O36   S    
C59   O59   S    
Ba2   O13   S    
C21   C59   A    
O35   P16   S    
O8    P8    S    
Ba4   O44   S    
C72   H72   S    
O27   P16   D    
Ba3   P7    S    
O56   H80   S    
C77   H25   S    
O58   H90   S    
C30   C58   A    
C5    C9    A    
O18   P2    S    
C63   H63   S    
Ba1   Ba2   S    
C38   C42   A    
C67   O67   S    
O17   P1    S    
C64   H40   S    
C14   P13   S    
C22   C60   A    
C65   O6    S    
O32   P4    S    
C32   C36   A    
C61   H61   S    
C13   P14   S    
C82   H2    S    
C7    P3    S    
C34   C54   A    
C81   H1    S    
C29   C57   A    
C4    H36   S    
C3    C83   S    
C46   H98   S    
C5    P1    S    
C30   C38   A    
C75   C79   S    
Ba4   O15   S    
C74   O30   S    
C66   C70   S    
Ba3   O39   S    
O52   H76   S    
Ba4   O4    S    
C65   C69   S    
O57   H89   S    
Ba2   O17   S    
C19   C23   A    
C73   O29   S    
C31   C39   A    
O51   H75   S    
C36   C56   A    
C70   H70   S    
C48   C64   S    
C60   O60   S    
C68   C72   S    
C42   H46   S    
C1    C81   S    
C20   H44   S    
C32   C60   A    
C7    C27   A    
C48   H56   S    
C75   O31   S    
O67   H103  S    
C8    C28   A    
Ba3   P3    S    
C76   O32   S    
C75   H11   S    
C7    C11   A    
C4    O64   S    
C88   H52   S    
C39   P8    S    
C25   C85   A    
C30   C34   A    
C45   O9    S    
C6    P2    S    
Ba1   P5    S    
C87   H51   S    
C12   H84   S    
C21   C25   A    
C58   O58   S    
Ba1   O37   S    
Ba1   O14   S    
Ba2   P2    S    
Ba2   O22   S    
C33   C87   A    
Ba1   P1    S    
C76   C80   S    
C8    C12   A    
C24   C28   A    
C2    H34   S    
O20   P4    S    
C6    C10   A    
C66   O5    S    
C62   H62   S    
Ba1   O21   S    
C15   C19   A    
O23   P16   S    
O19   P3    S    
O2    P2    D    
C4    O56   S    
C33   C53   A    
O1    P1    D    
C13   C17   A    
C10   H82   S    
C52   C56   A    
O10   P10   S    
C83   H3    S    
C66   H66   S    
C23   C57   A    
C2    O54   S    
C31   C35   A    
Ba3   O20   S    
O28   P15   D    
C82   H30   S    
O49   H73   S    
C64   H60   S    
C79   H23   S    
C1    O61   S    
C77   H21   S    
Ba1   O18   S    
C74   C78   S    
C65   H65   S    
C26   C86   A    
C76   H12   S    
C73   C77   S    
C80   H28   S    
C44   H48   S    
O45   P9    D    
C16   C20   A    
C42   C50   A    
C17   H41   S    
C71   H7    S    
O65   H101  S    
O16   P7    S    
C75   H15   S    
C19   H43   S    
C46   O10   S    
C47   C63   S    
Ba4   O24   S    
C81   H29   S    
C46   C62   S    
C8    P4    S    
C47   H55   S    
C86   H50   S    
C18   C22   A    
C45   C61   S    
O6    P6    S    
O34   P13   S    
O42   P10   S    
Ba3   O15   S    
O33   P14   S    
O66   H102  S    
C11   H83   S    
C69   H5    S    
C27   C87   A    
C67   O8    S    
Ba1   O1    S    
C23   C27   A    
C55   H87   S    
C37   P6    S    
C50   C54   A    
C68   O7    S    
C79   H19   S    
C6    C26   A    
C32   C40   A    
C78   H26   S    
Ba4   O19   S    
C53   H85   S    
Ba3   Ba4   S    
O38   P6    D    
O59   H91   S    
O15   P8    S    
O37   P5    D    
C50   P9    S    
C43   C51   A    
C41   H45   S    
O63   H95   S    
O5    P5    S    
C49   P10   S    
C44   C52   A    
C17   C21   A    
C3    O63   S    
O22   P13   S    
O3    P3    D    
C66   O66   S    
O21   P14   S    
Ba2   O38   S    
O26   P13   D    
C63   H39   S    
C15   P16   S    
C20   C24   A    
C77   H17   S    
C70   O50   S    
C64   H64   S    
C2    C82   S    
C45   H97   S    
C61   H37   S    
O64   H96   S    
Ba2   P6    S    
C51   P12   S    
O41   P9    S    
C72   H8    S    
C67   H67   S    
C46   H54   S    
C76   H16   S    
O47   P11   D    
C65   O65   S    
C68   H68   S    
O43   P11   S    
C74   H14   S    
C68   O68   S    
C3    H35   S    
Ba3   O3    S    
O14   P5    S    
C14   C18   A    
O13   P6    S    
O30   P2    S    
O68   H104  S    
C29   C37   A    
C45   H53   S    
C38   P5    S    
O29   P1    S    
O25   P14   D    
C82   O34   S    
C2    O62   S    
C67   C71   S    
C5    C25   A    
C81   O33   S    
C28   C88   A    
C39   C43   A    
O4    P4    D    
O55   H79   S    
C85   H49   S    
Ba4   P4    S    
C47   O11   S    
C9    H81   S    
O40   P8    D    
C16   P15   S    
C49   C53   A    
C73   H9    S    
C71   O51   S    
C72   O52   S    
C61   H57   S    
C4    C84   S    
C73   H13   S    
C29   C33   A    
C69   H69   S    
O36   P15   S    
C54   H86   S    
C71   H71   S    
Ba2   O14   S    
C41   C49   A    
C9    C13   A    
C18   H42   S    
C40   C44   A    
Ba3   O16   S    
Ba4   O40   S    
C57   O57   S    
C80   H24   S    
Ba4   O16   S    
C43   H47   S    
O50   H74   S    
C56   H88   S    
C63   H59   S    
C37   C41   A    
C31   C59   A    
C83   O35   S    
C36   C86   A    
O53   H77   S    
Ba3   O23   S    
C3    O55   S    
C35   C85   A    
C52   P11   S    
O11   P11   S    
O60   H92   S    
C34   C88   A    
O31   P3    S    
Ba2   O2    S    
C62   H38   S    
C22   C26   A    
C24   C58   A    
