data_mof_unit_33124.cif
_audit_creation_date              2012-12-10T17:47:05-0500
_audit_creation_method            fapswitch 2.2
_symmetry_space_group_name_H-M    P1
_symmetry_Int_Tables_number       1
_space_group_crystal_system       triclinic
_cell_length_a                    9.944787
_cell_length_b                    10.67356
_cell_length_c                    13.606942
_cell_angle_alpha                 92.242538
_cell_angle_beta                  83.039486
_cell_angle_gamma                 90.480109
_cell_volume                      1432.57382994

loop_
_atom_site_label
_atom_site_type_symbol
_atom_type_description
_atom_site_fract_x
_atom_site_fract_y
_atom_site_fract_z
_atom_type_partial_charge
C1    C     C_R   0.501226 0.739540 0.492008 0.866791
C2    C     C_R   0.616952 0.937587 0.507568 -0.235796
C3    C     C_R   0.613115 0.064864 0.522605 -0.229288
C4    C     C_R   0.475668 0.500835 0.685457 0.866795
C5    C     C_R   0.490889 0.127956 0.523516 -0.051852
C6    C     C_R   0.840042 0.657170 0.636297 -0.050909
C7    C     C_R   0.899743 0.732905 0.704522 -0.159204
C8    C     C_R   0.038623 0.730501 0.705841 -0.199867
C9    C     C_R   0.118654 0.652868 0.638587 -0.078516
C10   C     C_R   0.061387 0.572470 0.570156 0.075472
C11   C     C_R   0.917312 0.573781 0.569391 0.071815
C12   C     C_1   0.456966 0.502695 0.789160 -0.164989
C13   C     C_R   0.938999 0.438097 0.427080 0.413806
C14   C     C_R   0.083472 0.440201 0.425625 0.421268
C15   C     C_R   0.497004 0.261122 0.510612 0.837617
C16   C     C_R   0.524329 0.499002 0.314480 0.905862
C17   C     C_1   0.543067 0.494978 0.210635 -0.118630
C18   C     C_2   0.560658 0.488583 0.017417 0.441145
C19   C     C_2   0.443137 0.504257 0.980868 0.066694
C20   C     C_1   0.445221 0.504009 0.876963 0.056288
C21   C     C_1   0.555549 0.491450 0.122696 -0.126927
C22   C     C_3   0.205158 0.283063 0.332227 0.166613
C23   C     C_R   0.264413 0.886794 0.438678 0.060278
C24   C     C_3   0.208812 0.229873 0.226259 -0.849661
C25   C     C_3   0.792821 0.441392 0.999718 0.127839
C26   C     C_3   0.914915 0.421137 0.921954 -0.788197
C27   C     C_3   0.965694 0.935907 0.370525 0.101758
C28   C     C_3   0.888806 0.843217 0.310013 -0.753674
C29   C     C_3   0.980949 0.103545 0.675708 0.110407
C30   C     C_3   0.832050 0.109643 0.717248 -0.843982
C31   C     C_3   0.860414 0.261679 0.350554 0.147366
C32   C     C_3   0.752937 0.219754 0.285317 -0.802611
C33   C     C_R   0.135045 0.935369 0.470006 0.415226
C34   C     C_R   0.121196 0.040781 0.535545 0.351472
C35   C     C_R   0.238848 0.108544 0.553052 -0.410919
C36   C     C_R   0.368829 0.060434 0.518725 0.023152
C37   C     C_R   0.378827 0.938625 0.478353 -0.038694
C38   C     C_R   0.501111 0.873467 0.484492 -0.056874
H1    H     H_    0.734212 0.670622 0.635460 0.186828
H2    H     H_    0.293676 0.273148 0.178386 0.268540
H3    H     H_    0.225048 0.126963 0.224561 0.207006
H4    H     H_    0.113271 0.249576 0.195388 0.278010
H5    H     H_    0.772155 0.352348 0.038953 0.136961
H6    H     H_    0.818010 0.517465 0.052876 0.175287
H7    H     H_    0.940529 0.509408 0.883088 0.266859
H8    H     H_    0.003353 0.391854 0.957970 0.229001
H9    H     H_    0.892383 0.346755 0.866862 0.245889
H10   H     H_    0.043239 0.983158 0.318079 0.123037
H11   H     H_    0.893510 0.007004 0.406744 0.161647
H12   H     H_    0.838114 0.796146 0.755031 0.144186
H13   H     H_    0.811356 0.792292 0.359078 0.264980
H14   H     H_    0.837776 0.893875 0.255272 0.195390
H15   H     H_    0.960109 0.773876 0.269759 0.283608
H16   H     H_    0.028335 0.194535 0.694853 0.139333
H17   H     H_    0.028263 0.026325 0.712350 0.144829
H18   H     H_    0.779438 0.022111 0.696486 0.258587
H19   H     H_    0.822338 0.120399 0.799300 0.212800
H20   H     H_    0.783468 0.191318 0.687924 0.257179
H21   H     H_    0.830882 0.232238 0.427352 0.138912
H22   H     H_    0.952523 0.210066 0.321480 0.118095
H23   H     H_    0.085196 0.791822 0.757366 0.141056
H24   H     H_    0.783749 0.246817 0.207832 0.238973
H25   H     H_    0.740989 0.116305 0.286431 0.198060
H26   H     H_    0.653704 0.262509 0.312168 0.251335
H27   H     H_    0.225162 0.662476 0.639383 0.192925
H28   H     H_    0.710492 0.889804 0.515340 0.201978
H29   H     H_    0.228236 0.195410 0.596641 0.195084
H30   H     H_    0.705762 0.113409 0.534193 0.190595
H31   H     H_    0.143118 0.221839 0.384531 0.072376
H32   H     H_    0.310636 0.278801 0.348525 0.189903
I1    I     I_    0.251323 0.529867 0.067218 -0.359042
I2    I     I_    0.286574 0.767942 0.308426 -0.278058
N1    N     N_R   0.857120 0.501200 0.500900 -0.181142
N2    N     N_R   0.142720 0.501280 0.500940 -0.182122
O1    O     O_R   0.385310 0.683220 0.500000 -0.611370
O2    O     O_3   0.680547 0.475266 0.952233 -0.619113
O3    O     O_3   0.022730 0.870920 0.443759 -0.575755
O4    O     O_3   0.992288 0.082964 0.571695 -0.631032
O5    O     O_3   0.882514 0.392280 0.344593 -0.551656
O6    O     O_R   0.614640 0.683250 0.500010 -0.649438
O7    O     O_R   0.368830 0.499960 0.640340 -0.642941
O8    O     O_R   0.598160 0.499980 0.640350 -0.621544
O9    O     O_R   0.385360 0.316750 0.499990 -0.652451
O10   O     O_R   0.614690 0.316780 0.500000 -0.620331
O11   O     O_R   0.401840 0.500020 0.359650 -0.537244
O12   O     O_R   0.631170 0.500040 0.359660 -0.562329
O13   O     O_3   0.161924 0.409304 0.336749 -0.530777
Zn1   Zn    Zn3+2 0.346870 0.499980 0.499990 0.965397
Zn2   Zn    Zn3+2 0.653130 0.500020 0.500010 0.964623

loop_
_geom_bond_atom_site_label_1
_geom_bond_atom_site_label_2
_ccdc_geom_bond_type
C27   H10   S    
C13   O5    S    
C18   C21   S    
C24   H4    S    
C19   I1    S    
C35   C36   A    
C25   H5    S    
C7    C8    A    
C29   C30   S    
O8    Zn2   S    
C14   N2    A    
C36   C37   A    
C3    H30   S    
C14   O13   S    
C18   C19   D    
C28   H13   S    
C29   H16   S    
C5    C36   A    
C34   C35   A    
C31   H21   S    
O6    Zn2   S    
C27   O3    S    
C26   H7    S    
C4    O7    A    
C19   C20   S    
C8    C9    A    
C23   C33   A    
C10   N2    A    
C4    C12   S    
C9    C10   A    
C22   H31   S    
C8    H23   S    
O9    Zn1   S    
C13   C14   A    
C16   O12   A    
C24   H3    S    
C7    H12   S    
C25   H6    S    
C29   O4    S    
C1    O1    A    
C32   H26   S    
C11   N1    A    
C6    C11   A    
C16   C17   S    
C15   O9    A    
C29   H17   S    
C3    C5    A    
C25   C26   S    
C23   C37   A    
C30   H18   S    
C17   C21   T    
C30   H19   S    
C31   H22   S    
C37   C38   A    
C2    C38   A    
C31   C32   S    
C35   H29   S    
C12   C20   T    
C33   C34   A    
C22   O13   S    
C15   O10   A    
C1    C38   S    
C26   H9    S    
C13   N1    A    
C16   O11   A    
C22   C24   S    
O10   Zn2   S    
O11   Zn1   S    
C18   O2    S    
C23   I2    S    
C32   H25   S    
C2    H28   S    
O12   Zn2   S    
C28   H15   S    
C31   O5    S    
C6    C7    A    
C25   O2    S    
C2    C3    A    
C32   H24   S    
C34   O4    S    
C28   H14   S    
C33   O3    S    
C30   H20   S    
C24   H2    S    
C9    H27   S    
C5    C15   S    
O7    Zn1   S    
C10   C11   A    
C26   H8    S    
N1    Zn2   S    
O1    Zn1   S    
C4    O8    A    
C27   C28   S    
C1    O6    A    
C6    H1    S    
N2    Zn1   S    
C22   H32   S    
C27   H11   S    
