data_mof_unit_5743.cif
_audit_creation_date              2012-12-11T15:09:07-0500
_audit_creation_method            fapswitch 2.2
_symmetry_space_group_name_H-M    P1
_symmetry_Int_Tables_number       1
_space_group_crystal_system       triclinic
_cell_length_a                    26.056467
_cell_length_b                    27.507388
_cell_length_c                    8.378145
_cell_angle_alpha                 89.999865
_cell_angle_beta                  96.006852
_cell_angle_gamma                 90.010509
_cell_volume                      5972.02524225

loop_
_atom_site_label
_atom_site_type_symbol
_atom_type_description
_atom_site_fract_x
_atom_site_fract_y
_atom_site_fract_z
_atom_type_partial_charge
Ba1   Ba    Ba6+2 0.999910 0.465960 0.844870 1.688972
Ba2   Ba    Ba6+2 0.999910 0.534040 0.344870 1.675297
Ba3   Ba    Ba6+2 0.499910 0.965960 0.844870 1.688855
Ba4   Ba    Ba6+2 0.499910 0.034040 0.344870 1.677979
C1    C     C_3   0.043795 0.241393 0.640139 -0.354747
C2    C     C_R   0.845382 0.642056 0.599605 -0.101426
C3    C     C_3   0.517758 0.209716 0.125596 0.379215
C4    C     C_R   0.914197 0.383299 0.298220 -0.265580
C5    C     C_R   0.914870 0.616968 0.797071 -0.267921
C6    C     C_R   0.414195 0.883275 0.298159 -0.265559
C7    C     C_R   0.414862 0.116983 0.797041 -0.268061
C8    C     C_3   0.203361 0.428615 0.114159 0.300360
C9    C     C_3   0.194981 0.574092 0.615428 0.264398
C10   C     C_3   0.703561 0.927656 0.118852 0.242801
C11   C     C_3   0.702440 0.072518 0.616494 0.208709
C12   C     C_R   0.343661 0.859074 0.102917 -0.119829
C13   C     C_R   0.345249 0.141965 0.599828 -0.102090
C14   C     C_R   0.832616 0.318983 0.199849 -0.025421
C15   C     C_R   0.834760 0.682513 0.695443 0.019423
C16   C     C_R   0.332582 0.818979 0.199803 -0.025285
C17   C     C_R   0.334525 0.182348 0.695857 0.018391
C18   C     C_R   0.862249 0.313090 0.350087 -0.149470
C19   C     C_R   0.864112 0.688204 0.846223 -0.117245
C20   C     C_R   0.362231 0.813071 0.350020 -0.149439
C21   C     C_3   0.042762 0.759325 0.155350 -0.347583
C22   C     C_R   0.363923 0.188065 0.846562 -0.116888
C23   C     C_R   0.902151 0.345780 0.400080 -0.018217
C24   C     C_R   0.903310 0.654950 0.897705 0.004640
C25   C     C_R   0.402146 0.845757 0.400017 -0.018326
C26   C     C_R   0.403238 0.154908 0.897814 0.005136
C27   C     C_R   0.794994 0.234027 0.181369 -0.074578
C28   C     C_R   0.796751 0.767402 0.677879 -0.055504
C29   C     C_R   0.294837 0.734050 0.181297 -0.073721
C30   C     C_R   0.296177 0.267096 0.679275 -0.057923
C31   C     C_R   0.255035 0.701243 0.131642 -0.072625
C32   C     C_3   0.543855 0.741432 0.639992 -0.354633
C33   C     C_R   0.256049 0.299686 0.630865 -0.083071
C34   C     C_R   0.755246 0.201174 0.131716 -0.075834
C35   C     C_R   0.756724 0.800078 0.629152 -0.075370
C36   C     C_R   0.208902 0.717285 0.045036 0.057647
C37   C     C_R   0.210053 0.283514 0.543733 0.058194
C38   C     C_R   0.709107 0.217152 0.045023 0.058101
C39   C     C_R   0.710641 0.783937 0.542463 0.054197
C40   C     C_R   0.203816 0.767233 0.010020 -0.080054
C41   C     C_R   0.205421 0.233646 0.507070 -0.075208
C42   C     C_R   0.703950 0.267091 0.009936 -0.080050
C43   C     C_3   0.542864 0.259231 0.155643 -0.350444
C44   C     C_R   0.705824 0.734038 0.506456 -0.075946
C45   C     C_R   0.743672 0.300003 0.060020 -0.072762
C46   C     C_R   0.745784 0.701318 0.555670 -0.078877
C47   C     C_R   0.243592 0.800093 0.060087 -0.072305
C48   C     C_R   0.245481 0.200996 0.556049 -0.080076
C49   C     C_3   0.991333 0.283879 0.114990 0.814373
C50   C     C_3   0.992468 0.717043 0.632985 0.775843
C51   C     C_3   0.491397 0.783888 0.114881 0.813889
C52   C     C_3   0.492962 0.217017 0.633168 0.777402
C53   C     C_R   0.789901 0.284001 0.146431 0.065409
C54   C     C_R   0.884364 0.391173 0.152226 0.087913
C55   C     C_R   0.791983 0.717455 0.642009 0.060818
C56   C     C_R   0.289813 0.784035 0.146420 0.064915
C57   C     C_R   0.291608 0.217184 0.642736 0.062394
C58   C     C_R   0.138853 0.686491 0.836474 -0.151232
C59   C     C_R   0.139944 0.314306 0.335528 -0.150989
C60   C     C_R   0.639179 0.186250 0.836313 -0.150941
C61   C     C_R   0.640301 0.814577 0.334812 -0.148511
C62   C     C_R   0.100597 0.652425 0.783772 -0.010058
C63   C     C_R   0.101508 0.348234 0.283241 -0.016140
C64   C     C_R   0.600968 0.152142 0.783560 -0.006220
C65   C     C_R   0.885130 0.609203 0.650914 0.054519
C66   C     C_R   0.601606 0.848304 0.283051 -0.013707
C67   C     C_R   0.117144 0.608285 0.033967 -0.021258
C68   C     C_R   0.117375 0.391794 0.534430 -0.011898
C69   C     C_R   0.617374 0.108153 0.033945 -0.021163
C70   C     C_R   0.617678 0.891983 0.533905 -0.021084
C71   C     C_R   0.155080 0.642539 0.088387 -0.145105
C72   C     C_R   0.155426 0.357639 0.588781 -0.157372
C73   C     C_R   0.655331 0.142373 0.088402 -0.146298
C74   C     C_R   0.656131 0.858131 0.587539 -0.145730
C75   C     C_R   0.166752 0.681988 0.989963 0.006350
C76   C     C_R   0.384356 0.891162 0.152187 0.087760
C77   C     C_R   0.167607 0.318587 0.489438 -0.000745
C78   C     C_R   0.667023 0.181802 0.989912 0.004499
C79   C     C_R   0.668209 0.819027 0.488284 0.008986
C80   C     C_R   0.089715 0.614039 0.883355 -0.244298
C81   C     C_R   0.090265 0.386291 0.383330 -0.239409
C82   C     C_R   0.590053 0.113808 0.883163 -0.240897
C83   C     C_R   0.590272 0.886274 0.383351 -0.242534
C84   C     C_3   0.989016 0.232926 0.186194 -0.354497
C85   C     C_3   0.995634 0.766894 0.712020 -0.234394
C86   C     C_3   0.488990 0.732900 0.185769 -0.353295
C87   C     C_R   0.385093 0.109191 0.650945 0.054956
C88   C     C_3   0.496177 0.266877 0.712135 -0.239013
C89   C     C_3   0.191316 0.512937 0.069719 0.754486
C90   C     C_3   0.188314 0.489756 0.558148 0.808846
C91   C     C_3   0.690017 0.011354 0.066117 0.741792
C92   C     C_3   0.690423 0.988451 0.567668 0.680340
C93   C     C_3   0.240437 0.536882 0.151201 0.235952
C94   C     C_3   0.239081 0.463672 0.613904 0.293602
C95   C     C_3   0.740355 0.035036 0.139649 0.199141
C96   C     C_3   0.740697 0.965228 0.644447 0.168412
C97   C     C_3   0.852802 0.531643 0.968953 0.311309
C98   C     C_R   0.843684 0.359074 0.102945 -0.119863
C99   C     C_3   0.852017 0.468668 0.469307 0.315234
C100  C     C_3   0.352773 0.031635 0.968987 0.311249
C101  C     C_3   0.352035 0.968657 0.469315 0.314944
C102  C     C_3   0.804374 0.562902 0.952419 -0.388546
C103  C     C_3   0.803404 0.437657 0.454976 -0.394844
C104  C     C_3   0.304329 0.062871 0.952510 -0.388324
C105  C     C_3   0.303423 0.937644 0.454949 -0.394283
C106  C     C_3   0.018016 0.290705 0.613232 0.398466
C107  C     C_3   0.017691 0.709798 0.125212 0.378285
C108  C     C_3   0.518048 0.790734 0.613153 0.398807
H1    H     H_    0.040307 0.317412 0.692254 0.087662
H2    H     H_    0.263006 0.461287 0.511691 -0.031941
H3    H     H_    0.493904 0.295860 0.619313 0.113317
H4    H     H_    0.023864 0.226396 0.271573 0.065106
H5    H     H_    0.032842 0.770521 0.788797 0.025931
H6    H     H_    0.523801 0.726297 0.271242 0.064499
H7    H     H_    0.533362 0.270457 0.789064 0.027127
H8    H     H_    0.177329 0.536099 0.965550 -0.050367
H9    H     H_    0.170931 0.469391 0.451492 -0.167276
H10   H     H_    0.675455 0.034029 0.961302 -0.055446
H11   H     H_    0.676348 0.965348 0.463392 -0.033391
H12   H     H_    0.305501 0.561967 0.096908 0.299375
H13   H     H_    0.732233 0.072680 0.177713 -0.029583
H14   H     H_    0.298115 0.469190 0.772050 0.314238
H15   H     H_    0.807174 0.053147 0.079294 0.304451
H16   H     H_    0.794253 0.991510 0.525869 0.313785
H17   H     H_    0.917853 0.288992 0.051556 0.268093
H18   H     H_    0.943852 0.680145 0.492781 0.322126
H19   H     H_    0.417935 0.789152 0.051320 0.268361
H20   H     H_    0.444234 0.180130 0.493222 0.321931
H21   H     H_    0.228275 0.436260 0.227021 -0.054364
H22   H     H_    0.218833 0.395716 0.059421 0.035510
H23   H     H_    0.163476 0.420045 0.140359 0.044139
H24   H     H_    0.732166 0.928745 0.690724 0.042105
H25   H     H_    0.207713 0.608850 0.565247 0.028562
H26   H     H_    0.154290 0.578804 0.639932 0.039915
H27   H     H_    0.219946 0.567064 0.728547 0.112862
H28   H     H_    0.732535 0.936076 0.221577 0.053786
H29   H     H_    0.716107 0.893713 0.062859 0.043423
H30   H     H_    0.665358 0.920250 0.161009 0.042234
H31   H     H_    0.715834 0.106121 0.560566 0.042511
H32   H     H_    0.663458 0.080099 0.652481 0.065076
H33   H     H_    0.729936 0.064592 0.723472 0.041546
H34   H     H_    0.867509 0.528404 0.850401 0.007458
H35   H     H_    0.866179 0.471783 0.349902 0.005756
H36   H     H_    0.367475 0.028414 0.850421 0.007355
H37   H     H_    0.366211 0.971770 0.349930 0.005696
H38   H     H_    0.882120 0.549312 0.055869 0.063578
H39   H     H_    0.881573 0.450897 0.555190 0.057402
H40   H     H_    0.382089 0.049309 0.055903 0.063506
H41   H     H_    0.039226 0.683149 0.206119 0.095232
H42   H     H_    0.381584 0.950891 0.555232 0.057366
H43   H     H_    0.774821 0.546463 0.863377 0.122431
H44   H     H_    0.773566 0.454242 0.367228 0.123612
H45   H     H_    0.274782 0.046430 0.863456 0.122749
H46   H     H_    0.273595 0.954221 0.367146 0.123920
H47   H     H_    0.813223 0.599917 0.911720 0.058802
H48   H     H_    0.811813 0.400612 0.413725 0.065118
H49   H     H_    0.313155 0.099895 0.911859 0.058793
H50   H     H_    0.311839 0.900596 0.413751 0.065066
H51   H     H_    0.788548 0.565740 0.070135 0.126710
H52   H     H_    0.540329 0.817442 0.692204 0.087027
H53   H     H_    0.788162 0.434895 0.573606 0.125420
H54   H     H_    0.288506 0.065686 0.070236 0.126720
H55   H     H_    0.288163 0.934893 0.573555 0.125636
H56   H     H_    0.019387 0.301133 0.485642 -0.106755
H57   H     H_    0.020902 0.699457 0.998565 -0.087706
H58   H     H_    0.519414 0.801178 0.485577 -0.107363
H59   H     H_    0.521107 0.199275 0.999110 -0.087633
H60   H     H_    0.083900 0.243131 0.606761 0.063359
H61   H     H_    0.083481 0.757917 0.127433 0.063189
H62   H     H_    0.583956 0.743197 0.606582 0.062105
H63   H     H_    0.539172 0.183101 0.206936 0.094876
H64   H     H_    0.583627 0.257752 0.128187 0.063888
H65   H     H_    0.044917 0.230869 0.768404 0.152565
H66   H     H_    0.042042 0.769892 0.282962 0.157456
H67   H     H_    0.544994 0.730895 0.768253 0.152546
H68   H     H_    0.542012 0.269887 0.283127 0.156780
H69   H     H_    0.954263 0.229188 0.251610 0.054873
H70   H     H_    0.963402 0.771504 0.787682 0.069007
H71   H     H_    0.454199 0.729159 0.251007 0.055486
H72   H     H_    0.463913 0.271553 0.787634 0.066796
H73   H     H_    0.175346 0.638416 0.207033 0.083571
H74   H     H_    0.258759 0.513443 0.248859 0.051110
H75   H     H_    0.175638 0.361766 0.707582 0.090302
H76   H     H_    0.675637 0.138173 0.207012 0.084279
H77   H     H_    0.676492 0.862340 0.706048 0.078834
H78   H     H_    0.260897 0.663021 0.158444 0.066819
H79   H     H_    0.261560 0.337849 0.659084 0.057597
H80   H     H_    0.761164 0.162968 0.158582 0.062864
H81   H     H_    0.762351 0.838271 0.656822 0.085286
H82   H     H_    0.830228 0.220038 0.244905 0.062906
H83   H     H_    0.831899 0.781497 0.741656 0.077949
H84   H     H_    0.330058 0.720017 0.244784 0.064120
H85   H     H_    0.230766 0.426233 0.652666 -0.061288
H86   H     H_    0.331255 0.281247 0.743308 0.071121
H87   H     H_    0.820996 0.365413 0.989132 0.079091
H88   H     H_    0.822831 0.635803 0.485508 0.079107
H89   H     H_    0.320965 0.865429 0.989128 0.079261
H90   H     H_    0.322679 0.135685 0.485781 0.078734
H91   H     H_    0.168654 0.781112 0.945696 0.061835
H92   H     H_    0.170380 0.219647 0.442334 0.061785
H93   H     H_    0.668776 0.280920 0.945543 0.061216
H94   H     H_    0.670704 0.720068 0.442117 0.061551
H95   H     H_    0.737735 0.338196 0.033050 0.059526
H96   H     H_    0.756648 0.014731 0.247733 0.091287
H97   H     H_    0.739996 0.663135 0.528262 0.058242
H98   H     H_    0.237701 0.838294 0.033167 0.060013
H99   H     H_    0.239833 0.162830 0.528125 0.058505
H100  H     H_    0.147481 0.715636 0.756657 0.073304
H101  H     H_    0.148858 0.285421 0.255127 0.073404
H102  H     H_    0.647795 0.215400 0.756497 0.072696
H103  H     H_    0.649210 0.785707 0.254347 0.072945
H104  H     H_    0.853247 0.284307 0.430749 0.082052
H105  H     H_    0.855240 0.717129 0.926515 0.073460
H106  H     H_    0.353225 0.784288 0.430675 0.082810
H107  H     H_    0.757876 0.986671 0.749068 0.123606
H108  H     H_    0.354989 0.216921 0.927026 0.071991
H109  H     H_    0.060825 0.587475 0.840862 0.074849
H110  H     H_    0.061282 0.412777 0.340957 0.071558
H111  H     H_    0.561156 0.087248 0.840667 0.075198
H112  H     H_    0.561017 0.912561 0.341484 0.071397
H113  H     H_    0.022027 0.213396 0.565405 0.108706
H114  H     H_    0.021702 0.787167 0.078117 0.109668
H115  H     H_    0.522096 0.713432 0.565244 0.109110
H116  H     H_    0.521915 0.287048 0.078024 0.107483
H117  H     H_    0.944723 0.408564 0.337981 0.056836
H118  H     H_    0.230304 0.571859 0.205748 -0.023692
H119  H     H_    0.944752 0.591212 0.838190 0.060911
H120  H     H_    0.444727 0.908534 0.337916 0.056653
H121  H     H_    0.444816 0.091283 0.838017 0.060810
H122  H     H_    0.988522 0.310296 0.214668 -0.153467
H123  H     H_    0.991386 0.689752 0.730940 -0.154174
H124  H     H_    0.488599 0.810255 0.214703 -0.154284
H125  H     H_    0.491804 0.189751 0.731178 -0.154859
H126  H     H_    0.987521 0.205180 0.089465 0.127610
H127  H     H_    0.993267 0.795890 0.619235 0.117183
H128  H     H_    0.487504 0.705203 0.088889 0.128094
O1    O     O_2   0.898940 0.431940 0.867860 -0.458673
O2    O     O_3   0.034777 0.711792 0.542039 -0.617883
O3    O     O_3   0.537608 0.787947 0.042455 -0.601844
O4    O     O_3   0.535312 0.211691 0.542415 -0.619145
O5    O     O_3   0.058810 0.523750 0.066650 -0.465682
O6    O     O_3   0.058810 0.476250 0.566650 -0.471620
O7    O     O_3   0.558810 0.023750 0.066650 -0.466692
O8    O     O_3   0.558810 0.976250 0.566650 -0.464840
O9    O     O_3   0.941140 0.476130 0.123050 -0.497259
O10   O     O_3   0.941140 0.523870 0.623050 -0.495119
O11   O     O_3   0.441140 0.976130 0.123050 -0.497433
O12   O     O_2   0.898940 0.568060 0.367860 -0.463444
O13   O     O_3   0.441140 0.023870 0.623050 -0.495114
O14   O     O_3   0.982430 0.389880 0.635700 -0.499638
O15   O     O_3   0.982430 0.610120 0.135700 -0.502554
O16   O     O_3   0.482430 0.889880 0.635700 -0.499798
O17   O     O_3   0.482430 0.110120 0.135700 -0.503314
O18   O     O_2   0.897971 0.349630 0.731294 -0.440364
O19   O     O_2   0.896518 0.649178 0.225714 -0.473115
O20   O     O_2   0.397981 0.849604 0.731265 -0.440228
O21   O     O_2   0.396573 0.149218 0.225954 -0.473444
O22   O     O_3   0.839682 0.485710 0.022979 -0.639836
O23   O     O_2   0.398940 0.931940 0.867860 -0.458754
O24   O     O_3   0.839383 0.514681 0.523719 -0.636280
O25   O     O_3   0.339672 0.985696 0.022985 -0.639725
O26   O     O_3   0.339391 0.014671 0.523696 -0.636210
O27   O     O_3   0.966812 0.287821 0.651388 -0.554083
O28   O     O_3   0.965799 0.712139 0.156875 -0.566752
O29   O     O_3   0.466845 0.787821 0.651309 -0.553600
O30   O     O_3   0.465811 0.212151 0.156629 -0.568301
O31   O     O_2   0.100770 0.431440 0.821660 -0.427299
O32   O     O_2   0.100770 0.568560 0.321660 -0.422161
O33   O     O_2   0.600770 0.931440 0.821660 -0.419749
O34   O     O_2   0.398940 0.068060 0.367860 -0.463438
O35   O     O_2   0.600770 0.068560 0.321660 -0.416692
O36   O     O_3   0.017130 0.389790 0.053700 -0.457212
O37   O     O_3   0.017130 0.610210 0.553700 -0.483764
O38   O     O_3   0.517130 0.889790 0.053700 -0.457371
O39   O     O_3   0.517130 0.110210 0.553700 -0.483637
O40   O     O_2   0.102413 0.350742 0.951131 -0.499078
O41   O     O_2   0.101416 0.650321 0.450364 -0.497265
O42   O     O_2   0.602442 0.850801 0.951073 -0.495488
O43   O     O_2   0.601698 0.150020 0.450482 -0.494938
O44   O     O_3   0.275338 0.545470 0.038159 -0.705743
O45   O     O_3   0.155308 0.490640 0.682814 -0.632955
O46   O     O_3   0.266500 0.488568 0.741205 -0.661783
O47   O     O_3   0.776342 0.036165 0.026594 -0.754227
O48   O     O_3   0.776136 0.959886 0.530828 -0.751024
O49   O     O_3   0.949744 0.290662 0.996957 -0.664493
O50   O     O_3   0.946518 0.714248 0.530748 -0.705565
O51   O     O_3   0.449842 0.790773 0.996793 -0.664111
O52   O     O_3   0.447036 0.214271 0.530778 -0.707437
O53   O     O_3   0.203207 0.467258 0.002926 -0.606508
O54   O     O_3   0.198946 0.537039 0.500693 -0.673644
O55   O     O_3   0.699881 0.964827 0.001741 -0.646552
O56   O     O_3   0.154173 0.508337 0.180999 -0.670273
O57   O     O_3   0.700412 0.034731 0.501760 -0.664594
O58   O     O_3   0.654211 0.991646 0.682418 -0.649601
O59   O     O_3   0.654329 0.008501 0.182479 -0.659739
O60   O     O_3   0.037510 0.287944 0.042391 -0.600793
P1    P     P_3+3 0.893960 0.447890 0.040050 0.991054
P2    P     P_3+3 0.064648 0.655518 0.582693 0.937779
P3    P     P_3+3 0.565503 0.845103 0.082618 0.978090
P4    P     P_3+3 0.564928 0.155285 0.582753 0.941657
P5    P     P_3+3 0.936351 0.656425 0.103291 0.962256
P6    P     P_3+3 0.936446 0.343526 0.604042 1.000579
P7    P     P_3+3 0.436348 0.156422 0.103320 0.960500
P8    P     P_3+3 0.436452 0.843516 0.603990 1.001012
P9    P     P_3+3 0.893960 0.552110 0.540050 0.978334
P10   P     P_3+3 0.393960 0.947890 0.040050 0.991043
P11   P     P_3+3 0.393960 0.052110 0.540050 0.978399
P12   P     P_3+3 0.105800 0.447360 0.649510 1.024059
P13   P     P_3+3 0.105800 0.552640 0.149510 1.011314
P14   P     P_3+3 0.605800 0.947360 0.649510 1.018918
P15   P     P_3+3 0.605800 0.052640 0.149510 1.018088
P16   P     P_3+3 0.065465 0.345070 0.082662 0.974705

loop_
_geom_bond_atom_site_label_1
_geom_bond_atom_site_label_2
_ccdc_geom_bond_type
C42   H93   S    
C17   C22   A    
O13   P11   S    
C66   P3    S    
Ba2   O37   S    
C51   O51   S    
C9    O54   S    
O20   P8    D    
C46   C55   A    
C9    H27   S    
C69   P15   S    
C88   H7    S    
C48   C57   A    
C91   C95   S    
C94   H2    S    
O9    P1    S    
C43   H116  S    
C96   H107  S    
C8    H23   S    
C40   H91   S    
C89   H8    S    
C81   H110  S    
C43   H64   S    
C44   C46   A    
C32   H67   S    
C106  O27   S    
C108  H52   S    
O7    P15   S    
C63   C81   A    
Ba3   P14   S    
O28   P5    S    
H16   O48   S    
C93   O44   S    
C6    C76   A    
C21   H66   S    
C30   C57   A    
C13   C17   A    
C89   O56   S    
C12   C76   A    
C15   C19   A    
Ba3   O13   S    
C76   P10   S    
C12   C16   A    
C6    H120  S    
C102  H51   S    
C49   O49   S    
C67   P13   S    
C91   H10   S    
C31   H78   S    
C18   C23   A    
Ba3   O8    S    
C50   O2    S    
Ba1   O14   S    
O37   P2    S    
C8    O53   S    
C104  H54   S    
O3    P3    S    
O39   P4    S    
C10   O55   S    
C70   P14   S    
C108  O29   S    
O6    P12   S    
H19   O51   S    
C80   H109  S    
O31   P12   D    
C27   C53   A    
C31   C36   A    
O27   P6    S    
Ba1   O5    S    
C98   H87   S    
C83   H112  S    
C100  H40   S    
C73   C78   A    
O60   P16   S    
C1    H113  S    
C92   O57   S    
C54   P1    S    
O15   P5    S    
C7    C87   A    
O2    P2    S    
C63   P16   S    
C11   O57   S    
C58   H100  S    
C99   C103  S    
C28   C55   A    
C71   C75   A    
C49   H122  S    
C5    C24   A    
C7    H121  S    
C2    C65   A    
C103  H53   S    
C39   C79   S    
C13   C87   A    
C51   H124  S    
C68   C81   A    
O19   P5    D    
C99   H35   S    
C2    C15   A    
C35   H81   S    
C60   C64   A    
Ba2   O5    S    
C61   H103  S    
C51   C86   S    
Ba4   P11   S    
C1    C106  S    
C61   C66   A    
C45   C53   A    
C14   C98   A    
Ba3   O16   S    
C29   H84   S    
C70   C83   A    
O32   P13   D    
O38   P3    S    
C52   O4    S    
C84   H126  S    
C8    H22   S    
C97   O22   S    
C74   H77   S    
C66   C83   A    
C90   O45   S    
H12   O44   S    
C58   C62   A    
C100  O25   S    
C46   H97   S    
C88   H72   S    
Ba2   O9    S    
C104  H45   S    
C41   C48   A    
C15   C55   S    
Ba4   O7    S    
C43   H68   S    
C21   H61   S    
C4    H117  S    
C30   H86   S    
C93   H118  S    
O40   P16   D    
C60   C78   A    
C36   C75   S    
C89   O53   S    
C19   C24   A    
C86   H71   S    
C107  H41   S    
C11   H31   S    
Ba1   P12   S    
C10   H28   S    
C22   C26   A    
C32   H115  S    
H14   O46   S    
Ba3   P10   S    
C82   H111  S    
Ba3   Ba4   S    
C89   C93   S    
C97   C102  S    
Ba4   O39   S    
C101  C105  S    
C69   C73   A    
C94   H85   S    
C14   C18   A    
Ba4   O35   S    
C3    O30   S    
C65   P9    S    
Ba1   O31   S    
Ba2   O32   S    
C104  H49   S    
C96   O48   S    
Ba3   O23   S    
C23   P6    S    
C9    H26   S    
C92   C96   S    
C29   C31   A    
C1    H60   S    
O14   P6    S    
C33   C37   A    
C21   C107  S    
C36   C40   A    
C73   H76   S    
O21   P7    D    
C47   C56   A    
C49   O60   S    
O41   P2    D    
C96   H24   S    
O43   P4    D    
C32   H62   S    
Ba4   O17   S    
C3    H59   S    
C30   C33   A    
C100  H36   S    
C47   H98   S    
Ba2   O15   S    
O58   P14   S    
C10   H30   S    
C103  H48   S    
C42   C45   A    
C51   O3    S    
C86   H6    S    
C5    C65   A    
C105  H50   S    
C90   C94   S    
C97   H38   S    
C38   C42   A    
C28   C35   A    
C20   C25   A    
Ba1   O36   S    
C4    C54   A    
C74   C79   A    
O10   P9    S    
C108  H58   S    
C7    C26   A    
Ba2   P9    S    
O8    P14   S    
C32   C108  S    
C99   O24   S    
C54   C98   A    
C16   C56   S    
C17   C57   S    
C92   H11   S    
C99   H39   S    
C64   P4    S    
O12   P9    D    
Ba3   O7    S    
C28   H83   S    
Ba4   P15   S    
Ba3   O33   S    
C93   H74   S    
C52   H125  S    
C107  H57   S    
C25   P8    S    
C3    C43   S    
O24   P9    S    
C26   P7    S    
H15   O47   S    
C52   O52   S    
C14   C53   S    
C37   C77   S    
Ba2   P13   S    
C92   O58   S    
O17   P7    S    
C72   H75   S    
O42   P3    D    
O11   P10   S    
C12   H89   S    
C100  C104  S    
C62   P2    S    
Ba4   O11   S    
O16   P8    S    
C95   O47   S    
C27   C34   A    
C95   H96   S    
Ba4   O34   S    
C85   H70   S    
C90   O54   S    
Ba2   O6    S    
C37   C41   A    
C50   O50   S    
C2    H88   S    
C19   H105  S    
C6    C25   A    
C84   H69   S    
C41   H92   S    
C13   H90   S    
C88   H3    S    
O4    P4    S    
C90   H9    S    
C70   C74   A    
C4    C23   A    
O25   P10   S    
C102  H47   S    
C91   O55   S    
O22   P1    S    
C18   H104  S    
C64   C82   A    
C24   P5    S    
C85   H127  S    
C38   C78   S    
C68   C72   A    
C95   H13   S    
C59   C77   A    
C60   H102  S    
C107  O28   S    
C34   C38   A    
Ba2   O12   S    
Ba1   O6    S    
C61   C79   A    
C21   H114  S    
Ba1   Ba2   S    
Ba4   O8    S    
O18   P6    D    
C106  H56   S    
C16   C20   A    
C3    H63   S    
C48   H99   S    
H20   O52   S    
O36   P16   S    
C105  H55   S    
C39   C44   A    
C103  H44   S    
O59   P15   S    
O33   P14   D    
C101  H42   S    
C10   H29   S    
H17   O49   S    
Ba1   P1    S    
C71   H73   S    
C50   H123  S    
C105  H46   S    
C59   C63   A    
C97   H34   S    
C22   H108  S    
C45   H95   S    
C58   C75   A    
C50   C85   S    
C11   H33   S    
Ba1   O10   S    
Ba3   O38   S    
C35   C39   A    
O35   P15   D    
C101  O26   S    
C9    H25   S    
C84   H4    S    
O29   P8    S    
O30   P7    S    
H18   O50   S    
C59   H101  S    
O26   P11   S    
C106  H1    S    
C1    H65   S    
Ba1   O1    S    
O34   P11   D    
C40   C47   A    
C33   H79   S    
C85   H5    S    
C34   H80   S    
C8    H21   S    
C68   P12   S    
O1    P1    D    
C67   C80   A    
O56   P13   S    
C91   O59   S    
C72   C77   A    
C27   H82   S    
O45   P12   S    
C87   P11   S    
C29   C56   A    
C101  H37   S    
C86   H128  S    
C5    H119  S    
O5    P13   S    
C67   C71   A    
C49   C84   S    
C69   C82   A    
C62   C80   A    
C11   H32   S    
C52   C88   S    
C102  H43   S    
C44   H94   S    
O23   P10   D    
C94   O46   S    
C20   H106  S    
