data_mof_unit_30015.cif
_audit_creation_date              2012-12-11T17:09:27-0500
_audit_creation_method            fapswitch 2.2
_symmetry_space_group_name_H-M    P1
_symmetry_Int_Tables_number       1
_space_group_crystal_system       triclinic
_cell_length_a                    14.808809
_cell_length_b                    6.98509
_cell_length_c                    13.556797
_cell_angle_alpha                 89.999753
_cell_angle_beta                  99.917255
_cell_angle_gamma                 89.999546
_cell_volume                      1381.37252746

loop_
_atom_site_label
_atom_site_type_symbol
_atom_type_description
_atom_site_fract_x
_atom_site_fract_y
_atom_site_fract_z
_atom_type_partial_charge
O1    O     O_R   0.586930 0.505770 0.416350 -0.542065
O2    O     O_R   0.413070 0.005770 0.583650 -0.542054
O3    O     O_R   0.397900 0.173100 0.389630 -0.537327
O4    O     O_R   0.602100 0.673100 0.610370 -0.537330
C1    C     C_R   0.365189 0.345458 0.361962 0.759841
C2    C     C_R   0.634812 0.845457 0.638037 0.759828
O5    O     O_R   0.585280 0.175870 0.404330 -0.521204
O6    O     O_R   0.414720 0.675870 0.595670 -0.521205
O7    O     O_R   0.601790 0.008380 0.598460 -0.527538
O8    O     O_R   0.398210 0.508380 0.401540 -0.527541
C3    C     C_R   0.617287 0.344841 0.386039 0.700045
C4    C     C_R   0.382713 0.844841 0.613961 0.700031
O9    O     O_3   0.505200 0.340120 0.563670 -0.365789
O10   O     O_3   0.494800 0.840120 0.436330 -0.365799
V1    V     V_3+5 0.499040 0.064180 0.488190 1.473152
V2    V     V_3+5 0.500960 0.564180 0.511810 1.473144
C5    C     C_R   0.249618 0.010725 0.676755 0.031168
C6    C     C_R   0.750385 0.510719 0.323249 0.031174
C7    C     C_R   0.308040 0.852615 0.675261 -0.108326
C8    C     C_R   0.691960 0.352616 0.324739 -0.108317
C9    C     C_R   0.293434 0.697230 0.735957 -0.169224
C10   C     C_R   0.706563 0.197237 0.264040 -0.169223
H1    H     H_    0.335834 0.573609 0.734992 0.132458
H2    H     H_    0.664161 0.073623 0.265004 0.132466
C11   C     C_R   0.229337 0.705786 0.801824 -0.211752
C12   C     C_R   0.770659 0.205796 0.198172 -0.211797
H3    H     H_    0.224053 0.587443 0.851479 0.157616
H4    H     H_    0.775941 0.087463 0.148513 0.157655
C13   C     C_R   0.177714 0.872372 0.809360 -0.060480
C14   C     C_R   0.822285 0.372376 0.190639 -0.060507
C15   C     C_R   0.188965 0.022200 0.745069 0.090977
C16   C     C_R   0.811038 0.522194 0.254936 0.090972
C17   C     C_3   0.213405 0.223634 0.773055 0.208829
C18   C     C_3   0.786612 0.723642 0.226967 0.208847
C19   C     C_3   0.271983 0.217909 0.688906 -0.320909
C20   C     C_3   0.728028 0.717909 0.311110 -0.320906
H5    H     H_    0.151940 0.317445 0.757819 0.119903
H6    H     H_    0.848083 0.817430 0.242217 0.119898
H7    H     H_    0.346657 0.244646 0.708404 0.128707
H8    H     H_    0.653355 0.744661 0.291609 0.128696
C21   C     C_1   0.783034 0.877183 0.783458 -0.172244
C22   C     C_1   0.216966 0.377182 0.216541 -0.172242
C23   C     C_1   0.715485 0.860131 0.717655 -0.194658
C24   C     C_1   0.284515 0.360132 0.282344 -0.194665
O11   O     O_R   0.101720 0.231700 0.098560 -0.531941
O12   O     O_R   0.898280 0.731700 0.901440 -0.531940
O13   O     O_R   0.914700 0.558980 0.095690 -0.523977
O14   O     O_R   0.085300 0.058980 0.904310 -0.523985
C25   C     C_R   0.885946 0.388880 0.117536 0.717213
C26   C     C_R   0.114054 0.888879 0.882464 0.717219
O15   O     O_R   0.102080 0.561590 0.110390 -0.542162
O16   O     O_R   0.897920 0.061590 0.889610 -0.542162
O17   O     O_R   0.086950 0.728940 0.916330 -0.549329
O18   O     O_R   0.913050 0.228940 0.083670 -0.549326
C27   C     C_R   0.136102 0.391973 0.137169 0.740394
C28   C     C_R   0.863898 0.891974 0.862831 0.740399
O19   O     O_3   0.994770 0.394510 0.936380 -0.372203
O20   O     O_3   0.005230 0.894510 0.063620 -0.372200
V3    V     V_3+5 0.000970 0.670520 0.011800 1.473120
V4    V     V_3+5 0.999030 0.170520 0.988200 1.473116
O21   O     O_3   0.252866 0.224741 0.877073 -0.572021
C29   C     C_3   0.346154 0.274359 0.902913 0.092137
H9    H     H_    0.354629 0.336353 0.979009 0.137511
H10   H     H_    0.368044 0.386717 0.855745 0.095797
C30   C     C_3   0.407973 0.098027 0.908564 -0.300479
H11   H     H_    0.388577 0.994983 0.963701 0.199284
H12   H     H_    0.399650 0.025965 0.835190 0.193570
C31   C     C_3   0.508545 0.153113 0.938523 -0.870154
H13   H     H_    0.525586 0.277842 0.894281 0.234666
H14   H     H_    0.551821 0.031806 0.922499 0.222686
H15   H     H_    0.524109 0.187618 0.019652 0.234772
O22   O     O_3   0.747161 0.724798 0.122947 -0.572023
C32   C     C_3   0.653870 0.774386 0.097099 0.092120
H16   H     H_    0.645395 0.836420 0.021013 0.137532
H17   H     H_    0.631962 0.886703 0.144275 0.095797
C33   C     C_3   0.592067 0.598036 0.091420 -0.300489
H18   H     H_    0.611486 0.495014 0.036289 0.199298
H19   H     H_    0.600376 0.525963 0.164790 0.193580
C34   C     C_3   0.491496 0.653097 0.061434 -0.870247
H20   H     H_    0.474428 0.777768 0.105692 0.234670
H21   H     H_    0.448226 0.531758 0.077410 0.222710
H22   H     H_    0.475954 0.687668 0.980314 0.234790
C35   C     C_2   0.226335 0.323031 0.595791 0.765507
O23   O     O_2   0.143464 0.310605 0.567066 -0.552135
O24   O     O_R   0.278922 0.432991 0.541749 -0.648058
H23   H     H_    0.240142 0.502479 0.483737 0.284656
C36   C     C_2   0.773675 0.823007 0.404232 0.765527
O25   O     O_2   0.856538 0.810508 0.432981 -0.552137
O26   O     O_R   0.721096 0.933031 0.458252 -0.648069
H24   H     H_    0.759877 0.002495 0.516272 0.284661

loop_
_geom_bond_atom_site_label_1
_geom_bond_atom_site_label_2
_ccdc_geom_bond_type
C36   O25   D    
O11   V4    S    
O12   V3    S    
C32   H17   S    
C32   H16   S    
O1    C3    A    
C33   C34   S    
O2    C4    A    
C2    O7    A    
O17   V3    S    
O13   C25   A    
O18   V4    S    
O24   H23   S    
O5    C3    A    
C7    C9    A    
C33   H19   S    
O19   V3    S    
O20   V4    S    
C25   O18   A    
C29   H10   S    
O16   V4    S    
C17   C19   S    
C31   H13   S    
C30   H12   S    
C15   C17   S    
O10   V2    S    
C6    C8    A    
O14   C26   A    
O6    V2    S    
C21   C23   T    
C22   C24   T    
O14   V4    S    
C13   C26   S    
C20   C36   S    
C11   C13   A    
C3    C8    S    
C26   O17   A    
C20   H8    S    
C33   H18   S    
O4    C2    A    
C34   H21   S    
C19   C35   S    
O19   V4    S    
O15   C27   A    
O20   V3    S    
C17   H5    S    
C16   C18   S    
O4    V2    S    
C19   H7    S    
C21   C28   S    
C29   H9    S    
C22   C27   S    
C35   O23   D    
O6    C4    A    
C30   C31   S    
O1    V2    S    
O2    V1    S    
C17   O21   S    
C35   O24   S    
C1    C24   S    
C8    C10   A    
C12   C14   A    
C2    C23   S    
O9    V1    S    
C5    C15   A    
C32   C33   S    
C10   H2    S    
O15   V3    S    
C18   O22   S    
O3    V1    S    
C9    C11   A    
C29   C30   S    
C18   H6    S    
C14   C25   S    
O22   C32   S    
O3    C1    A    
C34   H22   S    
C11   H3    S    
C12   H4    S    
C9    H1    S    
O7    V1    S    
C1    O8    A    
C13   C15   A    
O8    V2    S    
C14   C16   A    
C31   H15   S    
C4    C7    S    
O5    V1    S    
C5    C7    A    
C18   C20   S    
O21   C29   S    
O13   V3    S    
C34   H20   S    
C6    C16   A    
O11   C27   A    
C31   H14   S    
C30   H11   S    
C10   C12   A    
O9    V2    S    
O12   C28   A    
C36   O26   S    
O10   V1    S    
C5    C19   S    
O26   H24   S    
C6    C20   S    
O16   C28   A    
