data_mof_unit_59953.cif
_audit_creation_date              2012-12-10T20:41:50-0500
_audit_creation_method            fapswitch 2.2
_symmetry_space_group_name_H-M    P1
_symmetry_Int_Tables_number       1
_space_group_crystal_system       triclinic
_cell_length_a                    14.767038
_cell_length_b                    15.378384
_cell_length_c                    9.998577
_cell_angle_alpha                 89.331458
_cell_angle_beta                  90.154041
_cell_angle_gamma                 90.048237
_cell_volume                      2270.44513602

loop_
_atom_site_label
_atom_site_type_symbol
_atom_type_description
_atom_site_fract_x
_atom_site_fract_y
_atom_site_fract_z
_atom_type_partial_charge
C1    C     C_R   0.383396 0.876944 0.500034 0.905382
C2    C     C_R   0.389269 0.127753 0.500042 0.859066
C3    C     C_R   0.880823 0.379991 0.500586 0.899046
C4    C     C_R   0.882229 0.621910 0.499522 0.870111
C5    C     C_3   0.381102 0.317793 0.693464 -0.249852
C6    C     C_3   0.284664 0.784200 0.748625 -0.305261
C7    C     C_3   0.776872 0.706281 0.750339 -0.321235
C8    C     C_3   0.898813 0.178627 0.611377 -0.295216
C9    C     C_R   0.422774 0.980624 0.069742 0.046254
C10   C     C_R   0.920328 0.497208 0.069834 0.045786
C11   C     C_R   0.578311 0.011118 0.070472 -0.005144
C12   C     C_R   0.079216 0.500007 0.070611 0.023635
C13   C     C_R   0.577211 0.011948 0.927364 -0.000104
C14   C     C_R   0.078051 0.500183 0.927451 -0.012291
C15   C     C_R   0.422321 0.982948 0.927965 0.109685
C16   C     C_R   0.920830 0.495685 0.928458 0.076196
C17   C     C_3   0.335506 0.034392 0.921038 -0.182156
C18   C     C_3   0.850432 0.424965 0.921287 -0.155988
C19   C     C_3   0.332070 0.024808 0.075638 -0.158027
C20   C     C_3   0.845895 0.429291 0.076270 -0.203448
C21   C     C_R   0.619893 0.119209 0.499768 0.856384
C22   C     C_R   0.623294 0.883511 0.500228 0.881063
C23   C     C_R   0.123726 0.616177 0.499667 0.908128
C24   C     C_R   0.122616 0.382515 0.500385 0.939751
C25   C     C_R   0.320642 0.253366 0.620879 0.052886
C26   C     C_R   0.313878 0.751906 0.615405 0.167677
C27   C     C_R   0.808044 0.740916 0.617115 0.194413
C28   C     C_R   0.823266 0.242501 0.584838 0.086176
C29   C     C_R   0.341880 0.210925 0.501205 -0.086323
C30   C     C_R   0.332123 0.797956 0.497799 -0.140872
C31   C     C_R   0.828389 0.698739 0.498059 -0.132394
C32   C     C_R   0.813199 0.315466 0.502858 -0.052946
C33   C     C_R   0.313370 0.249426 0.381832 -0.134465
C34   C     C_R   0.302226 0.764533 0.375328 -0.173435
C35   C     C_R   0.799971 0.735265 0.375882 -0.203993
C36   C     C_R   0.732587 0.329073 0.431881 -0.234298
C37   C     C_R   0.736510 0.801223 0.376214 -0.189141
C38   C     C_R   0.668224 0.263354 0.428559 -0.122942
C39   C     C_R   0.237796 0.301412 0.379439 -0.122790
C40   C     C_R   0.237696 0.699401 0.375329 -0.160264
C41   C     C_R   0.702022 0.830054 0.498814 -0.146340
C42   C     C_R   0.684109 0.186603 0.501223 -0.042489
C43   C     C_R   0.200395 0.327251 0.500445 -0.065610
C44   C     C_R   0.204116 0.667865 0.497859 -0.098237
C45   C     C_R   0.746101 0.807067 0.617385 0.123266
C46   C     C_R   0.758320 0.179583 0.586336 0.085487
C47   C     C_R   0.250591 0.314944 0.617670 0.064052
C48   C     C_R   0.251011 0.685962 0.616010 0.132481
C49   C     C_3   0.709638 0.782008 0.752370 -0.305970
C50   C     C_3   0.825054 0.107787 0.613486 -0.304269
C51   C     C_3   0.304998 0.383788 0.687472 -0.274328
C52   C     C_3   0.216578 0.709821 0.752209 -0.322266
H1    H     H_    0.349491 0.241503 0.292110 0.219261
H2    H     H_    0.321735 0.793502 0.280458 0.162551
H3    H     H_    0.820584 0.708727 0.280789 0.171257
H4    H     H_    0.720864 0.389068 0.377376 0.181761
H5    H     H_    0.709334 0.823622 0.281147 0.167141
H6    H     H_    0.607379 0.271712 0.368994 0.212830
H7    H     H_    0.210997 0.323048 0.283772 0.191386
H8    H     H_    0.208640 0.680303 0.280487 0.161506
H9    H     H_    0.637665 0.760785 0.748190 0.185780
H10   H     H_    0.815168 0.078804 0.714804 0.197397
H11   H     H_    0.276205 0.397707 0.787617 0.181980
H12   H     H_    0.144971 0.732308 0.750120 0.185026
H13   H     H_    0.394080 0.300426 0.799267 0.198680
H14   H     H_    0.249118 0.846510 0.739108 0.153275
H15   H     H_    0.741738 0.642980 0.741562 0.126007
H16   H     H_    0.929766 0.187446 0.711489 0.176399
H17   H     H_    0.638893 0.023265 0.871838 0.189579
H18   H     H_    0.140341 0.496577 0.871670 0.171499
N1    N     N_R   0.499140 0.000000 0.142800 -0.114874
N2    N     N_R   0.999140 0.500000 0.142800 -0.123445
N3    N     N_R   0.499160 0.000000 0.857150 -0.091473
N4    N     N_R   0.999160 0.500000 0.857150 -0.091052
O1    O     O_R   0.408400 0.908380 0.614690 -0.619142
O2    O     O_R   0.408400 0.091620 0.614690 -0.613542
O3    O     O_R   0.908400 0.408380 0.614690 -0.631622
O4    O     O_R   0.908400 0.591620 0.614690 -0.608995
O5    O     O_R   0.408370 0.908370 0.385350 -0.620835
O6    O     O_R   0.408370 0.091630 0.385350 -0.585756
O7    O     O_R   0.908370 0.408370 0.385350 -0.596332
O8    O     O_R   0.908370 0.591630 0.385350 -0.639688
O9    O     O_R   0.591610 0.091610 0.614650 -0.613289
O10   O     O_R   0.591610 0.908390 0.614650 -0.605611
O11   O     O_R   0.091610 0.591610 0.614650 -0.617565
O12   O     O_R   0.091610 0.408390 0.614650 -0.599907
O13   O     O_R   0.591590 0.091600 0.385310 -0.621812
O14   O     O_R   0.591590 0.908400 0.385310 -0.665837
O15   O     O_R   0.091590 0.591600 0.385310 -0.662042
O16   O     O_R   0.091590 0.408400 0.385310 -0.613711
Zn1   Zn    Zn3+2 0.500010 0.000000 0.653130 1.000125
Zn2   Zn    Zn3+2 0.000010 0.500000 0.653130 1.001322
Zn3   Zn    Zn3+2 0.499980 0.000000 0.346870 0.984136
Zn4   Zn    Zn3+2 0.999980 0.500000 0.346870 0.978187
C53   C     C_2   0.334494 0.111471 0.141560 0.502355
H19   H     H_    0.272964 0.137898 0.183707 0.076668
O17   O     O_2   0.403377 0.155664 0.135237 -0.543529
C54   C     C_2   0.263167 0.962266 0.134984 0.486738
H20   H     H_    0.257592 0.896852 0.096233 0.059011
O18   O     O_2   0.214071 0.983330 0.227233 -0.565997
C55   C     C_2   0.760736 0.468502 0.133538 0.353388
H21   H     H_    0.762482 0.532333 0.178883 0.070124
O19   O     O_2   0.689184 0.428700 0.130636 -0.503564
C56   C     C_2   0.870598 0.343792 0.144911 0.555797
H22   H     H_    0.817402 0.300630 0.180138 0.108661
O20   O     O_2   0.949330 0.320022 0.154508 -0.473317
C57   C     C_2   0.726908 0.849473 0.858134 0.485823
H23   H     H_    0.699634 0.839364 0.957752 0.032174
O21   O     O_2   0.772113 0.914372 0.834356 -0.561601
C58   C     C_2   0.829819 0.039575 0.505884 0.422104
H24   H     H_    0.841209 0.972247 0.534491 0.092325
O22   O     O_2   0.823422 0.059036 0.387440 -0.518237
C59   C     C_2   0.327798 0.466895 0.611062 0.580667
H25   H     H_    0.375388 0.512122 0.654988 0.118768
O23   O     O_2   0.296353 0.483668 0.500822 -0.592132
C60   C     C_2   0.234299 0.643179 0.860544 0.461573
H26   H     H_    0.197502 0.647673 0.953887 0.055483
O24   O     O_2   0.292429 0.587508 0.848318 -0.559313
C61   C     C_2   0.469257 0.339624 0.622904 0.429192
H27   H     H_    0.532269 0.336490 0.678797 0.119017
O25   O     O_2   0.471088 0.360415 0.504661 -0.544769
C62   C     C_2   0.358592 0.782925 0.853760 0.542215
H28   H     H_    0.341063 0.793886 0.957411 0.003649
O26   O     O_2   0.437649 0.770101 0.824268 -0.565568
C63   C     C_2   0.849003 0.706030 0.857987 0.509512
H29   H     H_    0.830126 0.690502 0.960317 0.010305
O27   O     O_2   0.928062 0.722279 0.832044 -0.545928
C64   C     C_2   0.970159 0.169886 0.503987 0.536753
H30   H     H_    0.022583 0.121091 0.516645 0.064567
O28   O     O_2   0.970260 0.215828 0.403707 -0.508457
C65   C     C_2   0.666535 0.021901 0.138396 0.458433
H31   H     H_    0.676272 0.000780 0.240249 0.141925
O29   O     O_2   0.731201 0.053518 0.079390 -0.522062
C66   C     C_2   0.168270 0.494285 0.138693 0.376033
H32   H     H_    0.175281 0.504263 0.244111 0.157981
O30   O     O_2   0.236796 0.476863 0.076425 -0.549151
C67   C     C_2   0.349441 0.126842 0.871448 0.503820
H33   H     H_    0.290770 0.167505 0.851949 0.038555
O31   O     O_2   0.425280 0.158096 0.862211 -0.535532
C68   C     C_2   0.261857 0.994245 0.838246 0.244454
H34   H     H_    0.273384 0.986821 0.731994 0.112279
O32   O     O_2   0.186953 0.978189 0.883651 -0.548150
C69   C     C_2   0.768443 0.454068 0.842625 0.368644
H35   H     H_    0.775128 0.504464 0.767147 0.065512
O33   O     O_2   0.696134 0.416248 0.854412 -0.521820
C70   C     C_2   0.884378 0.338168 0.870164 0.502892
H36   H     H_    0.836109 0.285897 0.855602 0.067336
O34   O     O_2   0.964815 0.324191 0.851893 -0.540986

loop_
_geom_bond_atom_site_label_1
_geom_bond_atom_site_label_2
_ccdc_geom_bond_type
C21   O13   A    
O3    Zn2   S    
C55   H21   S    
O8    Zn4   S    
C57   O21   D    
C53   H19   S    
C64   H30   S    
C56   O20   D    
C19   C53   S    
C49   C57   S    
C67   O31   D    
C28   C46   A    
C33   C39   A    
C5    C61   S    
C2    C29   S    
C16   N4    A    
C32   C36   A    
C18   C69   S    
C35   C37   A    
C68   O32   D    
O5    Zn3   S    
C48   C52   S    
C11   N1    A    
C22   C41   S    
C69   H35   S    
C29   C33   A    
C50   C58   S    
C7    C27   S    
C60   H26   S    
C69   O33   D    
C9    C19   S    
C42   C46   A    
N4    Zn2   S    
O15   Zn4   S    
C58   H24   S    
C38   H6    S    
O11   Zn2   S    
C21   O9    A    
C10   C20   S    
C3    O7    A    
C57   H23   S    
C23   O15   A    
O10   Zn1   S    
C22   O14   A    
C25   C47   A    
C18   C20   S    
C26   C48   A    
N2    Zn4   S    
C27   C45   A    
C61   O25   D    
C12   N2    A    
C55   O19   D    
C12   C66   S    
C33   H1    S    
C14   H18   S    
C56   H22   S    
C19   C54   S    
C8    C64   S    
O16   Zn4   S    
C70   O34   D    
C52   C60   S    
C25   C29   A    
C49   H9    S    
C30   C34   A    
C27   C31   A    
C1    O1    A    
C28   C32   A    
C51   H11   S    
C68   H34   S    
N3    Zn1   S    
C5    H13   S    
C52   H12   S    
O14   Zn3   S    
C66   O30   D    
C20   C55   S    
C65   O29   D    
C35   H3    S    
C23   C44   S    
C24   O12   A    
C24   O16   A    
C22   O10   A    
C4    O4    A    
C36   H4    S    
C6    H14   S    
C39   H7    S    
C45   C49   S    
C51   C59   S    
C7    C63   S    
C7    C49   S    
C59   H25   S    
C5    C25   S    
C15   N3    A    
C12   C14   A    
C8    H16   S    
C54   O18   D    
C63   H29   S    
C50   H10   S    
C34   C40   A    
C6    C62   S    
C62   O26   D    
C65   H31   S    
C3    O3    A    
C8    C50   S    
C2    O2    A    
C70   H36   S    
C15   C17   S    
C14   N4    A    
O6    Zn3   S    
C9    N1    A    
C13   N3    A    
C18   C70   S    
C64   O28   D    
C47   C51   S    
C61   H27   S    
C53   O17   D    
C38   C42   A    
C66   H32   S    
N1    Zn3   S    
O1    Zn1   S    
O9    Zn1   S    
C67   H33   S    
C46   C50   S    
C17   C67   S    
O4    Zn2   S    
C36   C38   A    
C9    C15   A    
C11   C65   S    
C10   C16   A    
O7    Zn4   S    
C11   C13   A    
C34   H2    S    
C6    C26   S    
C13   H17   S    
C1    O5    A    
O13   Zn3   S    
C1    C30   S    
C17   C19   S    
C60   O24   D    
C17   C68   S    
C31   C35   A    
C37   C41   A    
C3    C32   S    
C58   O22   D    
C4    C31   S    
C2    O6    A    
C20   C56   S    
O2    Zn1   S    
C7    H15   S    
C21   C42   S    
C40   C44   A    
C4    O8    A    
C39   C43   A    
C8    C28   S    
C16   C18   S    
C54   H20   S    
C23   O11   A    
C40   H8    S    
C63   O27   D    
C24   C43   S    
C41   C45   A    
C5    C51   S    
O12   Zn2   S    
C6    C52   S    
C62   H28   S    
C43   C47   A    
C37   H5    S    
C44   C48   A    
C59   O23   D    
C26   C30   A    
C10   N2    A    
