data_mof_unit_54761.cif
_audit_creation_date              2012-12-10T16:37:34-0500
_audit_creation_method            fapswitch 2.2
_symmetry_space_group_name_H-M    P1
_symmetry_Int_Tables_number       1
_space_group_crystal_system       triclinic
_cell_length_a                    10.941324
_cell_length_b                    10.822438
_cell_length_c                    15.386282
_cell_angle_alpha                 96.439149
_cell_angle_beta                  74.864175
_cell_angle_gamma                 98.850991
_cell_volume                      1732.81683262

loop_
_atom_site_label
_atom_site_type_symbol
_atom_type_description
_atom_site_fract_x
_atom_site_fract_y
_atom_site_fract_z
_atom_type_partial_charge
C1    C     C_R   0.159544 0.479199 0.519216 0.911057
C2    C     C_R   0.559035 0.496196 0.106657 -0.129859
C3    C     C_R   0.597089 0.285552 0.125564 0.112322
C4    C     C_R   0.842267 0.520803 0.480460 0.838806
C5    C     C_R   0.418477 0.577892 0.842918 -0.162706
C6    C     C_2   0.978826 0.527298 0.474199 -0.249147
C7    C     C_2   0.023707 0.466730 0.530474 -0.033007
C8    C     C_2   0.553393 0.971770 0.476955 -0.010883
C9    C     C_2   0.457434 0.034256 0.524472 -0.359395
C10   C     C_R   0.465577 0.167740 0.522001 0.871601
C11   C     C_R   0.532966 0.834846 0.481157 0.877516
C12   C     C_R   0.367410 0.717022 0.979732 -0.116530
C13   C     C_R   0.557103 0.442342 0.258288 0.820383
C14   C     C_R   0.444615 0.553887 0.742676 0.792208
C15   C     C_R   0.578022 0.246024 0.038847 -0.017503
C16   C     C_R   0.580630 0.410189 0.160554 -0.082915
C17   C     C_R   0.379875 0.695159 0.886446 0.148076
C18   C     C_3   0.638978 0.197471 0.180070 -0.411331
C19   C     C_3   0.777856 0.236497 0.183605 -0.865107
C20   C     C_3   0.940638 0.385728 0.605301 -0.369215
C21   C     C_3   0.013857 0.327373 0.659341 -0.882898
C22   C     C_3   0.676578 0.044662 0.422480 -0.418467
C23   C     C_R   0.407522 0.636084 0.026751 -0.220395
C24   C     C_3   0.783907 0.969887 0.370079 -0.788265
C25   C     C_1   0.606400 0.122833 0.997827 0.127610
C26   C     C_1   0.593504 0.628628 0.129380 0.195495
C27   C     C_3   0.351364 0.795240 0.834243 -0.341869
C28   C     C_3   0.319482 0.919436 0.887370 -0.918098
C29   C     C_1   0.374124 0.296788 0.802655 0.189939
C30   C     C_1   0.065661 0.601588 0.404831 0.166654
C31   C     C_R   0.459496 0.527813 0.983326 0.088927
C32   C     C_R   0.442086 0.487997 0.895958 0.015818
C33   C     C_R   0.515907 0.451854 0.028049 0.025668
C34   C     C_R   0.529543 0.326186 0.992864 0.045808
C35   C     C_R   0.489039 0.281049 0.914398 -0.253017
C36   C     C_R   0.442442 0.358590 0.867771 0.016365
H1    H     H_    0.366945 0.986169 0.560759 0.156061
H2    H     H_    0.078414 0.264102 0.614368 0.262771
H3    H     H_    0.070169 0.401617 0.694072 0.262940
H4    H     H_    0.944986 0.271185 0.711461 0.258730
H5    H     H_    0.875457 0.444265 0.654698 0.242700
H6    H     H_    0.883910 0.306738 0.574751 0.236048
H7    H     H_    0.814472 0.915812 0.416142 0.268893
H8    H     H_    0.753781 0.907024 0.315148 0.283799
H9    H     H_    0.867702 0.035877 0.338186 0.229161
H10   H     H_    0.651391 0.097764 0.373246 0.205161
H11   H     H_    0.717474 0.114035 0.469683 0.221595
H12   H     H_    0.488935 0.183076 0.890320 0.159068
H13   H     H_    0.228169 0.904725 0.939820 0.263874
H14   H     H_    0.397680 0.962587 0.918936 0.269743
H15   H     H_    0.308220 0.985660 0.840678 0.264548
H16   H     H_    0.436357 0.818727 0.777949 0.220565
H17   H     H_    0.268398 0.756548 0.806124 0.236925
H18   H     H_    0.391343 0.657127 0.098792 0.158684
H19   H     H_    0.329854 0.798905 0.017739 0.164062
H20   H     H_    0.840971 0.236992 0.114136 0.274242
H21   H     H_    0.789983 0.331251 0.218728 0.255802
H22   H     H_    0.807145 0.168841 0.220974 0.251062
H23   H     H_    0.577099 0.195588 0.249697 0.214780
H24   H     H_    0.629561 0.098636 0.151797 0.226266
N1    N     N_1   0.629476 0.024728 0.965188 -0.204483
N2    N     N_1   0.621556 0.734077 0.147595 -0.197905
N3    N     N_1   0.318999 0.246950 0.751015 -0.232594
N4    N     N_1   0.134787 0.660656 0.349631 -0.207009
O1    O     O_3   0.500000 0.500000 0.500000 -0.483046
O2    O     O_R   0.463530 0.379110 0.309170 -0.647543
O3    O     O_R   0.388210 0.611730 0.699360 -0.665004
O4    O     O_R   0.624720 0.532760 0.292120 -0.632859
O5    O     O_R   0.523540 0.476390 0.699360 -0.624534
O6    O     O_R   0.537910 0.240570 0.564270 -0.634431
O7    O     O_R   0.438950 0.782540 0.540270 -0.660477
O8    O     O_R   0.222350 0.398740 0.468260 -0.644174
O9    O     O_R   0.800790 0.578160 0.427210 -0.635114
O10   O     O_R   0.212140 0.566330 0.564260 -0.646104
O11   O     O_R   0.764730 0.456770 0.540270 -0.667723
O12   O     O_R   0.412790 0.208310 0.468260 -0.645011
O13   O     O_R   0.610350 0.768590 0.427210 -0.635269
Zn1   Zn    Zn3+2 0.580150 0.419820 0.574680 0.957720
Zn2   Zn    Zn3+2 0.401380 0.373730 0.437510 0.970773
Zn3   Zn    Zn3+2 0.631680 0.593260 0.413140 0.974432
Zn4   Zn    Zn3+2 0.386790 0.613180 0.574670 0.959231

loop_
_geom_bond_atom_site_label_1
_geom_bond_atom_site_label_2
_ccdc_geom_bond_type
C19   H20   S    
O4    Zn3   S    
C29   N3    T    
O1    Zn2   S    
C30   N4    T    
O6    Zn1   S    
C35   C36   A    
O12   Zn2   S    
C20   H5    S    
C19   H21   S    
O2    Zn2   S    
C29   C36   S    
C24   H9    S    
C32   C36   A    
C18   C19   S    
O8    Zn2   S    
C28   H15   S    
C11   O7    A    
C15   C25   S    
C5    C17   A    
C3    C18   S    
C34   C35   A    
C4    O11   A    
C11   O13   A    
C10   O12   A    
C21   H2    S    
C8    C9    D    
C12   C17   A    
C8    C22   S    
C14   O3    A    
C31   C33   A    
C2    C16   A    
C9    C10   S    
C15   C34   A    
C5    C32   A    
C22   H11   S    
O1    Zn3   S    
O5    Zn1   S    
C28   H14   S    
C35   H12   S    
C13   O2    A    
C19   H22   S    
C1    O8    A    
C17   C27   S    
C4    C6    S    
C12   C23   A    
C23   C31   A    
C28   H13   S    
O1    Zn4   S    
C31   C32   A    
C21   H3    S    
C9    H1    S    
C33   C34   A    
C5    C14   S    
C2    C26   S    
C25   N1    T    
C4    O9    A    
C10   O6    A    
C2    C33   A    
C18   H24   S    
C22   H10   S    
O3    Zn4   S    
C24   H8    S    
C14   O5    A    
C22   C24   S    
C1    O10   A    
O10   Zn4   S    
C3    C15   A    
C27   H16   S    
C23   H18   S    
O13   Zn3   S    
O1    Zn1   S    
C6    C30   S    
C1    C7    S    
C20   H6    S    
C27   H17   S    
C6    C7    D    
C26   N2    T    
C21   H4    S    
C8    C11   S    
O9    Zn3   S    
O11   Zn1   S    
C12   H19   S    
C18   H23   S    
C20   C21   S    
C7    C20   S    
C13   C16   S    
C27   C28   S    
C24   H7    S    
C3    C16   A    
O7    Zn4   S    
C13   O4    A    
