data_mof_unit_39407.cif
_audit_creation_date              2012-12-10T18:10:19-0500
_audit_creation_method            fapswitch 2.2
_symmetry_space_group_name_H-M    P1
_symmetry_Int_Tables_number       1
_space_group_crystal_system       triclinic
_cell_length_a                    10.732501
_cell_length_b                    9.423068
_cell_length_c                    15.885882
_cell_angle_alpha                 89.587203
_cell_angle_beta                  90.073897
_cell_angle_gamma                 89.941126
_cell_volume                      1606.54438576

loop_
_atom_site_label
_atom_site_type_symbol
_atom_type_description
_atom_site_fract_x
_atom_site_fract_y
_atom_site_fract_z
_atom_type_partial_charge
C1    C     C_R   0.259709 0.499853 0.500645 0.789762
C2    C     C_3   0.629329 0.469798 0.951276 -0.539334
C3    C     C_3   0.629066 0.471260 0.048959 -0.428644
C4    C     C_1   0.498730 0.499103 0.824846 -0.021674
C5    C     C_1   0.497753 0.503467 0.175106 -0.068375
C6    C     C_1   0.498794 0.502178 0.250629 -0.203287
C7    C     C_3   0.072421 0.581361 0.578775 -0.443346
C8    C     C_3   0.071903 0.344541 0.506181 -0.418142
C9    C     C_3   0.928434 0.585091 0.577800 0.536525
C10   C     C_3   0.929213 0.343918 0.507419 0.537791
C11   C     C_3   0.071254 0.570116 0.419906 -0.408840
C12   C     C_3   0.121804 0.499125 0.501376 0.025723
C13   C     C_3   0.878108 0.498701 0.501955 -0.056679
C14   C     C_R   0.499732 0.500553 0.340256 0.807713
C15   C     C_3   0.927485 0.567743 0.419570 -0.632654
C16   C     C_3   0.620082 0.083234 0.533546 0.629342
C17   C     C_3   0.620576 0.915628 0.532747 0.588268
C18   C     C_3   0.399315 0.083335 0.555446 -0.230021
C19   C     C_3   0.400319 0.915857 0.556417 -0.224229
C20   C     C_3   0.480937 0.084514 0.416109 -0.371713
C21   C     C_3   0.479799 0.917367 0.416238 -0.359761
C22   C     C_R   0.740071 0.499698 0.500970 0.863919
C23   C     C_R   0.500051 0.499446 0.659803 0.888025
C24   C     C_3   0.453283 0.649502 0.048021 -0.407647
C25   C     C_3   0.405618 0.387351 0.051192 -0.467269
C26   C     C_3   0.408518 0.384553 0.952996 0.337265
C27   C     C_3   0.462913 0.654545 0.950209 0.317108
C28   C     C_1   0.499695 0.498170 0.749355 -0.131223
C29   C     C_3   0.496408 0.503101 0.082975 0.225958
C30   C     C_3   0.496587 0.503001 0.916964 0.156747
Cu1   Cu    Cu3+1 0.499860 0.642410 0.500040 0.950235
Cu2   Cu    Cu3+1 0.499860 0.357590 0.500040 0.969388
H1    H     H_    0.897158 0.697442 0.572071 0.108233
H2    H     H_    0.895151 0.281810 0.452641 0.034107
H3    H     H_    0.104172 0.681913 0.415494 0.186765
H4    H     H_    0.106989 0.513316 0.363663 0.172066
H5    H     H_    0.891737 0.678219 0.412964 0.198183
H6    H     H_    0.893724 0.507223 0.364118 0.182344
H7    H     H_    0.697710 0.120189 0.492695 0.021635
H8    H     H_    0.697431 0.880904 0.490724 -0.009488
H9    H     H_    0.408146 0.123566 0.620606 0.197761
H10   H     H_    0.411820 0.877071 0.622212 0.190501
H11   H     H_    0.391705 0.124957 0.389388 0.195904
H12   H     H_    0.389471 0.879041 0.390560 0.191604
H13   H     H_    0.556246 0.121919 0.373343 0.154056
H14   H     H_    0.553594 0.879256 0.372780 0.157801
H15   H     H_    0.306993 0.120247 0.532273 0.153508
H16   H     H_    0.307710 0.877425 0.535173 0.151004
H17   H     H_    0.356225 0.671393 0.068730 0.176990
H18   H     H_    0.311443 0.404009 0.077843 0.159720
H19   H     H_    0.435906 0.281999 0.076127 0.145580
H20   H     H_    0.512247 0.735040 0.075065 0.133967
H21   H     H_    0.456574 0.282883 0.938326 0.115620
H22   H     H_    0.542136 0.727858 0.935775 0.084805
H23   H     H_    0.695595 0.553173 0.071565 0.186333
H24   H     H_    0.662029 0.366724 0.073334 0.179076
H25   H     H_    0.697433 0.549302 0.927221 0.205249
H26   H     H_    0.661833 0.364351 0.928929 0.205569
H27   H     H_    0.108614 0.692030 0.578183 0.133004
H28   H     H_    0.104946 0.283003 0.450905 0.123520
H29   H     H_    0.106385 0.529831 0.637777 0.200384
H30   H     H_    0.108319 0.290490 0.563754 0.206001
N1    N     N_3   0.500250 0.143650 0.501830 -0.192896
N2    N     N_3   0.500250 0.856350 0.501830 -0.178560
O1    O     O_R   0.317570 0.620260 0.500050 -0.603129
O2    O     O_R   0.317570 0.379740 0.500050 -0.604605
O3    O     O_R   0.499890 0.620310 0.379470 -0.594344
O4    O     O_R   0.499890 0.379690 0.379470 -0.599333
O5    O     O_R   0.682190 0.620260 0.500020 -0.583419
O6    O     O_R   0.682190 0.379740 0.500020 -0.546091
O7    O     O_R   0.499870 0.620210 0.620600 -0.544074
O8    O     O_R   0.499870 0.379790 0.620600 -0.525579
O9    O     O_3   0.349586 0.706623 0.915433 -0.635151
C31   C     C_3   0.368770 0.797304 0.845059 0.040782
H31   H     H_    0.292235 0.777390 0.799478 0.164821
H32   H     H_    0.457349 0.776654 0.810771 0.155465
C32   C     C_3   0.363720 0.952794 0.871773 -0.350917
H33   H     H_    0.273145 0.974642 0.903000 0.236309
H34   H     H_    0.439946 0.974612 0.917288 0.204916
C33   C     C_3   0.377805 0.050842 0.795506 -0.867415
H35   H     H_    0.469129 0.032597 0.764527 0.288237
H36   H     H_    0.373169 0.163141 0.815283 0.286716
H37   H     H_    0.301505 0.031508 0.749697 0.239017
O10   O     O_3   0.292292 0.370355 0.910161 -0.627079
C34   C     C_3   0.194655 0.460320 0.936760 0.153202
H38   H     H_    0.163844 0.524218 0.881460 0.189593
H39   H     H_    0.219933 0.536189 0.986665 0.166274
C35   C     C_3   0.085268 0.369244 0.966596 -0.374302
H40   H     H_    0.054999 0.298626 0.914685 0.249881
H41   H     H_    0.115340 0.301596 0.020508 0.209774
C36   C     C_3   0.975252 0.460623 0.993831 -0.930653
H42   H     H_    0.002593 0.530161 0.046899 0.247638
H43   H     H_    0.897858 0.390961 0.014929 0.260986
H44   H     H_    0.942008 0.527270 0.940374 0.274603
F1    F     F_    0.644466 0.132368 0.613958 -0.568829
F2    F     F_    0.647371 0.862556 0.612376 -0.612406
F3    F     F_    0.882247 0.531764 0.653129 -0.604531
F4    F     F_    0.888057 0.276469 0.580167 -0.577636

loop_
_geom_bond_atom_site_label_1
_geom_bond_atom_site_label_2
_ccdc_geom_bond_type
C24   H20   S    
O9    C31   S    
C24   C27   S    
C18   H15   S    
C2    H25   S    
Cu2   O8    S    
C32   H33   S    
Cu1   O3    S    
C31   H32   S    
C11   H4    S    
C17   N2    S    
C5    C6    T    
C18   N1    S    
C34   C35   S    
C36   H43   S    
C7    C9    S    
C18   C19   S    
C3    C29   S    
C9    C13   S    
C25   H18   S    
C15   H5    S    
C21   N2    S    
C24   C29   S    
C11   C15   S    
C7    H29   S    
C16   C17   S    
C31   C32   S    
C1    O1    A    
C14   O3    A    
C16   N1    S    
C22   O5    A    
C20   H13   S    
C19   H10   S    
Cu2   O4    S    
Cu1   O7    S    
C27   C30   S    
C9    H1    S    
C1    C12   S    
C3    H23   S    
C33   H37   S    
C23   O8    A    
C7    H27   S    
C4    C28   T    
C5    C29   S    
C34   H39   S    
C25   C29   S    
C7    C12   S    
C27   H22   S    
C31   H31   S    
C23   O7    A    
O10   C34   S    
C33   H36   S    
C18   H9    S    
C36   H42   S    
C19   H16   S    
Cu2   O6    S    
C25   C26   S    
C34   H38   S    
C17   H8    S    
C25   H19   S    
C15   H6    S    
C6    C14   S    
C21   H12   S    
C3    H24   S    
Cu1   Cu2   S    
C35   C36   S    
C19   N2    S    
C8    C12   S    
C1    O2    A    
C32   H34   S    
C10   H2    S    
C17   F2    S    
C23   C28   S    
C35   H40   S    
C35   H41   S    
C26   C30   S    
C13   C15   S    
C26   H21   S    
C20   H11   S    
Cu2   O2    S    
C21   H14   S    
C32   C33   S    
C24   H17   S    
Cu1   O1    S    
C16   F1    S    
C9    F3    S    
Cu1   N2    S    
Cu2   N1    S    
C33   H35   S    
C10   C13   S    
C11   C12   S    
C2    H26   S    
C10   F4    S    
C2    C30   S    
C20   N1    S    
C11   H3    S    
C2    C3    S    
C8    H28   S    
C36   H44   S    
C26   O10   S    
C13   C22   S    
C16   H7    S    
Cu1   O5    S    
C20   C21   S    
C8    C10   S    
C14   O4    A    
C27   O9    S    
C22   O6    A    
C4    C30   S    
C8    H30   S    
