data_mof_unit_17561.cif
_audit_creation_date              2012-12-10T18:57:40-0500
_audit_creation_method            fapswitch 2.2
_symmetry_space_group_name_H-M    P1
_symmetry_Int_Tables_number       1
_space_group_crystal_system       triclinic
_cell_length_a                    10.907246
_cell_length_b                    10.808627
_cell_length_c                    9.605143
_cell_angle_alpha                 90.027933
_cell_angle_beta                  87.044903
_cell_angle_gamma                 90.316742
_cell_volume                      1130.84983204

loop_
_atom_site_label
_atom_site_type_symbol
_atom_type_description
_atom_site_fract_x
_atom_site_fract_y
_atom_site_fract_z
_atom_type_partial_charge
C1    C     C_R   0.498677 0.262512 0.499838 0.858461
C2    C     C_R   0.486743 0.129349 0.498367 -0.081430
C3    C     C_R   0.496546 0.063984 0.371854 -0.162951
C4    C     C_R   0.494435 0.935211 0.372777 -0.087508
C5    C     C_R   0.481378 0.870527 0.499671 -0.136277
C6    C     C_R   0.449303 0.937036 0.621190 0.131101
C7    C     C_3   0.492135 0.930546 0.766733 0.270882
C8    C     C_3   0.504480 0.071230 0.762362 -0.498126
C9    C     C_R   0.571045 0.582588 0.068438 0.165635
C10   C     C_R   0.424998 0.423276 0.078552 -0.010981
C11   C     C_R   0.425901 0.422382 0.930032 -0.039150
C12   C     C_R   0.265931 0.498125 0.503933 0.885659
C13   C     C_R   0.564404 0.587851 0.922492 0.221290
C14   C     C_3   0.696007 0.619791 0.898232 -0.569052
C15   C     C_3   0.709869 0.596376 0.052667 0.559713
C16   C     C_R   0.495880 0.737455 0.500354 0.873213
C17   C     C_R   0.734176 0.501239 0.496240 0.875972
C18   C     C_2   0.931208 0.574934 0.565439 -0.111843
C19   C     C_2   0.865650 0.505834 0.482458 -0.171227
C20   C     C_2   0.063234 0.585626 0.534991 0.287403
C21   C     C_2   0.134801 0.483811 0.518859 0.119307
C22   C     C_R   0.455854 0.064187 0.620343 0.065664
Cu1   Cu    Cu3+1 0.499990 0.499980 0.640670 1.036142
Cu2   Cu    Cu3+1 0.500010 0.500020 0.359330 1.088210
H1    H     H_    0.367656 0.357622 0.878066 0.174146
H2    H     H_    0.748993 0.557266 0.829029 0.240023
H3    H     H_    0.510329 0.886793 0.275225 0.240705
N1    N     N_R   0.500780 0.500930 0.147930 -0.200147
N2    N     N_R   0.500780 0.500890 0.852020 -0.181773
O1    O     O_R   0.500000 0.319640 0.618810 -0.585608
O2    O     O_R   0.500010 0.319680 0.381230 -0.582173
O3    O     O_R   0.321940 0.499980 0.618760 -0.537155
O4    O     O_R   0.321950 0.500020 0.381180 -0.571823
O5    O     O_R   0.499990 0.680320 0.618770 -0.561251
O6    O     O_R   0.500000 0.680360 0.381190 -0.553858
O7    O     O_R   0.678050 0.499980 0.618820 -0.614203
O8    O     O_R   0.678060 0.500020 0.381240 -0.509528
H4    H     H_    0.887059 0.633610 0.644715 0.179461
H5    H     H_    0.601532 0.103596 0.759952 0.189222
H6    H     H_    0.365678 0.359443 0.137209 0.166944
H7    H     H_    0.707158 0.717780 0.864976 0.220076
S1    S     S_3+6 0.797157 0.454877 0.077673 0.064218
O9    O     O_2   0.916240 0.486356 0.141318 -0.198340
O10   O     O_2   0.727124 0.364183 0.170078 -0.299942
O11   O     O_3   0.831702 0.381570 0.926164 -0.466850
H8    H     H_    0.754937 0.338759 0.902453 0.347115
S2    S     S_3+6 0.770134 0.732288 0.134521 0.062363
O12   O     O_2   0.762185 0.720977 0.290340 -0.290967
O13   O     O_2   0.902154 0.750016 0.085395 -0.184894
O14   O     O_3   0.689876 0.856805 0.088262 -0.564747
H9    H     H_    0.729425 0.927823 0.133696 0.387937
H10   H     H_    0.909671 0.460536 0.393014 0.225920
S3    S     S_3+6 0.122174 0.737978 0.512909 0.042162
O15   O     O_2   0.203823 0.767253 0.629624 -0.255785
O16   O     O_2   0.195148 0.747599 0.376213 -0.266802
O17   O     O_3   0.006152 0.839964 0.514988 -0.475109
H11   H     H_    0.046491 0.922144 0.506318 0.396590
S4    S     S_3+6 0.084484 0.329636 0.556847 0.012922
O18   O     O_2   0.984983 0.328145 0.671036 -0.231180
O19   O     O_2   0.037271 0.271704 0.427639 -0.269586
O20   O     O_3   0.203528 0.245669 0.608068 -0.542136
H12   H     H_    0.171507 0.159999 0.617720 0.395112
H13   H     H_    0.513058 0.111323 0.273222 0.193672
S5    S     S_3+6 0.372274 0.880528 0.889346 0.074709
O21   O     O_2   0.413762 0.900006 0.034392 -0.282658
O22   O     O_2   0.257826 0.954316 0.870468 -0.209334
O23   O     O_3   0.340939 0.729902 0.866043 -0.476758
H14   H     H_    0.282178 0.707563 0.944187 0.390716
H15   H     H_    0.580572 0.881310 0.774934 0.099649
H16   H     H_    0.441567 0.121887 0.836839 0.238839

loop_
_geom_bond_atom_site_label_1
_geom_bond_atom_site_label_2
_ccdc_geom_bond_type
C2    C22   A    
C8    C22   S    
Cu1   Cu2   S    
Cu1   O1    S    
C7    H15   S    
C6    C7    S    
C17   O7    A    
C3    H13   S    
C19   H10   S    
C8    H16   S    
S2    O12   D    
C15   S2    S    
S3    O15   D    
Cu1   O5    S    
C21   S4    S    
Cu1   O3    S    
C16   O5    A    
S4    O20   S    
C2    C3    A    
C9    C15   S    
Cu2   O2    S    
C7    C8    S    
S2    O13   D    
C17   O8    A    
C13   C14   S    
C12   O3    A    
C20   S3    S    
O20   H12   S    
S1    O10   D    
C12   O4    A    
C14   H7    S    
Cu1   N2    S    
S5    O21   D    
C13   N2    A    
C1    O1    A    
C17   C19   S    
C1    C2    S    
S2    O14   S    
C18   C20   S    
S3    O16   D    
C16   O6    A    
C18   H4    S    
C5    C6    A    
C9    N1    A    
C7    S5    S    
Cu2   O6    S    
C10   C11   A    
C11   H1    S    
S4    O19   D    
O23   H14   S    
C6    C22   A    
S5    O23   S    
Cu2   N1    S    
C1    O2    A    
C4    H3    S    
C20   C21   D    
C11   N2    A    
Cu2   O8    S    
Cu1   O7    S    
S1    O9    D    
S3    O17   S    
C10   N1    A    
O17   H11   S    
C8    H5    S    
C9    C13   A    
C14   C15   S    
C18   C19   D    
C10   H6    S    
O14   H9    S    
S4    O18   D    
O11   H8    S    
C12   C21   S    
C14   H2    S    
C3    C4    A    
Cu2   O4    S    
C15   S1    S    
C4    C5    A    
C5    C16   S    
S1    O11   S    
S5    O22   D    
