data_mof_unit_30590.cif
_audit_creation_date              2012-12-11T17:14:59-0500
_audit_creation_method            fapswitch 2.2
_symmetry_space_group_name_H-M    P1
_symmetry_Int_Tables_number       1
_space_group_crystal_system       triclinic
_cell_length_a                    7.22255
_cell_length_b                    12.164329
_cell_length_c                    21.318087
_cell_angle_alpha                 90.005956
_cell_angle_beta                  91.016617
_cell_angle_gamma                 90.027857
_cell_volume                      1872.65823136

loop_
_atom_site_label
_atom_site_type_symbol
_atom_type_description
_atom_site_fract_x
_atom_site_fract_y
_atom_site_fract_z
_atom_type_partial_charge
O1    O     O_R   0.354460 0.152320 0.595720 -0.533354
O2    O     O_R   0.645540 0.847680 0.404280 -0.533355
O3    O     O_R   0.145540 0.652320 0.404280 -0.533339
O4    O     O_R   0.854460 0.347680 0.595720 -0.533339
O5    O     O_R   0.683670 0.140090 0.727290 -0.538910
O6    O     O_R   0.316330 0.859910 0.272710 -0.538914
O7    O     O_R   0.816330 0.640090 0.272710 -0.538891
O8    O     O_R   0.183670 0.359910 0.727290 -0.538891
O9    O     O_R   0.854010 0.349340 0.727750 -0.536489
O10   O     O_R   0.145990 0.650660 0.272250 -0.536492
O11   O     O_R   0.645990 0.849340 0.272250 -0.536287
O12   O     O_R   0.354010 0.150660 0.727750 -0.536300
C1    C     C_R   0.517065 0.112113 0.746832 0.686052
C2    C     C_R   0.482937 0.887884 0.253168 0.686043
C3    C     C_R   0.982838 0.612097 0.253155 0.686229
C4    C     C_R   0.017161 0.387904 0.746845 0.686226
O13   O     O_R   0.684170 0.139420 0.596190 -0.536065
O14   O     O_R   0.315830 0.860580 0.403810 -0.536062
O15   O     O_R   0.815830 0.639420 0.403810 -0.536140
O16   O     O_R   0.184170 0.360580 0.596190 -0.536138
C5    C     C_R   0.514757 0.113149 0.574446 0.712165
C6    C     C_R   0.485242 0.886851 0.425554 0.712167
C7    C     C_R   0.985209 0.613144 0.425556 0.712115
C8    C     C_R   0.014791 0.386855 0.574444 0.712116
O17   O     O_3   0.520730 0.319480 0.661730 -0.376011
O18   O     O_3   0.479270 0.680520 0.338270 -0.376015
O19   O     O_3   0.979270 0.819480 0.338270 -0.375864
O20   O     O_3   0.020730 0.180520 0.661730 -0.375867
V1    V     V_3+5 0.795560 0.238090 0.661730 1.427263
V2    V     V_3+5 0.204440 0.761910 0.338270 1.427270
V3    V     V_3+5 0.704440 0.738090 0.338270 1.427269
V4    V     V_3+5 0.295560 0.261910 0.661730 1.427265
C9    C     C_R   0.016610 0.466585 0.798396 -0.031710
C10   C     C_R   0.983379 0.533419 0.201602 -0.031711
C11   C     C_R   0.484122 0.966413 0.201583 -0.030581
C12   C     C_R   0.515916 0.033573 0.798412 -0.030633
C13   C     C_R   0.083516 0.647842 0.838625 -0.168760
C14   C     C_R   0.916424 0.352167 0.161371 -0.168741
C15   C     C_R   0.427048 0.148956 0.161703 -0.169117
C16   C     C_R   0.573625 0.851092 0.838304 -0.169100
C17   C     C_R   0.066396 0.575859 0.788159 -0.178412
C18   C     C_R   0.933581 0.424145 0.211838 -0.178408
C19   C     C_R   0.441067 0.076584 0.212073 -0.178894
C20   C     C_R   0.559444 0.923450 0.787932 -0.178848
C21   C     C_R   0.984632 0.428810 0.859050 -0.218172
C22   C     C_R   0.015327 0.571201 0.140947 -0.218183
C23   C     C_R   0.512349 0.928097 0.140813 -0.217791
C24   C     C_R   0.487447 0.071862 0.859178 -0.217832
C25   C     C_R   0.006809 0.499102 0.911495 0.080351
C26   C     C_R   0.993111 0.500914 0.088500 0.080352
C27   C     C_R   0.493623 0.998922 0.088497 0.080969
C28   C     C_R   0.506549 0.001077 0.911501 0.080935
C29   C     C_R   0.056149 0.610297 0.900023 0.130331
C30   C     C_R   0.943766 0.389717 0.099973 0.130359
C31   C     C_R   0.451170 0.111033 0.100198 0.129876
C32   C     C_R   0.549318 0.888997 0.899806 0.129896
C33   C     C_R   0.985720 0.462211 0.974664 0.052802
C34   C     C_R   0.014176 0.537807 0.025331 0.052796
C35   C     C_R   0.512131 0.961834 0.025259 0.053200
C36   C     C_R   0.488126 0.038176 0.974741 0.053221
C37   C     C_R   0.061538 0.647823 0.011130 -0.194689
C38   C     C_R   0.938340 0.352197 0.988864 -0.194654
C39   C     C_R   0.447695 0.149087 0.989157 -0.195421
C40   C     C_R   0.552825 0.850951 0.010847 -0.195411
C41   C     C_R   0.081459 0.682944 0.949796 -0.199323
C42   C     C_R   0.918430 0.317074 0.050198 -0.199295
C43   C     C_R   0.429986 0.184347 0.050560 -0.200538
C44   C     C_R   0.570684 0.815704 0.949447 -0.200478
H1    H     H_    0.119166 0.767905 0.941309 0.140072
H2    H     H_    0.880715 0.232112 0.058685 0.140087
H3    H     H_    0.397699 0.270039 0.059214 0.139476
H4    H     H_    0.603252 0.730042 0.940797 0.139479
H5    H     H_    0.050486 0.656838 0.136614 0.099299
H6    H     H_    0.949486 0.343173 0.863384 0.099303
H7    H     H_    0.456531 0.158054 0.863651 0.098615
H8    H     H_    0.542745 0.841856 0.136329 0.098562
H9    H     H_    0.906213 0.395047 0.258803 0.106796
H10   H     H_    0.093780 0.604952 0.741195 0.106800
H11   H     H_    0.583796 0.893898 0.740848 0.106447
H12   H     H_    0.416940 0.106163 0.259162 0.106427
H13   H     H_    0.122450 0.732455 0.829808 0.125829
H14   H     H_    0.877483 0.267553 0.170187 0.125829
H15   H     H_    0.393594 0.234323 0.170700 0.125546
H16   H     H_    0.607399 0.765758 0.829313 0.125546
C45   C     C_1   0.995779 0.533148 0.478084 -0.177800
C46   C     C_1   0.004221 0.466852 0.521916 -0.177800
C47   C     C_1   0.504178 0.033151 0.521917 -0.177814
C48   C     C_1   0.495822 0.966849 0.478083 -0.177815
H17   H     H_    0.085581 0.709827 0.046307 0.129723
H18   H     H_    0.914271 0.290196 0.953687 0.129716
H19   H     H_    0.427834 0.211762 0.954108 0.129911
H20   H     H_    0.572966 0.788306 0.045900 0.129920

loop_
_geom_bond_atom_site_label_1
_geom_bond_atom_site_label_2
_ccdc_geom_bond_type
C47   C48   T    
C5    C47   S    
O1    C5    A    
C9    C21   A    
C16   H16   S    
O3    C7    A    
C10   C18   A    
C11   C23   A    
C25   C33   A    
C33   C38   A    
C45   C46   T    
C35   C40   A    
C26   C30   A    
C36   C39   A    
C40   C44   A    
O20   V1    S    
O9    C4    A    
C23   H8    S    
C14   C18   A    
O10   C3    A    
O4    C8    A    
O11   C2    A    
C25   C29   A    
C43   H3    S    
O13   V1    S    
C28   C36   A    
C15   C31   A    
O16   C8    A    
C16   C32   A    
O2    C6    A    
C10   C22   A    
C6    C48   S    
C11   C19   A    
C3    C10   S    
O5    C1    A    
O4    V1    S    
O9    V1    S    
C13   C29   A    
C34   C37   A    
O7    C3    A    
O15   V3    S    
C35   C36   A    
O8    C4    A    
O12   V4    S    
O19   V2    S    
C24   H7    S    
C13   H13   S    
C37   H17   S    
O5    V1    S    
C15   C19   A    
C39   C43   A    
O7    V3    S    
C38   C42   A    
O8    V4    S    
C1    C12   S    
C17   H10   S    
C23   C27   A    
C19   H12   S    
C32   C44   A    
O1    V4    S    
O13   C5    A    
O2    V3    S    
C26   C34   A    
O3    V2    S    
O15   C7    A    
C4    C9    S    
O6    C2    A    
O10   V2    S    
C14   C30   A    
C21   C25   A    
C44   H4    S    
O14   V2    S    
O6    V2    S    
C16   C20   A    
C12   C20   A    
C27   C35   A    
C40   H20   S    
C2    C11   S    
C29   C41   A    
O16   V4    S    
O14   C6    A    
O18   V3    S    
C20   H11   S    
C31   C43   A    
C30   C42   A    
C22   C26   A    
C9    C17   A    
C15   H15   S    
C33   C34   A    
C42   H2    S    
O17   V4    S    
C41   H1    S    
C38   H18   S    
C12   C24   A    
C27   C31   A    
C13   C17   A    
O11   V3    S    
C37   C41   A    
C24   C28   A    
O12   C1    A    
C18   H9    S    
C7    C45   S    
C39   H19   S    
C21   H6    S    
C8    C46   S    
C22   H5    S    
C14   H14   S    
C28   C32   A    
