data_mof_unit_12655.cif
_audit_creation_date              2012-12-10T19:45:45-0500
_audit_creation_method            fapswitch 2.2
_symmetry_space_group_name_H-M    P1
_symmetry_Int_Tables_number       1
_space_group_crystal_system       triclinic
_cell_length_a                    10.83205
_cell_length_b                    14.682488
_cell_length_c                    14.818315
_cell_angle_alpha                 65.057035
_cell_angle_beta                  103.32593
_cell_angle_gamma                 102.752571
_cell_volume                      2058.8887206

loop_
_atom_site_label
_atom_site_type_symbol
_atom_type_description
_atom_site_fract_x
_atom_site_fract_y
_atom_site_fract_z
_atom_type_partial_charge
C1    C     C_R   0.476671 0.119689 0.312674 0.841188
C2    C     C_R   0.580315 0.781812 0.971074 -0.144616
C3    C     C_R   0.415589 0.147505 0.130927 -0.167851
C4    C     C_R   0.578696 0.848677 0.870712 -0.163055
C5    C     C_R   0.482584 0.291829 0.178352 -0.197708
C6    C     C_R   0.494058 0.708153 0.819341 -0.102706
C7    C     C_R   0.459171 0.359209 0.077362 0.076214
C8    C     C_R   0.509447 0.638137 0.919574 0.090207
C9    C     C_R   0.430310 0.318257 0.002855 0.116099
C10   C     C_R   0.542701 0.677309 0.995774 0.043522
C11   C     C_R   0.474244 0.466169 0.048586 -0.123078
C12   C     C_R   0.521544 0.880218 0.687365 0.838578
C13   C     C_R   0.485436 0.531051 0.946181 -0.019026
C14   C     C_R   0.476383 0.486414 0.875374 0.427923
C15   C     C_R   0.480793 0.511085 0.118763 0.412346
C16   C     C_R   0.262850 0.999502 0.501876 0.832967
C17   C     C_R   0.737089 0.000578 0.497982 0.840152
C18   C     C_R   0.438101 0.381920 0.903167 -0.267570
C19   C     C_R   0.527275 0.613293 0.094310 -0.151020
C20   C     C_R   0.723183 0.289510 0.659804 -0.289430
C21   C     C_R   0.278790 0.711588 0.338432 -0.288180
C22   C     C_R   0.685383 0.205475 0.634274 0.086343
C23   C     C_R   0.870527 0.000745 0.496180 -0.049261
C24   C     C_R   0.315017 0.794766 0.365371 0.086500
C25   C     C_R   0.516499 0.284165 0.510953 0.046457
C26   C     C_R   0.484674 0.716455 0.488004 0.043534
C27   C     C_R   0.549679 0.372164 0.533570 0.011592
C28   C     C_R   0.453236 0.629415 0.463825 0.008112
C29   C     C_R   0.656200 0.373196 0.609504 0.158968
C30   C     C_R   0.347005 0.628553 0.387625 0.152181
C31   C     C_R   0.481706 0.458224 0.484282 0.142395
C32   C     C_R   0.522363 0.543981 0.512078 0.130223
C33   C     C_R   0.631293 0.541740 0.586402 -0.186354
C34   C     C_R   0.129311 0.999488 0.503396 -0.049860
C35   C     C_R   0.373731 0.460988 0.409075 -0.105615
C36   C     C_R   0.695800 0.457732 0.634484 -0.152949
C37   C     C_R   0.308893 0.544813 0.361297 -0.130735
C38   C     C_R   0.345389 0.057199 0.782961 -0.222290
C39   C     C_R   0.653709 0.949077 0.214449 -0.223215
C40   C     C_R   0.257454 0.015782 0.719981 0.418187
C41   C     C_R   0.742202 0.988482 0.278744 0.415182
C42   C     C_R   0.185042 0.079531 0.633135 -0.015289
C43   C     C_R   0.814527 0.923203 0.364475 -0.016194
C44   C     C_R   0.197165 0.183038 0.613952 -0.256898
C45   C     C_R   0.907241 0.961447 0.435696 0.077857
C46   C     C_R   0.801681 0.820253 0.381063 -0.259289
C47   C     C_R   0.282008 0.223093 0.679022 0.427523
C48   C     C_R   0.716006 0.782259 0.314679 0.429328
C49   C     C_R   0.358153 0.160631 0.762245 -0.241447
C50   C     C_R   0.639951 0.846178 0.232783 -0.240040
C51   C     C_R   0.963237 0.039822 0.558517 -0.212213
C52   C     C_R   0.036553 0.960434 0.440976 -0.215366
C53   C     C_R   0.092509 0.039261 0.563437 0.077951
C54   C     C_R   0.458057 0.186810 0.205708 -0.026582
C55   C     C_R   0.532754 0.812073 0.794202 -0.048297
C56   C     C_R   0.404611 0.212909 0.029903 -0.151836
Cl1   Cl    Cl    0.235197 0.883643 0.754366 -0.657263
Cl2   Cl    Cl    0.764903 0.120174 0.247336 -0.650039
Cl3   Cl    Cl    0.288957 0.350801 0.657893 -0.696302
Cl4   Cl    Cl    0.707591 0.655372 0.332214 -0.651889
Cu1   Cu    Cu3+1 0.466270 0.918260 0.475690 0.970816
Cu2   Cu    Cu3+1 0.533730 0.081740 0.524310 0.970633
H1    H     H_    0.425449 0.191684 0.811929 0.157518
H2    H     H_    0.737060 0.140832 0.672749 0.123191
H3    H     H_    0.804574 0.289231 0.718281 0.154248
H4    H     H_    0.197716 0.712046 0.279673 0.154255
H5    H     H_    0.669527 0.603958 0.609712 0.150373
H6    H     H_    0.335989 0.399070 0.385287 0.137905
H7    H     H_    0.402172 0.008868 0.849187 0.168423
H8    H     H_    0.597182 0.998581 0.149030 0.168421
H9    H     H_    0.139735 0.232309 0.548860 0.182889
H10   H     H_    0.858973 0.769817 0.445198 0.183277
H11   H     H_    0.934828 0.068878 0.605817 0.155229
H12   H     H_    0.571894 0.816643 0.182275 0.157078
H13   H     H_    0.065001 0.931514 0.393587 0.154757
H14   H     H_    0.426244 0.348858 0.848262 0.180532
H15   H     H_    0.538801 0.644622 0.150621 0.200688
H16   H     H_    0.444027 0.683963 0.759772 0.215227
H17   H     H_    0.525306 0.320226 0.236479 0.209475
H18   H     H_    0.608401 0.928976 0.853007 0.145554
H19   H     H_    0.395339 0.066441 0.150289 0.145855
H20   H     H_    0.499374 0.500678 0.742777 0.352418
H21   H     H_    0.357512 0.411661 0.198049 0.314873
H22   H     H_    0.378985 0.181068 0.973021 0.135562
H23   H     H_    0.608954 0.811954 0.029207 0.136151
H24   H     H_    0.778088 0.459141 0.691879 0.157578
H25   H     H_    0.227077 0.543643 0.303470 0.151284
H26   H     H_    0.563051 0.723677 0.545255 0.133349
H27   H     H_    0.437663 0.276627 0.454138 0.124940
H28   H     H_    0.262701 0.859073 0.327479 0.122555
N1    N     N_R   0.584450 0.204570 0.560790 -0.186082
N2    N     N_R   0.415550 0.795430 0.439210 -0.186024
O1    O     O_R   0.455540 0.022090 0.338120 -0.592974
O2    O     O_3   0.432990 0.460583 0.208330 -0.745889
O3    O     O_R   0.544460 0.977910 0.661880 -0.590612
O4    O     O_R   0.512510 0.160150 0.379180 -0.582590
O5    O     O_R   0.487490 0.839850 0.620820 -0.582136
O6    O     O_R   0.291160 0.930970 0.479480 -0.582196
O7    O     O_R   0.708840 0.069030 0.520520 -0.580188
O8    O     O_R   0.348130 0.069020 0.520540 -0.592177
O9    O     O_R   0.651870 0.930980 0.479460 -0.590272
O10   O     O_3   0.515669 0.543088 0.782671 -0.761979

loop_
_geom_bond_atom_site_label_1
_geom_bond_atom_site_label_2
_ccdc_geom_bond_type
C8    C13   A    
C23   C45   A    
Cu2   O4    S    
C21   H4    S    
C27   C29   A    
C14   C18   A    
C2    C4    A    
Cu1   O6    S    
C6    C55   A    
C52   H13   S    
C15   O2    S    
C47   C49   A    
C38   C49   A    
C7    C11   A    
C29   C36   A    
C17   C23   S    
C2    H23   S    
C49   H1    S    
C35   C37   A    
C41   Cl2   S    
C4    H18   S    
C50   H12   S    
C42   C53   S    
C3    C54   A    
Cu1   O1    S    
C14   O10   S    
C26   N2    A    
C33   C36   A    
C44   H9    S    
C19   H15   S    
C17   O9    A    
C16   C34   S    
C15   C19   A    
C11   C15   A    
C3    H19   S    
C22   N1    A    
C12   O3    A    
C48   Cl4   S    
C5    H17   S    
C46   H10   S    
C44   C47   A    
C40   C42   A    
C38   H7    S    
C13   C14   A    
C41   C43   A    
C42   C44   A    
C24   N2    A    
C56   H22   S    
C20   C29   A    
C46   C48   A    
C25   N1    A    
C27   C31   A    
C20   H3    S    
C28   C32   A    
C39   C41   A    
C5    C7    A    
C16   O8    A    
C6    C8    A    
C25   H27   S    
C45   C52   A    
C36   H24   S    
H21   O2    S    
C47   Cl3   S    
C1    O1    A    
C30   C37   A    
C51   C53   A    
Cu1   O9    S    
C1    C54   S    
C17   O7    A    
C3    C56   A    
C5    C54   A    
C23   C51   A    
C31   C32   A    
C10   C19   A    
Cu2   N1    S    
H20   O10   S    
C9    C56   A    
C43   C45   S    
C12   O5    A    
Cu2   O8    S    
C26   H26   S    
C20   C22   A    
C4    C55   A    
C31   C35   A    
C2    C10   A    
C33   H5    S    
C7    C9    A    
C18   H14   S    
C40   Cl1   S    
C26   C28   A    
C37   H25   S    
Cu1   O5    S    
C51   H11   S    
C24   H28   S    
Cu1   N2    S    
C25   C27   A    
C21   C30   A    
C34   C52   A    
C32   C33   A    
C28   C30   A    
C38   C40   A    
C11   C13   A    
C16   O6    A    
C35   H6    S    
C1    O4    A    
C48   C50   A    
C39   H8    S    
Cu1   Cu2   S    
C43   C46   A    
C12   C55   S    
C6    H16   S    
C22   H2    S    
Cu2   O7    S    
C9    C18   A    
C39   C50   A    
C34   C53   A    
C8    C10   A    
C21   C24   A    
Cu2   O3    S    
