data_mof_unit_20073.cif
_audit_creation_date              2012-12-10T16:44:41-0500
_audit_creation_method            fapswitch 2.2
_symmetry_space_group_name_H-M    P1
_symmetry_Int_Tables_number       1
_space_group_crystal_system       triclinic
_cell_length_a                    14.981756
_cell_length_b                    8.709255
_cell_length_c                    7.50409
_cell_angle_alpha                 102.723319
_cell_angle_beta                  94.655109
_cell_angle_gamma                 93.4844
_cell_volume                      948.819870684

loop_
_atom_site_label
_atom_site_type_symbol
_atom_type_description
_atom_site_fract_x
_atom_site_fract_y
_atom_site_fract_z
_atom_type_partial_charge
C1    C     C_R   0.495909 0.200433 0.454590 0.851485
C2    C     C_R   0.504091 0.799567 0.545410 0.851485
C3    C     C_R   0.031995 0.229091 0.318790 0.385072
C4    C     C_R   0.968005 0.770909 0.681210 0.385072
C5    C     C_2   0.481454 0.034138 0.435061 0.147990
C6    C     C_2   0.518546 0.965862 0.564939 0.147990
C7    C     C_R   0.329416 0.501645 0.501920 0.841924
C8    C     C_R   0.670584 0.498355 0.498080 0.841924
C9    C     C_R   0.820190 0.630004 0.587792 -0.183293
C10   C     C_R   0.179810 0.369995 0.412208 -0.183293
C11   C     C_R   0.766667 0.495793 0.494068 -0.124309
C12   C     C_R   0.233333 0.504207 0.505932 -0.124310
C13   C     C_R   0.804389 0.361199 0.400845 0.358252
C14   C     C_R   0.195611 0.638801 0.599155 0.358252
C15   C     C_R   0.898360 0.361860 0.403765 -0.018251
C16   C     C_R   0.101639 0.638140 0.596235 -0.018251
C17   C     C_R   0.952930 0.499101 0.498364 -0.013615
C18   C     C_R   0.047070 0.500899 0.501636 -0.013615
C19   C     C_R   0.913421 0.634486 0.589820 0.029500
C20   C     C_R   0.086579 0.365514 0.410180 0.029500
C21   C     C_R   0.939027 0.228403 0.315659 -0.112341
C22   C     C_R   0.060972 0.771597 0.684341 -0.112341
Cu1   Cu    Cu3+1 0.510010 0.517380 0.684380 1.203473
Cu2   Cu    Cu3+1 0.489990 0.482620 0.315620 1.203473
H1    H     H_    0.787801 0.730965 0.657689 0.222513
H2    H     H_    0.212199 0.269035 0.342311 0.222513
N1    N     N_2   0.474890 0.456420 0.038520 0.125583
N2    N     N_2   0.525110 0.543580 0.961480 0.125583
O1    O     O_R   0.506510 0.286130 0.619770 -0.550480
O2    O     O_R   0.493490 0.713870 0.380230 -0.550480
O3    O     O_R   0.489600 0.256770 0.308360 -0.516303
O4    O     O_R   0.510400 0.743230 0.691640 -0.516303
O5    O     O_R   0.378710 0.514640 0.655720 -0.536436
O6    O     O_R   0.621290 0.485360 0.344280 -0.536436
O7    O     O_R   0.361800 0.485290 0.344300 -0.558385
O8    O     O_R   0.638200 0.514710 0.655700 -0.558385
Cl1   Cl    Cl    0.733065 0.191572 0.288136 -0.496652
Cl2   Cl    Cl    0.266935 0.808428 0.711864 -0.496652
H3    H     H_    0.899258 0.121685 0.243671 0.248121
H4    H     H_    0.100742 0.878314 0.756329 0.248121
Cl3   Cl    Cl    0.076811 0.054396 0.207621 -0.511940
Cl4   Cl    Cl    0.923189 0.945604 0.792379 -0.511940
Cl5   Cl    Cl    0.401255 0.936010 0.251298 -0.431334
Cl6   Cl    Cl    0.598745 0.063990 0.748702 -0.431334
Cl7   Cl    Cl    0.394280 0.318145 0.908016 -0.360573
Cl8   Cl    Cl    0.605720 0.681855 0.091984 -0.360573

loop_
_geom_bond_atom_site_label_1
_geom_bond_atom_site_label_2
_ccdc_geom_bond_type
Cu1   Cu2   S    
C14   Cl2   S    
C4    C22   A    
C9    C11   A    
C13   Cl1   S    
C21   H3    S    
Cu2   N1    S    
C1    O3    A    
C2    O2    A    
C22   H4    S    
Cu1   O4    S    
C10   H2    S    
C1    O1    A    
C17   C18   A    
C5    Cl5   S    
Cu2   O3    S    
C9    H1    S    
C3    C20   A    
C6    Cl6   S    
Cu1   N2    S    
C11   C13   A    
N2    Cl8   S    
C2    C6    S    
C10   C12   A    
C8    C11   S    
C1    C5    S    
Cu1   O1    S    
C16   C18   A    
C17   C19   A    
C12   C14   A    
C18   C20   A    
C13   C15   A    
C5    C6    D    
C4    Cl4   S    
C14   C16   A    
C7    C12   S    
C3    C21   A    
Cu2   O7    S    
N1    Cl7   S    
C7    O5    A    
Cu2   O2    S    
C15   C21   A    
C2    O4    A    
Cu1   O8    S    
C8    O8    A    
N1    N2    D    
C15   C17   A    
C3    Cl3   S    
C16   C22   A    
C8    O6    A    
C4    C19   A    
C7    O7    A    
C9    C19   A    
Cu2   O6    S    
C10   C20   A    
Cu1   O5    S    
