data_mof_unit_20407.cif
_audit_creation_date              2012-12-10T16:45:21-0500
_audit_creation_method            fapswitch 2.2
_symmetry_space_group_name_H-M    P1
_symmetry_Int_Tables_number       1
_space_group_crystal_system       triclinic
_cell_length_a                    7.41698
_cell_length_b                    8.683903
_cell_length_c                    15.709675
_cell_angle_alpha                 94.119937
_cell_angle_beta                  75.716771
_cell_angle_gamma                 103.015849
_cell_volume                      955.221531712

loop_
_atom_site_label
_atom_site_type_symbol
_atom_type_description
_atom_site_fract_x
_atom_site_fract_y
_atom_site_fract_z
_atom_type_partial_charge
C1    C     C_R   0.544924 0.800228 0.502786 0.883026
C2    C     C_R   0.454817 0.199756 0.497553 0.890248
C3    C     C_R   0.243719 0.507093 0.093695 -0.210393
C4    C     C_R   0.641941 0.771688 0.958346 -0.246307
C5    C     C_R   0.116958 0.478841 0.039100 -0.210687
C6    C     C_R   0.764721 0.813969 0.013965 -0.223069
C7    C     C_2   0.570383 0.967956 0.504252 -0.377939
C8    C     C_2   0.428991 0.031985 0.496551 -0.379635
C9    C     C_R   0.387560 0.499152 0.667263 0.787221
C10   C     C_R   0.615193 0.513924 0.333691 0.784531
C11   C     C_R   0.324371 0.514251 0.764801 -0.078238
C12   C     C_R   0.683516 0.556831 0.240857 -0.088680
C13   C     C_R   0.059950 0.459044 0.893335 -0.202005
C14   C     C_R   0.870882 0.762246 0.139996 -0.196315
C15   C     C_R   0.128754 0.466275 0.802797 -0.241602
C16   C     C_R   0.840000 0.682911 0.217551 -0.229523
C17   C     C_R   0.453916 0.572013 0.820764 0.028511
C18   C     C_R   0.564870 0.500712 0.182272 0.033717
C19   C     C_R   0.377350 0.578413 0.914010 0.043825
C20   C     C_R   0.575968 0.598764 0.111279 0.058084
C21   C     C_R   0.183776 0.506315 0.948814 0.140066
C22   C     C_R   0.738337 0.724494 0.088060 0.135637
C23   C     C_R   0.489858 0.639559 0.975418 0.047564
C24   C     C_R   0.437244 0.575504 0.060340 0.053780
Cu1   Cu    Cu3+1 0.322120 0.483240 0.490330 0.937129
Cu2   Cu    Cu3+1 0.677880 0.516760 0.509670 0.926453
H1    H     H_    0.968095 0.428707 0.066921 0.147413
H2    H     H_    0.882706 0.914935 0.997944 0.146911
H3    H     H_    0.933080 0.725403 0.261522 0.165268
H4    H     H_    0.028465 0.424665 0.762098 0.160821
H5    H     H_    0.909758 0.411064 0.920041 0.132344
H6    H     H_    0.993076 0.859035 0.122861 0.141406
H7    H     H_    0.185926 0.487097 0.162960 0.152760
H8    H     H_    0.663150 0.845986 0.903522 0.173777
H9    H     H_    0.706764 0.039098 0.511529 0.177474
H10   H     H_    0.292535 0.960822 0.489375 0.179460
H11   H     H_    0.005950 0.617246 0.567937 0.226925
H12   H     H_    0.994738 0.383165 0.431603 0.223662
N1    N     N_2   0.945180 0.542040 0.524240 -0.223356
N2    N     N_2   0.054820 0.457960 0.475760 -0.215887
O1    O     O_R   0.384450 0.714270 0.493720 -0.578215
O2    O     O_R   0.615550 0.285730 0.506280 -0.579204
O3    O     O_R   0.684880 0.742590 0.510050 -0.600767
O4    O     O_R   0.315120 0.257410 0.489950 -0.585548
O5    O     O_R   0.265540 0.477900 0.617090 -0.588810
O6    O     O_R   0.734460 0.522100 0.382910 -0.587006
O7    O     O_R   0.565970 0.506210 0.633420 -0.591828
O8    O     O_R   0.434030 0.493790 0.366580 -0.576222
C25   C     C_3   0.453716 0.328834 0.190792 -0.385541
C26   C     C_3   0.505180 0.230459 0.106478 -0.363830
C27   C     C_3   0.412062 0.055860 0.121149 -0.834637
H13   H     H_    0.475976 0.004971 0.166520 0.258817
H14   H     H_    0.256870 0.041672 0.149550 0.244434
H15   H     H_    0.433719 0.990092 0.057552 0.254198
H16   H     H_    0.456513 0.271488 0.052484 0.230022
H17   H     H_    0.662095 0.242855 0.085468 0.210710
H18   H     H_    0.488776 0.270628 0.243563 0.191194
H19   H     H_    0.298333 0.319697 0.211960 0.191122
C28   C     C_3   0.671431 0.599989 0.784800 -0.369863
C29   C     C_3   0.759218 0.758580 0.736373 -0.336729
C30   C     C_3   0.967995 0.818567 0.739210 -0.874104
H20   H     H_    0.052389 0.729275 0.709683 0.256407
H21   H     H_    0.027833 0.929247 0.701396 0.243184
H22   H     H_    0.981423 0.843753 0.807916 0.261609
H23   H     H_    0.753932 0.746327 0.666595 0.251266
H24   H     H_    0.677892 0.850524 0.764410 0.199993
H25   H     H_    0.743928 0.591608 0.837372 0.203504
H26   H     H_    0.712127 0.499170 0.743130 0.201465

loop_
_geom_bond_atom_site_label_1
_geom_bond_atom_site_label_2
_ccdc_geom_bond_type
C10   O6    A    
C30   H22   S    
C19   C23   A    
C23   C24   A    
C9    O5    A    
C19   C21   A    
C14   C16   A    
C6    H2    S    
C28   H26   S    
C1    O3    A    
C26   H16   S    
C20   C22   A    
C3    C5    A    
C27   H15   S    
C14   C22   A    
C26   C27   S    
Cu1   Cu2   S    
C29   H24   S    
C28   C29   S    
H11   N1    S    
Cu1   O1    S    
H12   N2    S    
C9    C11   S    
Cu1   O8    S    
C7    H9    S    
C3    C24   A    
C10   C12   S    
Cu2   O7    S    
C2    O2    A    
C1    C7    S    
Cu1   O4    S    
C1    O1    A    
Cu2   O3    S    
C17   C19   A    
C17   C28   S    
C29   H23   S    
C9    O7    A    
C18   C20   A    
C13   C15   A    
Cu1   N2    S    
C10   O8    A    
C30   H20   S    
C20   C24   A    
C4    H8    S    
Cu2   N1    S    
C3    H7    S    
C13   C21   A    
C27   H13   S    
C6    C22   A    
Cu1   O5    S    
C7    C8    D    
C25   H18   S    
C2    O4    A    
Cu2   O2    S    
C15   H4    S    
C4    C6    A    
C25   C26   S    
C8    H10   S    
C12   C18   A    
N1    N2    D    
C30   H21   S    
C4    C23   A    
Cu2   O6    S    
C11   C17   A    
C2    C8    S    
C28   H25   S    
C16   H3    S    
C5    H1    S    
C11   C15   A    
C13   H5    S    
C26   H17   S    
C25   H19   S    
C12   C16   A    
C18   C25   S    
C14   H6    S    
C29   C30   S    
C27   H14   S    
C5    C21   A    
