data_mof_unit_36164.cif
_audit_creation_date              2012-12-11T14:56:41-0500
_audit_creation_method            fapswitch 2.2
_symmetry_space_group_name_H-M    P1
_symmetry_Int_Tables_number       1
_space_group_crystal_system       triclinic
_cell_length_a                    10.606129
_cell_length_b                    10.620403
_cell_length_c                    16.998929
_cell_angle_alpha                 80.480476
_cell_angle_beta                  89.714858
_cell_angle_gamma                 119.644872
_cell_volume                      1632.80288484

loop_
_atom_site_label
_atom_site_type_symbol
_atom_type_description
_atom_site_fract_x
_atom_site_fract_y
_atom_site_fract_z
_atom_type_partial_charge
C1    C     C_R   0.215388 0.850033 0.127223 0.549389
C2    C     C_1   0.634480 0.309355 0.704978 -0.036224
C3    C     C_R   0.493124 0.790064 0.772493 -0.129924
C4    C     C_R   0.637019 0.281553 0.085524 0.562247
C5    C     C_R   0.508127 0.771491 0.695313 -0.121609
C6    C     C_R   0.642728 0.860123 0.648832 0.030271
C7    C     C_R   0.753210 0.983422 0.675266 -0.135954
C8    C     C_R   0.737267 0.002975 0.752924 -0.141631
C9    C     C_R   0.610945 0.898911 0.803553 0.012617
C10   C     C_R   0.070271 0.896747 0.791926 -0.009311
C11   C     C_R   0.031087 0.875308 0.715483 -0.131967
C12   C     C_R   0.799122 0.420891 0.263123 -0.135488
C13   C     C_R   0.043467 0.770802 0.681833 0.009296
C14   C     C_R   0.073942 0.669687 0.729356 -0.129071
C15   C     C_R   0.112403 0.687741 0.806606 -0.145634
C16   C     C_R   0.641510 0.857530 0.124942 0.559513
C17   C     C_R   0.123248 0.808132 0.836072 0.018680
C18   C     C_R   0.686442 0.811156 0.357406 0.550632
C19   C     C_R   0.689620 0.396478 0.394527 0.543091
C20   C     C_R   0.046418 0.788068 0.352579 0.557400
C21   C     C_R   0.674191 0.806437 0.582022 0.543768
C22   C     C_R   0.675430 0.375823 0.623203 0.548849
C23   C     C_R   0.789996 0.410570 0.183807 -0.139833
C24   C     C_R   0.026064 0.772858 0.596703 0.572214
C25   C     C_R   0.212637 0.857574 0.902764 0.519058
C26   C     C_R   0.613736 0.221273 0.859140 0.543385
C27   C     C_R   0.599186 0.896467 0.889146 0.552445
C28   C     C_R   0.527953 0.311359 0.203598 -0.123276
C29   C     C_R   0.537634 0.324246 0.283267 -0.128079
C30   C     C_R   0.672247 0.372036 0.313853 0.033390
C31   C     C_R   0.070799 0.024412 0.818057 0.044360
C32   C     C_R   0.150616 0.166708 0.770075 -0.099230
C33   C     C_R   0.163642 0.289335 0.797451 -0.119458
C34   C     C_R   0.653357 0.346528 0.155253 0.026048
C35   C     C_R   0.099704 0.271711 0.873434 -0.106167
C36   C     C_R   0.020383 0.131215 0.921483 -0.062366
C37   C     C_R   0.001619 0.007231 0.893049 -0.035135
C38   C     C_1   0.669843 0.848302 0.205121 -0.029806
C39   C     C_1   0.681097 0.839889 0.274763 -0.030027
C40   C     C_1   0.148571 0.809549 0.206981 -0.049847
C41   C     C_1   0.100656 0.798272 0.273499 -0.047496
C42   C     C_1   0.620871 0.265791 0.775482 -0.037370
Cr1   Cr    Cr6+3 0.402240 0.783890 0.019450 1.008474
Cr2   Cr    Cr6+3 0.382360 0.097900 0.991800 1.022292
Cr3   Cr    Cr6+3 0.715380 0.118170 0.988700 0.989241
Cr4   Cr    Cr6+3 0.936650 0.882420 0.465510 1.015568
Cr5   Cr    Cr6+3 0.605770 0.565620 0.493360 1.021107
Cr6   Cr    Cr6+3 0.921340 0.550490 0.496380 1.019413
H1    H     H_    0.421156 0.263196 0.181928 0.145711
H2    H     H_    0.855540 0.057494 0.638572 0.124784
H3    H     H_    0.826584 0.092935 0.774637 0.148859
H4    H     H_    0.205929 0.183243 0.712351 0.114575
H5    H     H_    0.225763 0.398412 0.760412 0.105581
H6    H     H_    0.112209 0.366885 0.895336 0.100641
H7    H     H_    0.972390 0.118200 0.980696 0.130237
H8    H     H_    0.939646 0.898914 0.930972 0.117700
H9    H     H_    0.999039 0.947184 0.679846 0.122530
H10   H     H_    0.076564 0.582470 0.705496 0.135990
H11   H     H_    0.144537 0.614620 0.840664 0.113083
H12   H     H_    0.440472 0.293090 0.321272 0.138285
H13   H     H_    0.906062 0.466890 0.284637 0.142136
H14   H     H_    0.888102 0.441625 0.146660 0.135085
H15   H     H_    0.392905 0.712222 0.809859 0.127251
H16   H     H_    0.418755 0.678970 0.675199 0.132296
O1    O     O_R   0.521780 0.757110 0.108900 -0.497976
O2    O     O_R   0.805020 0.410040 0.421340 -0.527133
O3    O     O_R   0.049240 0.685450 0.403290 -0.486520
O4    O     O_R   0.275160 0.783810 0.101120 -0.490837
O5    O     O_R   0.077520 0.903010 0.551800 -0.508711
O6    O     O_R   0.802980 0.872780 0.546830 -0.526503
O7    O     O_R   0.578090 0.681300 0.569920 -0.514861
O8    O     O_R   0.608530 0.436370 0.586530 -0.492809
O9    O     O_R   0.798770 0.401880 0.597100 -0.521456
O10   O     O_R   0.043450 0.677890 0.566230 -0.494586
O11   O     O_3   0.821250 0.666180 0.485090 -0.293002
O12   O     O_R   0.513330 0.228330 0.898660 -0.480484
O13   O     O_R   0.237900 0.972600 0.090980 -0.515025
O14   O     O_R   0.511190 0.220540 0.061620 -0.497758
O15   O     O_R   0.736920 0.257720 0.063840 -0.516015
O16   O     O_R   0.710450 0.984050 0.081720 -0.504472
O17   O     O_R   0.524090 0.765520 0.933110 -0.508599
O18   O     O_R   0.277300 0.791600 0.938160 -0.531394
O19   O     O_R   0.240210 0.981010 0.915190 -0.514674
O20   O     O_R   0.739230 0.266130 0.888050 -0.515567
O21   O     O_R   0.712580 0.991850 0.918770 -0.528637
O22   O     O_3   0.499990 0.999980 0.999980 -0.286623
O23   O     O_R   0.083770 0.911170 0.376030 -0.494652
O24   O     O_R   0.808770 0.880340 0.383890 -0.511019
O25   O     O_R   0.584340 0.689460 0.394160 -0.502340
O26   O     O_R   0.614320 0.443940 0.423590 -0.500934

loop_
_geom_bond_atom_site_label_1
_geom_bond_atom_site_label_2
_ccdc_geom_bond_type
C1    O13   A    
C20   O3    A    
C35   C36   A    
Cr2   O19   S    
C20   C41   S    
C7    C8    A    
C12   C23   A    
C28   C29   A    
C21   O7    A    
C36   C37   A    
C36   H7    S    
C38   C39   T    
C10   C17   A    
C20   O23   A    
C1    O4    A    
C19   O2    A    
C27   O21   A    
Cr2   O12   S    
C32   H4    S    
Cr4   O5    S    
C1    C40   S    
C37   H8    S    
C10   C31   S    
C23   H14   S    
Cr1   O4    S    
C2    C22   S    
C26   O12   A    
C28   C34   A    
Cr6   O3    S    
C13   C14   A    
C35   H6    S    
Cr5   O25   S    
Cr6   O11   S    
Cr2   O22   S    
C22   O8    A    
Cr4   O11   S    
C24   O5    A    
Cr4   O24   S    
C33   H5    S    
C14   H10   S    
C4    C34   S    
Cr6   O10   S    
C27   O17   A    
C4    O15   A    
C8    C9    A    
C18   O25   A    
C6    C21   S    
C18   O24   A    
C31   C37   A    
C13   C24   S    
C16   O16   A    
Cr3   O21   S    
C18   C39   S    
C4    O14   A    
C29   C30   A    
C3    C9    A    
C28   H1    S    
C31   C32   A    
C29   H12   S    
Cr1   O1    S    
C23   C34   A    
Cr3   O15   S    
C8    H3    S    
Cr5   O7    S    
C40   C41   T    
C25   O18   A    
Cr1   O17   S    
Cr5   O26   S    
Cr3   O20   S    
C9    C27   S    
Cr4   O23   S    
C15   C17   A    
Cr2   O13   S    
C26   O20   A    
C12   C30   A    
Cr1   O22   S    
C15   H11   S    
Cr6   O9    S    
C7    H2    S    
C3    C5    A    
C6    C7    A    
C3    H15   S    
C21   O6    A    
C17   C25   S    
C32   C33   A    
Cr2   O14   S    
Cr3   O22   S    
Cr5   O11   S    
C19   O26   A    
C12   H13   S    
C11   C13   A    
C24   O10   A    
C5    C6    A    
C2    C42   T    
C33   C35   A    
Cr3   O16   S    
C26   C42   S    
Cr5   O8    S    
Cr4   O6    S    
C10   C11   A    
C5    H16   S    
C25   O19   A    
Cr1   O18   S    
C14   C15   A    
C16   O1    A    
C22   O9    A    
Cr6   O2    S    
C11   H9    S    
C19   C30   S    
C16   C38   S    
