data_mof_unit_63911.cif
_audit_creation_date              2012-12-10T20:01:39-0500
_audit_creation_method            fapswitch 2.2
_symmetry_space_group_name_H-M    P1
_symmetry_Int_Tables_number       1
_space_group_crystal_system       triclinic
_cell_length_a                    14.156554
_cell_length_b                    14.92749
_cell_length_c                    16.667952
_cell_angle_alpha                 89.472125
_cell_angle_beta                  95.728657
_cell_angle_gamma                 90.057076
_cell_volume                      3504.56198375

loop_
_atom_site_label
_atom_site_type_symbol
_atom_type_description
_atom_site_fract_x
_atom_site_fract_y
_atom_site_fract_z
_atom_type_partial_charge
C1    C     C_R   0.499817 0.327595 0.498925 0.902072
C2    C     C_R   0.499950 0.672398 0.498931 0.904331
C3    C     C_R   0.577571 0.181934 0.521945 -0.175959
C4    C     C_R   0.429039 0.817721 0.523597 -0.166750
C5    C     C_R   0.498782 0.231892 0.490759 -0.103835
C6    C     C_R   0.499176 0.768218 0.490800 -0.096054
C7    C     C_R   0.420342 0.190628 0.448509 -0.209590
C8    C     C_R   0.566479 0.810103 0.447075 -0.226183
C9    C     C_R   0.419995 0.098774 0.437923 0.419965
C10   C     C_R   0.564446 0.902208 0.436627 0.425566
C11   C     C_R   0.498204 0.048514 0.471341 0.039905
C12   C     C_R   0.495352 0.951974 0.471522 0.040518
C13   C     C_R   0.112538 0.461211 0.563798 -0.247330
C14   C     C_R   0.890542 0.570079 0.463363 -0.243398
C15   C     C_R   0.211666 0.461659 0.562575 0.044645
C16   C     C_R   0.791309 0.568677 0.463971 0.059620
C17   C     C_R   0.197266 0.537968 0.437142 0.054433
C18   C     C_R   0.799644 0.431351 0.535953 0.053111
C19   C     C_R   0.097773 0.538440 0.435689 -0.241083
C20   C     C_R   0.898971 0.429820 0.536278 -0.243737
C21   C     C_R   0.053309 0.499875 0.499726 0.126355
C22   C     C_R   0.946591 0.499912 0.499745 0.127696
C23   C     C_R   0.513516 0.499582 0.653815 0.926859
C24   C     C_R   0.486468 0.500643 0.346183 0.929937
C25   C     C_R   0.524445 0.493442 0.740949 -0.161234
C26   C     C_R   0.475405 0.508323 0.259147 -0.162073
C27   C     C_R   0.462722 0.436852 0.778192 -0.299404
C28   C     C_R   0.536691 0.566085 0.222663 -0.281532
C29   C     C_R   0.469626 0.429470 0.861485 0.411444
C30   C     C_R   0.529290 0.575345 0.139480 0.413811
C31   C     C_R   0.538190 0.480179 0.907862 0.210195
C32   C     C_R   0.460612 0.525425 0.092461 0.205738
C33   C     C_R   0.602701 0.533319 0.870994 -0.215689
C34   C     C_R   0.396404 0.471288 0.128678 -0.207821
C35   C     C_R   0.596127 0.541057 0.787492 0.139445
C36   C     C_R   0.403489 0.461648 0.212035 0.138108
C37   C     C_R   0.576759 0.090096 0.513025 -0.138979
C38   C     C_R   0.427845 0.909738 0.514728 -0.144868
H1    H     H_    0.590344 0.603970 0.258915 0.196831
H2    H     H_    0.409102 0.398420 0.742443 0.192328
H3    H     H_    0.256025 0.431406 0.612083 0.138513
H4    H     H_    0.749222 0.622885 0.435678 0.132929
H5    H     H_    0.230398 0.567808 0.387612 0.146234
H6    H     H_    0.764127 0.377175 0.564318 0.128647
H7    H     H_    0.056221 0.567759 0.384064 0.154934
H8    H     H_    0.937741 0.373286 0.564030 0.148724
H9    H     H_    0.654755 0.572507 0.907600 0.218237
H10   H     H_    0.344316 0.432654 0.091577 0.219653
H11   H     H_    0.636376 0.051067 0.540046 0.177636
H12   H     H_    0.375595 0.948361 0.542879 0.177355
H13   H     H_    0.638529 0.213675 0.554521 0.161018
H14   H     H_    0.376728 0.785441 0.557335 0.171800
H15   H     H_    0.360199 0.229827 0.422814 0.205876
H16   H     H_    0.619433 0.771185 0.420075 0.178581
H17   H     H_    0.082927 0.431797 0.615319 0.152308
H18   H     H_    0.922911 0.626547 0.435508 0.153929
N1    N     N_2   0.537065 0.485793 0.991443 -0.098578
N2    N     N_2   0.462012 0.520629 0.008857 -0.100789
N3    N     N_R   0.252470 0.499980 0.500000 -0.101165
N4    N     N_R   0.747530 0.500020 0.500000 -0.097506
O1    O     O_R   0.579480 0.369070 0.499990 -0.624643
O2    O     O_R   0.420520 0.630930 0.500010 -0.617718
O3    O     O_R   0.420520 0.369060 0.499990 -0.615379
O4    O     O_R   0.579480 0.630940 0.500010 -0.622456
O5    O     O_R   0.588340 0.499180 0.616130 -0.592379
O6    O     O_R   0.411660 0.500820 0.383870 -0.606327
O7    O     O_R   0.429390 0.499170 0.616130 -0.629239
O8    O     O_R   0.570610 0.500830 0.383870 -0.615046
Zn1   Zn    Zn3+2 0.606140 0.500010 0.500000 0.981423
Zn2   Zn    Zn3+2 0.393860 0.499990 0.500000 0.974538
Cl1   Cl    Cl    0.607650 0.648249 0.095410 -0.538457
Cl2   Cl    Cl    0.390963 0.357646 0.906440 -0.555888
I1    I     I_    0.690127 0.632962 0.738079 -0.270695
I2    I     I_    0.309850 0.368464 0.260196 -0.251249
Cl3   Cl    Cl    0.321612 0.049072 0.382192 -0.538297
Cl4   Cl    Cl    0.648147 0.952843 0.379130 -0.543918

loop_
_geom_bond_atom_site_label_1
_geom_bond_atom_site_label_2
_ccdc_geom_bond_type
C14   H18   S    
C27   C29   A    
C32   N2    S    
C30   Cl1   S    
C4    H14   S    
C1    C5    S    
C19   C21   A    
C24   C26   S    
C26   C36   A    
O2    Zn2   S    
C16   N4    A    
C23   O7    A    
C11   C37   A    
C17   C19   A    
C10   Cl4   S    
C35   I1    S    
O8    Zn1   S    
C31   C33   A    
C18   C20   A    
C24   O6    A    
C29   Cl2   S    
C21   C22   S    
C2    C6    S    
C1    O3    A    
C2    O4    A    
C23   O5    A    
C15   H3    S    
C4    C6    A    
C8    H16   S    
C5    C7    A    
C3    H13   S    
C6    C8    A    
C28   H1    S    
C32   C34   A    
C17   H5    S    
C18   H6    S    
C37   H11   S    
O3    Zn2   S    
C27   H2    S    
C13   C21   A    
O4    Zn1   S    
C9    C11   A    
C10   C12   A    
C17   N3    A    
C18   N4    A    
C25   C35   A    
C13   C15   A    
C33   H9    S    
C14   C16   A    
C34   H10   S    
C7    H15   S    
C16   H4    S    
O1    Zn1   S    
C7    C9    A    
C36   I2    S    
C15   N3    A    
C20   C22   A    
C3    C5    A    
C1    O1    A    
C11   C12   S    
C19   H7    S    
C38   H12   S    
C25   C27   A    
C26   C28   A    
O7    Zn2   S    
C31   N1    S    
C28   C30   A    
C29   C31   A    
C30   C32   A    
C14   C22   A    
N1    N2    D    
O6    Zn2   S    
N4    Zn1   S    
O5    Zn1   S    
C33   C35   A    
C34   C36   A    
C23   C25   S    
C12   C38   A    
C24   O8    A    
N3    Zn2   S    
C3    C37   A    
C8    C10   A    
C9    Cl3   S    
C4    C38   A    
C20   H8    S    
C2    O2    A    
C13   H17   S    
