data_mof_unit_10547.cif
_audit_creation_date              2013-03-05T15:48:57-0500
_audit_creation_method            fapswitch 2.2
_symmetry_space_group_name_H-M    P1
_symmetry_Int_Tables_number       1
_space_group_crystal_system       triclinic
_cell_length_a                    8.316604
_cell_length_b                    18.977865
_cell_length_c                    19.144472
_cell_angle_alpha                 100.352506
_cell_angle_beta                  94.148942
_cell_angle_gamma                 92.919607
_cell_volume                      2958.31834107

loop_
_atom_site_label
_atom_site_type_symbol
_atom_site_description
_atom_site_fract_x
_atom_site_fract_y
_atom_site_fract_z
_atom_type_partial_charge
P1    P     P_3+3 0.947550 0.663200 0.567530 0.522324
O1    O     O_2   0.118870 0.674530 0.547560 -0.280822
O2    O     O_3   0.870460 0.585330 0.542110 -0.398166
O3    O     O_3   0.354280 0.631750 0.418430 -0.378746
O4    O     O_2   0.246453 0.756007 0.471599 -0.308616
O5    O     O_3   0.971291 0.679997 0.660675 -0.552982
O6    O     O_3   0.314350 0.742722 0.338772 -0.495254
H1    H     H_    0.303886 0.643497 0.273142 0.140257
C1    C     C_3   0.395709 0.727477 0.218711 0.068722
H2    H     H_    0.421291 0.786487 0.233822 0.118571
P2    P     P_3+3 0.354660 0.445020 0.336980 0.599091
P3    P     P_3+3 0.905410 0.602862 0.290216 0.575480
O7    O     O_2   0.180880 0.466650 0.327890 -0.310724
O8    O     O_3   0.939000 0.596010 0.380670 -0.350823
O9    O     O_2   0.040932 0.562482 0.252150 -0.326835
O10   O     O_3   0.329275 0.351467 0.310008 -0.506216
O11   O     O_3   0.949607 0.692295 0.282468 -0.467799
C2    C     C_3   0.877417 0.738225 0.335491 0.365872
H3    H     H_    0.951472 0.744215 0.387026 0.124388
H4    H     H_    0.755339 0.716213 0.342996 -0.146255
C3    C     C_3   0.856888 0.811412 0.313271 0.155801
H5    H     H_    0.833115 0.804530 0.254540 0.121123
C4    C     C_3   0.940310 0.283720 0.300595 0.866366
H6    H     H_    0.050637 0.317720 0.317738 0.026933
C5    C     C_3   0.963118 0.205300 0.306397 -1.126915
H7    H     H_    0.844440 0.175588 0.305470 0.282679
H8    H     H_    0.025063 0.178312 0.260389 0.278876
H9    H     H_    0.040914 0.201447 0.354544 0.226050
Ba1   Ba    Ba6+2 0.152460 0.535140 0.468980 1.716807
C6    C     C_3   0.027622 0.619481 0.684515 0.352697
H10   H     H_    0.146414 0.607849 0.664332 0.134387
H11   H     H_    0.941358 0.571834 0.667114 0.112858
C7    C     C_3   0.045776 0.635277 0.765409 -0.803265
H12   H     H_    0.114433 0.687678 0.784992 0.294392
H13   H     H_    0.110351 0.592787 0.785720 0.235879
H14   H     H_    0.925366 0.636513 0.786522 0.240151
C8    C     C_3   0.348061 0.317388 0.369223 0.538934
H15   H     H_    0.237440 0.318995 0.397437 -0.063585
H16   H     H_    0.444397 0.343026 0.408487 0.158583
C9    C     C_3   0.387441 0.240168 0.344606 -0.955718
H17   H     H_    0.299595 0.213108 0.300575 0.267045
H18   H     H_    0.383207 0.211417 0.390061 0.204476
H19   H     H_    0.509744 0.238599 0.324958 0.287710
P4    P     P_3+3 0.862750 0.336790 0.432410 0.553208
O12   O     O_2   0.691430 0.325420 0.452420 -0.365963
O13   O     O_3   0.939830 0.414660 0.457830 -0.324927
O14   O     O_3   0.456020 0.368240 0.581510 -0.376695
O15   O     O_3   0.814466 0.312629 0.339840 -0.510257
P5    P     P_3+3 0.887489 0.404732 0.711305 0.495670
O16   O     O_3   0.374170 0.535780 0.585810 -0.362684
O17   O     O_3   0.871300 0.403980 0.619270 -0.409840
O18   O     O_2   0.754556 0.450640 0.744530 -0.359536
O19   O     O_3   0.836736 0.318174 0.725857 -0.446318
Ba2   Ba    Ba6+2 0.657710 0.464850 0.530960 1.652964
P6    P     P_3+3 0.374725 0.723611 0.422869 0.549683
C10   C     C_3   0.380610 0.694253 0.285653 0.372452
H20   H     H_    0.503377 0.680894 0.303302 -0.125135
H21   H     H_    0.500129 0.705812 0.190956 0.038740
O20   O     O_3   0.436130 0.464210 0.414140 -0.398222
C11   C     C_3   0.572526 0.685013 0.697401 0.878222
H22   H     H_    0.665311 0.655691 0.667502 0.022392
C12   C     C_3   0.657547 0.735099 0.762450 -0.846499
H23   H     H_    0.708824 0.703236 0.800635 0.257061
H24   H     H_    0.757348 0.768193 0.746241 0.251804
H25   H     H_    0.572153 0.771121 0.790440 0.260039
P7    P     P_3+3 0.448947 0.551430 0.676443 0.482316
O21   O     O_2   0.629420 0.533310 0.672080 -0.390420
O22   O     O_3   0.452711 0.641226 0.719690 -0.584356
H26   H     H_    0.749197 0.834922 0.336571 0.016937
C13   C     C_3   0.900654 0.268381 0.673280 0.496162
H27   H     H_    0.838280 0.268851 0.620100 0.128067
H28   H     H_    0.032094 0.280080 0.671915 -0.031501
C14   C     C_3   0.875459 0.193419 0.689916 -0.861778
H29   H     H_    0.744574 0.176809 0.684725 0.279176
H30   H     H_    0.936759 0.154521 0.652210 0.193058
H31   H     H_    0.927256 0.192396 0.744815 0.278021
P8    P     P_3+3 0.429669 0.276807 0.578432 0.433540
C15   C     C_3   0.397909 0.312667 0.712646 0.342977
H32   H     H_    0.284266 0.328541 0.687621 -0.052095
O23   O     O_2   0.562454 0.241738 0.534402 -0.411001
O24   O     O_3   0.475636 0.262284 0.665447 -0.531242
H33   H     H_    0.479149 0.361815 0.729907 0.148494
H34   H     H_    0.254408 0.312456 0.802464 0.069226
C16   C     C_3   0.350921 0.281244 0.777051 0.015884
H35   H     H_    0.301682 0.224778 0.759617 0.097670
C17   C     C_R   0.983394 0.958160 0.546497 0.035764
C18   C     C_R   0.072610 0.914508 0.585627 -0.052493
C19   C     C_R   0.214397 0.945504 0.627792 0.373676
C20   C     C_R   0.278399 0.013501 0.620496 -0.303361
C21   C     C_R   0.193842 0.055412 0.579054 0.074039
C22   C     C_R   0.042282 0.029508 0.544713 0.042388
C23   C     C_R   0.256057 0.124321 0.574807 -0.207797
C24   C     C_R   0.164604 0.171099 0.540758 -0.031375
C25   C     C_R   0.008586 0.146888 0.508160 0.001199
C26   C     C_R   0.950068 0.074969 0.508876 0.010790
C27   C     C_R   0.223178 0.242102 0.540590 0.183585
C28   C     C_R   0.122880 0.289667 0.512832 -0.499642
C29   C     C_R   0.969872 0.267521 0.477578 0.159117
C30   C     C_R   0.911876 0.193851 0.474648 -0.028837
C31   C     C_R   0.834695 0.930926 0.509809 0.069867
C32   C     C_R   0.781581 0.857535 0.505999 0.063771
C33   C     C_R   0.879500 0.810228 0.538590 -0.038777
C34   C     C_R   0.020416 0.841114 0.580665 -0.034323
H36   H     H_    0.389657 0.035887 0.651295 0.177229
H37   H     H_    0.167999 0.344745 0.516097 0.166480
H38   H     H_    0.375208 0.141221 0.600268 0.182608
H39   H     H_    0.092360 0.807515 0.607862 0.223585
C35   C     C_R   0.762545 0.164707 0.438742 -0.146871
C36   C     C_R   0.704705 0.093649 0.439534 0.133816
C37   C     C_R   0.798107 0.048769 0.475131 0.044906
C38   C     C_R   0.740510 0.976981 0.475518 0.044327
C39   C     C_R   0.553603 0.066562 0.405190 -0.185584
C40   C     C_R   0.495633 0.996400 0.406394 -0.133307
C41   C     C_R   0.588897 0.951142 0.440806 0.101969
C42   C     C_R   0.630298 0.832010 0.469243 -0.058876
C43   C     C_R   0.533779 0.880006 0.439250 -0.218049
C44   C     C_R   0.580707 0.758843 0.461682 0.233920
C45   C     C_R   0.685640 0.710832 0.486756 -0.368803
C46   C     C_R   0.832013 0.734308 0.527757 0.182744
H40   H     H_    0.689218 0.196904 0.409957 0.163337
H41   H     H_    0.480087 0.099320 0.376850 0.144878
H42   H     H_    0.378462 0.977156 0.379327 0.198386
H43   H     H_    0.417240 0.862243 0.411646 0.229005
H44   H     H_    0.647676 0.654344 0.477971 0.174045
C47   C     C_R   0.620075 0.515114 0.285151 0.152760
C48   C     C_R   0.454962 0.497399 0.273694 0.156926
C49   C     C_R   0.383308 0.504303 0.206483 -0.265607
C50   C     C_R   0.474687 0.536360 0.158658 0.092521
C51   C     C_R   0.628771 0.571530 0.184431 -0.368005
C52   C     C_R   0.699094 0.563614 0.250971 0.084810
C53   C     C_R   0.459080 0.579752 0.041351 -0.177693
C54   C     C_R   0.419463 0.569840 0.967411 0.554048
C55   C     C_R   0.334984 0.504257 0.930963 -0.066225
C56   C     C_R   0.292846 0.452413 0.971852 -0.123427
C57   C     C_R   0.333451 0.463613 0.045409 -0.101475
C58   C     C_R   0.418058 0.527304 0.081236 0.111083
C59   C     C_R   0.133047 0.455103 0.824633 -0.278200
C60   C     C_R   0.088643 0.442473 0.750790 0.225554
C61   C     C_R   0.346370 0.496142 0.730667 0.246203
C62   C     C_R   0.397153 0.502528 0.802890 -0.119957
C63   C     C_R   0.288329 0.487068 0.851955 0.078786
C64   C     C_R   0.195301 0.463995 0.704645 -0.538023
H45   H     H_    0.518645 0.523430 0.820762 0.203705
H46   H     H_    0.522734 0.629412 0.068193 0.187536
H47   H     H_    0.262180 0.480930 0.189913 0.199584
H48   H     H_    0.231408 0.401607 0.946376 0.175179
H49   H     H_    0.303137 0.420907 0.073739 0.164237
H50   H     H_    0.045818 0.441870 0.860345 0.182732
H51   H     H_    0.699275 0.599722 0.151549 0.193443
H52   H     H_    0.157188 0.459844 0.648717 0.166404
S1    S     S_3+6 0.220820 0.708414 0.156019 0.032987
O25   O     O_2   0.168618 0.629951 0.143204 -0.251926
O26   O     O_2   0.082949 0.750925 0.181944 -0.215510
O27   O     O_3   0.266429 0.730573 0.078484 -0.444638
H53   H     H_    0.295980 0.782830 0.089993 0.357376
S2    S     S_3+6 0.471356 0.735239 0.641290 -0.011410
O28   O     O_2   0.574029 0.799738 0.631886 -0.307818
O29   O     O_2   0.432267 0.685828 0.571377 -0.280475
O30   O     O_3   0.298683 0.760011 0.675668 -0.477369
H54   H     H_    0.320873 0.767439 0.728042 0.366376
S3    S     S_3+6 0.516474 0.285122 0.842835 0.044939
O31   O     O_2   0.453810 0.269017 0.910334 -0.234253
O32   O     O_2   0.600898 0.358845 0.858060 -0.236047
O33   O     O_3   0.648229 0.224403 0.814182 -0.445191
H55   H     H_    0.583632 0.177882 0.802815 0.344964
N1    N     N_R   0.283099 0.913170 0.684229 0.259059
O34   O     O_R   0.187931 0.891306 0.728152 -0.372257
O35   O     O_R   0.437085 0.923473 0.703375 -0.330473
S4    S     S_3+6 0.482063 0.642103 0.925967 -0.029621
O36   O     O_2   0.643515 0.627960 0.897681 -0.324979
O37   O     O_2   0.361301 0.650593 0.866481 -0.302006
O38   O     O_3   0.503962 0.719443 0.985402 -0.489647
H56   H     H_    0.541378 0.756049 0.958229 0.385201
S5    S     S_3+6 0.025799 0.875284 0.342526 -0.020255
O39   O     O_2   0.968537 0.949719 0.347309 -0.315876
O40   O     O_2   0.097213 0.867361 0.414684 -0.295724
O41   O     O_3   0.170576 0.864837 0.285490 -0.478240
H57   H     H_    0.137797 0.892188 0.247929 0.365572
S6    S     S_3+6 0.727662 0.444934 0.300078 0.019492
O42   O     O_2   0.754215 0.460101 0.378881 -0.224066
O43   O     O_2   0.626843 0.376242 0.272758 -0.268680
O44   O     O_3   0.900647 0.439721 0.260733 -0.476597
H58   H     H_    0.867815 0.434341 0.209152 0.356840
N2    N     N_R   0.901148 0.285697 0.225303 0.263619
O45   O     O_R   0.765779 0.255028 0.192844 -0.304324
O46   O     O_R   0.011049 0.308220 0.187951 -0.372300

loop_
_geom_bond_atom_site_label_1
_geom_bond_atom_site_label_2
_geom_bond_distance
_ccdc_geom_bond_type
P7    O22   1.753373 S    
C18   C19   1.417417 A    
C48   C49   1.409082 A    
C43   H43   1.077428 S    
C2    C3    1.537929 S    
C14   H30   1.107257 S    
S4    O36   1.502631 D    
C35   H40   1.076704 S    
C59   H50   1.082449 S    
C62   H45   1.075030 S    
O6    P6    1.757023 S    
C50   C51   1.426215 A    
H1    C10   1.106661 S    
S3    O31   1.502668 D    
C57   C58   1.404320 A    
C35   C36   1.411543 A    
C5    H9    1.102860 S    
C30   C35   1.410907 A    
C24   C25   1.415354 A    
C47   C48   1.389118 A    
P3    C52   1.882967 S    
O1    Ba1   2.836323 S    
O7    Ba1   2.811243 S    
O33   H55   0.990524 S    
C8    H15   1.099050 S    
C2    H3    1.109167 S    
C8    C9    1.516555 S    
C17   C22   1.423344 A    
C50   C58   1.499150 S    
O30   H54   0.989476 S    
P1    C46   1.928652 S    
C6    H10   1.104927 S    
S5    O39   1.502993 D    
O2    Ba2   2.786013 S    
Ba1   Ba2   4.564413 S    
C42   C43   1.414033 A    
C7    H14   1.106470 S    
N2    O45   1.301682 A    
C11   C12   1.527420 S    
P1    O1    1.516447 D    
C14   H29   1.110077 S    
S1    O27   1.677393 S    
O2    Ba1   2.931058 S    
C45   C46   1.406173 A    
C23   C24   1.412982 A    
C12   H24   1.110799 S    
C7    H13   1.102929 S    
O44   H58   0.990977 S    
P4    C29   1.919876 S    
C47   C52   1.387201 A    
C9    H19   1.109678 S    
C1    S1    1.795726 S    
P7    C61   1.826121 S    
Ba1   O20   2.941751 S    
C54   C55   1.434377 A    
C42   C44   1.407098 A    
P3    O11   1.752875 S    
C47   S6    1.696263 S    
C4    H6    1.089018 S    
C13   H27   1.110418 S    
C17   C31   1.403044 A    
C1    H2    1.110609 S    
O3    Ba1   2.770301 S    
C6    C7    1.518473 S    
O10   C8    1.405707 S    
Ba2   O20   2.790947 S    
S6    O44   1.670735 S    
C28   H37   1.081870 S    
C9    H18   1.108765 S    
P7    O21   1.561533 D    
P5    C60   1.839410 S    
S1    O26   1.498216 D    
N1    O35   1.301318 A    
S4    O37   1.499495 D    
C25   C26   1.428246 A    
O6    C10   1.407278 S    
P2    O20   1.552572 S    
O19   C13   1.405493 S    
C39   C40   1.397549 A    
S3    O32   1.503049 D    
P4    O13   1.559345 S    
C28   C29   1.403825 A    
Ba1   O16   2.791739 S    
C56   H48   1.083211 S    
C13   H28   1.107440 S    
C40   H42   1.083570 S    
P1    O5    1.748940 S    
C32   C33   1.435526 A    
P2    C48   1.909581 S    
C62   C63   1.408033 A    
C53   C58   1.402299 A    
C60   C64   1.392927 A    
C36   C39   1.403176 A    
C17   C18   1.415358 A    
C45   H44   1.081769 S    
Ba2   O21   2.811389 S    
P5    O17   1.754787 S    
C5    H7    1.108871 S    
C37   C38   1.422411 A    
C3    H26   1.107769 S    
C11   H22   1.107217 S    
P1    O2    1.559373 S    
C11   S2    1.757648 S    
C51   H51   1.081126 S    
C12   H23   1.105420 S    
P4    Ba2   3.407867 S    
P2    O10   1.754962 S    
C15   H33   1.108321 S    
C21   C23   1.399960 A    
H34   C16   1.110496 S    
P3    O9    1.547495 D    
P8    O24   1.755211 S    
S1    O25   1.501118 D    
P5    O18   1.544849 D    
C27   C28   1.406415 A    
O13   Ba2   2.931909 S    
C13   C14   1.520300 S    
P1    Ba1   3.407242 S    
C7    H12   1.110282 S    
C1    C10   1.536685 S    
O16   Ba2   2.940894 S    
C16   H35   1.111034 S    
O16   P7    1.767894 S    
S5    O41   1.678726 S    
C11   O22   1.403626 S    
O27   H53   0.990585 S    
C49   H47   1.081595 S    
O14   Ba2   2.769655 S    
C18   C34   1.422114 A    
C23   H38   1.078866 S    
C9    H17   1.106863 S    
O5    C6    1.399652 S    
P3    O8    1.763045 S    
O12   Ba2   2.836880 S    
C29   C30   1.445576 A    
C24   C27   1.409935 A    
C57   H49   1.082377 S    
C53   H46   1.080860 S    
C20   H36   1.084114 S    
N1    O34   1.301515 A    
C32   C42   1.414241 A    
C14   H31   1.110508 S    
C10   H20   1.108213 S    
O14   P8    1.727739 S    
O8    Ba1   2.796578 S    
C49   C50   1.428200 A    
S3    O33   1.678638 S    
O38   H56   0.990633 S    
C40   C41   1.403793 A    
P6    C44   1.858595 S    
P8    O23   1.543014 D    
C59   C63   1.420480 A    
S2    O28   1.501599 D    
C4    O15   1.408892 S    
C12   H25   1.109819 S    
C15   H32   1.108557 S    
C55   C63   1.506537 S    
O41   H57   0.990468 S    
O4    P6    1.546298 D    
S2    O30   1.676524 S    
P4    O12   1.516818 D    
C26   C37   1.401487 A    
C41   C43   1.397891 A    
C61   C62   1.398170 A    
C56   C57   1.399484 A    
C5    H8    1.110839 S    
C59   C60   1.409244 A    
P8    C27   1.855004 S    
C19   N1    1.433545 S    
O11   C2    1.405052 S    
Ba1   O13   2.785428 S    
O17   Ba2   2.797237 S    
C3    H5    1.110310 S    
C64   H52   1.082187 S    
S2    O29   1.493774 D    
C51   C52   1.399034 A    
C39   H41   1.080086 S    
O3    P6    1.729106 S    
P4    O15   1.760226 S    
C44   C45   1.414131 A    
C6    H11   1.111029 S    
P2    O7    1.528817 D    
C15   O24   1.409097 S    
C1    H21   1.109125 S    
C21   C22   1.401243 A    
C55   C56   1.408908 A    
C25   C30   1.434129 A    
P5    O19   1.750730 S    
C31   C32   1.427056 A    
C61   C64   1.386008 A    
N2    O46   1.301577 A    
C38   C41   1.403783 A    
C2    H4    1.106992 S    
C4    C5    1.532422 S    
C33   C34   1.410533 A    
S5    O40   1.499574 D    
C33   C46   1.448331 A    
C22   C26   1.416774 A    
S6    O42   1.482199 D    
C15   C16   1.529339 S    
C4    N2    1.462157 S    
C19   C20   1.404863 A    
P2    Ba1   3.390210 S    
C31   C38   1.417750 A    
C8    H16   1.088748 S    
C3    S5    1.795841 S    
C54   S4    1.777481 S    
C34   H39   1.071818 S    
S4    O38   1.680685 S    
C20   C21   1.399883 A    
C36   C37   1.411624 A    
C16   S3    1.786808 S    
C53   C54   1.406491 A    
S6    O43   1.502059 D    
