data_mof_unit_17028.cif
_audit_creation_date              2012-12-10T17:24:25-0500
_audit_creation_method            fapswitch 2.2
_symmetry_space_group_name_H-M    P1
_symmetry_Int_Tables_number       1
_space_group_crystal_system       triclinic
_cell_length_a                    31.656501
_cell_length_b                    18.285639
_cell_length_c                    25.755181
_cell_angle_alpha                 90.127706
_cell_angle_beta                  144.724496
_cell_angle_gamma                 89.873513
_cell_volume                      8609.83780715

loop_
_atom_site_label
_atom_site_type_symbol
_atom_type_description
_atom_site_fract_x
_atom_site_fract_y
_atom_site_fract_z
_atom_type_partial_charge
C1    C     C_R   0.860015 0.860314 0.109958 0.475986
C2    C     C_R   0.124125 0.320897 0.270865 -0.124507
C3    C     C_R   0.741028 0.186394 0.021851 0.013784
C4    C     C_R   0.231106 0.323360 0.993597 0.000097
C5    C     C_R   0.768877 0.676663 0.006326 0.000156
C6    C     C_R   0.758966 0.313603 0.978134 0.013945
C7    C     C_R   0.241023 0.686383 0.021843 0.013946
C8    C     C_R   0.196184 0.195702 0.946702 -0.007500
C9    C     C_R   0.803807 0.804306 0.053289 -0.007503
C10   C     C_R   0.804024 0.195870 0.054014 0.013988
C11   C     C_R   0.195977 0.804130 0.945991 0.013984
C12   C     C_R   0.696197 0.695689 0.946736 -0.007534
C13   C     C_R   0.115313 0.669403 0.271555 -0.124438
C14   C     C_R   0.303805 0.304307 0.053269 -0.007561
C15   C     C_R   0.304022 0.695867 0.054012 0.014121
C16   C     C_R   0.695975 0.304131 0.945981 0.014125
C17   C     C_R   0.932680 0.881091 0.985150 -0.101836
C18   C     C_R   0.067218 0.118958 0.014746 -0.101791
C19   C     C_R   0.432553 0.381159 0.985024 -0.101824
C20   C     C_R   0.567447 0.618841 0.014979 -0.101849
C21   C     C_R   0.900827 0.823137 0.925533 0.001563
C22   C     C_R   0.098945 0.176976 0.074236 0.001545
C23   C     C_R   0.400666 0.323230 0.925371 0.001460
C24   C     C_R   0.884815 0.330738 0.728407 -0.124495
C25   C     C_R   0.599285 0.676799 0.074585 0.001434
C26   C     C_R   0.906727 0.821903 0.877444 -0.121705
C27   C     C_R   0.093066 0.178200 0.122345 -0.121722
C28   C     C_R   0.406560 0.321995 0.877275 -0.121737
C29   C     C_R   0.593363 0.678042 0.122649 -0.121725
C30   C     C_R   0.941098 0.878852 0.885905 -0.102636
C31   C     C_R   0.058809 0.121189 0.114002 -0.102618
C32   C     C_R   0.440976 0.378914 0.885782 -0.102638
C33   C     C_R   0.558975 0.621104 0.114168 -0.102626
C34   C     C_R   0.969383 0.940046 0.941591 0.010942
C35   C     C_R   0.375849 0.179136 0.729126 -0.124678
C36   C     C_R   0.030580 0.059967 0.058372 0.010960
C37   C     C_R   0.469318 0.440081 0.941526 0.010943
C38   C     C_R   0.530669 0.559920 0.058461 0.010952
C39   C     C_R   0.966729 0.940478 0.993270 -0.003283
C40   C     C_R   0.033232 0.059536 0.006692 -0.003276
C41   C     C_R   0.466661 0.440515 0.993201 -0.003277
C42   C     C_R   0.533340 0.559481 0.006799 -0.003275
C43   C     C_R   0.001404 0.000033 0.947830 0.019359
C44   C     C_R   0.998588 0.999965 0.052162 0.019363
C45   C     C_R   0.501414 0.500029 0.947840 0.019327
C46   C     C_R   0.624162 0.820849 0.270867 -0.124662
C47   C     C_R   0.498587 0.499966 0.052161 0.019326
C48   C     C_R   0.999622 0.999118 0.108629 0.484912
C49   C     C_R   0.000377 0.000876 0.891370 0.484905
C50   C     C_R   0.499622 0.499118 0.108628 0.484909
C51   C     C_R   0.500378 0.500879 0.891372 0.484904
C52   C     C_R   0.000013 0.000118 0.391769 0.500985
C53   C     C_R   0.999986 0.999882 0.608230 0.500993
C54   C     C_R   0.500022 0.500001 0.391777 0.500918
C55   C     C_R   0.499979 0.499999 0.608224 0.500893
C56   C     C_3   0.060049 0.965461 0.542806 -0.124235
C57   C     C_R   0.615196 0.169270 0.271585 -0.124428
C58   C     C_3   0.939948 0.034539 0.457191 -0.124231
C59   C     C_3   0.000004 0.930525 0.516803 -0.103190
C60   C     C_3   0.999993 0.069474 0.483194 -0.103191
C61   C     C_3   0.499970 0.430608 0.482823 -0.103329
C62   C     C_3   0.500033 0.569393 0.517180 -0.103344
C63   C     C_3   0.439921 0.465490 0.456982 -0.124776
C64   C     C_3   0.560082 0.534511 0.543021 -0.124805
C65   C     C_3   0.060038 0.034486 0.577708 -0.124556
C66   C     C_3   0.939959 0.965513 0.422288 -0.124554
C67   C     C_3   0.560026 0.465354 0.577531 -0.124900
C68   C     C_R   0.384669 0.830582 0.728452 -0.124390
C69   C     C_3   0.439977 0.534647 0.422472 -0.124869
C70   C     C_3   0.999992 0.999607 0.550877 0.062623
C71   C     C_3   0.000005 0.000393 0.449120 0.062622
C72   C     C_3   0.499978 0.500166 0.550864 0.062729
C73   C     C_3   0.500025 0.499835 0.449139 0.062743
C74   C     C_R   0.262534 0.130527 0.582056 -0.087065
C75   C     C_R   0.737476 0.869460 0.417938 -0.087079
C76   C     C_R   0.731041 0.123395 0.418601 -0.087251
C77   C     C_R   0.268845 0.876482 0.581433 -0.087257
C78   C     C_R   0.762493 0.630565 0.582063 -0.087731
C79   C     C_R   0.870419 0.738197 0.689786 -0.091445
C80   C     C_R   0.237475 0.369470 0.417939 -0.087727
C81   C     C_R   0.231132 0.623499 0.418574 -0.086601
C82   C     C_R   0.768979 0.376620 0.581392 -0.086597
C83   C     C_R   0.322035 0.125466 0.675416 -0.116430
C84   C     C_R   0.677978 0.874517 0.324578 -0.116432
C85   C     C_R   0.668705 0.115222 0.325429 -0.117397
C86   C     C_R   0.331140 0.884610 0.674615 -0.117391
C87   C     C_R   0.821993 0.625505 0.675424 -0.117150
C88   C     C_R   0.177957 0.374548 0.324578 -0.117082
C89   C     C_R   0.168832 0.615366 0.325394 -0.116828
C90   C     C_R   0.129551 0.261835 0.310215 -0.091438
C91   C     C_R   0.831315 0.384795 0.674563 -0.116858
C92   C     C_R   0.858372 0.765636 0.910039 0.026987
C93   C     C_R   0.866353 0.691533 0.904279 -0.099252
C94   C     C_R   0.822358 0.638199 0.883249 -0.114927
C95   C     C_R   0.769518 0.658350 0.866728 -0.089294
C96   C     C_R   0.761441 0.731702 0.872773 -0.094754
C97   C     C_R   0.806068 0.785086 0.895215 -0.092620
C98   C     C_R   0.141198 0.234608 0.089525 0.026945
C99   C     C_R   0.132771 0.308699 0.094723 -0.099388
C100  C     C_R   0.176550 0.362202 0.115530 -0.114985
C101  C     C_R   0.123568 0.731632 0.310632 -0.091260
C102  C     C_R   0.229624 0.342232 0.132407 -0.089295
C103  C     C_R   0.238141 0.268887 0.126919 -0.094793
C104  C     C_R   0.193723 0.215329 0.104687 -0.092618
C105  C     C_R   0.358232 0.265719 0.909901 0.026998
C106  C     C_R   0.366331 0.191618 0.904299 -0.098765
C107  C     C_R   0.322372 0.138252 0.883302 -0.115103
C108  C     C_R   0.269452 0.158365 0.866653 -0.091062
C109  C     C_R   0.261269 0.231716 0.872558 -0.094235
C110  C     C_R   0.305857 0.285137 0.894962 -0.092392
C111  C     C_R   0.641700 0.734336 0.090047 0.026984
C112  C     C_R   0.139978 0.139693 0.890040 0.475981
C113  C     C_R   0.876515 0.268459 0.689345 -0.091284
C114  C     C_R   0.633506 0.808446 0.095514 -0.098793
C115  C     C_R   0.677463 0.861838 0.116534 -0.115082
C116  C     C_R   0.730476 0.841739 0.133339 -0.091041
C117  C     C_R   0.738746 0.768380 0.127554 -0.094211
C118  C     C_R   0.694161 0.714933 0.105131 -0.092357
C119  C     C_R   0.370428 0.238191 0.689778 -0.091473
C120  C     C_R   0.629582 0.761797 0.310219 -0.091458
C121  C     C_R   0.623490 0.231542 0.310650 -0.091303
C122  C     C_R   0.376425 0.768364 0.689372 -0.091288
C123  C     C_R   0.810443 0.744563 0.595054 0.015126
C124  C     C_R   0.189542 0.255454 0.404947 0.015121
C125  C     C_R   0.186397 0.741125 0.405178 0.014114
C126  C     C_R   0.813651 0.258926 0.594810 0.014115
C127  C     C_R   0.310453 0.244556 0.595048 0.015113
C128  C     C_R   0.139882 0.860231 0.889868 0.483686
C129  C     C_R   0.689553 0.755437 0.404950 0.015115
C130  C     C_R   0.686355 0.241075 0.405187 0.014099
C131  C     C_R   0.313597 0.758873 0.594826 0.014096
C132  C     C_R   0.255778 0.190053 0.540484 0.013390
C133  C     C_R   0.744228 0.809941 0.459514 0.013389
C134  C     C_R   0.740926 0.186411 0.459841 0.013424
C135  C     C_R   0.259019 0.813529 0.540177 0.013423
C136  C     C_R   0.755759 0.690068 0.540489 0.013629
C137  C     C_R   0.244226 0.309949 0.459512 0.013623
C138  C     C_R   0.240971 0.686465 0.459828 0.013277
C139  C     C_R   0.860116 0.139766 0.110133 0.483686
C140  C     C_R   0.759084 0.313594 0.540155 0.013283
C141  C     C_R   0.804194 0.803974 0.554063 0.014604
C142  C     C_R   0.195805 0.196028 0.445936 0.014605
C143  C     C_R   0.195875 0.804084 0.445876 0.014568
C144  C     C_R   0.804123 0.195913 0.554128 0.014563
C145  C     C_R   0.304196 0.303976 0.554059 0.014763
C146  C     C_R   0.695803 0.696026 0.445941 0.014758
C147  C     C_R   0.695880 0.304087 0.445870 0.014424
C148  C     C_R   0.304122 0.695916 0.554127 0.014429
C149  C     C_R   0.711528 0.895814 0.988104 -0.096825
C150  C     C_R   0.360018 0.360311 0.109955 0.476266
C151  C     C_R   0.288472 0.104164 0.011958 -0.096772
C152  C     C_R   0.268578 0.876480 0.956476 -0.093615
C153  C     C_R   0.731444 0.123547 0.043572 -0.093616
C154  C     C_R   0.211484 0.395873 0.987886 -0.097092
C155  C     C_R   0.788485 0.604174 0.011955 -0.097023
C156  C     C_R   0.768542 0.376444 0.956396 -0.094269
C157  C     C_R   0.231430 0.623521 0.043544 -0.094286
C158  C     C_R   0.640133 0.913159 0.930759 -0.117608
C159  C     C_R   0.359882 0.086791 0.069372 -0.117626
C160  C     C_R   0.330822 0.884685 0.988243 -0.125867
C161  C     C_R   0.639985 0.639685 0.890045 0.476253
C162  C     C_R   0.669202 0.115350 0.011810 -0.125847
C163  C     C_R   0.140062 0.413258 0.930424 -0.117864
C164  C     C_R   0.859884 0.586823 0.069316 -0.117778
C165  C     C_R   0.830782 0.384640 0.988155 -0.126428
C166  C     C_R   0.169184 0.615313 0.011774 -0.126459
C167  C     C_R   0.087048 0.359077 0.878888 -0.110020
C168  C     C_R   0.912887 0.641014 0.120836 -0.110048
C169  C     C_R   0.884736 0.331034 0.042362 -0.114682
C170  C     C_R   0.115247 0.668937 0.957607 -0.114676
C171  C     C_R   0.587131 0.858967 0.879244 -0.110073
C172  C     C_R   0.639885 0.360236 0.889866 0.483445
C173  C     C_R   0.412905 0.140964 0.120944 -0.110142
C174  C     C_R   0.384755 0.831058 0.042403 -0.114723
C175  C     C_R   0.615253 0.168960 0.957612 -0.114727
C176  C     C_R   0.105045 0.287307 0.884071 -0.081006
C177  C     C_R   0.894908 0.712758 0.115750 -0.081029
C178  C     C_R   0.876529 0.268738 0.064660 -0.085214
C179  C     C_R   0.123467 0.731249 0.935338 -0.085210
C180  C     C_R   0.605108 0.787225 0.884316 -0.081215
C181  C     C_R   0.394927 0.212719 0.115835 -0.081247
C182  C     C_R   0.376533 0.768745 0.064667 -0.085165
C183  C     C_R   0.360116 0.639766 0.110133 0.483453
C184  C     C_R   0.623465 0.231260 0.935326 -0.085171
C185  C     C_R   0.176963 0.268431 0.940397 0.005815
C186  C     C_R   0.823014 0.731599 0.059520 0.005869
C187  C     C_R   0.813563 0.258991 0.032779 0.013324
C188  C     C_R   0.186432 0.741000 0.967214 0.013315
C189  C     C_R   0.676997 0.768390 0.940530 0.005824
C190  C     C_R   0.323017 0.231586 0.059540 0.005864
C191  C     C_R   0.313567 0.758996 0.032791 0.013331
C192  C     C_R   0.686434 0.241008 0.967211 0.013337
C193  C     C_R   0.139761 0.139826 0.389827 0.481472
C194  C     C_R   0.875828 0.679155 0.729137 -0.124570
C195  C     C_R   0.860239 0.860174 0.610173 0.481469
C196  C     C_R   0.860271 0.139795 0.610280 0.481695
C197  C     C_R   0.139730 0.860206 0.389725 0.481702
C198  C     C_R   0.639761 0.639824 0.389830 0.481275
C199  C     C_R   0.360239 0.360177 0.610170 0.481276
C200  C     C_R   0.360270 0.639795 0.610277 0.481958
C201  C     C_R   0.639730 0.360205 0.389720 0.481949
C202  C     C_R   0.731133 0.823326 0.993722 0.000234
C203  C     C_R   0.268870 0.176661 0.006323 0.000307
C204  C     C_R   0.258979 0.813615 0.978166 0.013787
H1    H     H_    0.109335 0.062772 0.642388 0.112281
H2    H     H_    0.437906 0.253012 0.155663 0.120120
H3    H     H_    0.328826 0.081356 0.879025 0.095620
H4    H     H_    0.234784 0.117111 0.849179 0.105073
H5    H     H_    0.220024 0.247321 0.859227 0.127851
H6    H     H_    0.297869 0.341832 0.897827 0.125776
H7    H     H_    0.593300 0.824907 0.083792 0.093511
H8    H     H_    0.670936 0.918746 0.120710 0.095594
H9    H     H_    0.765142 0.883015 0.150836 0.105039
H10   H     H_    0.780058 0.752789 0.140997 0.127830
H11   H     H_    0.702222 0.658227 0.102368 0.125731
H12   H     H_    0.419835 0.728385 0.106752 0.105982
H13   H     H_    0.580155 0.271612 0.893216 0.105997
H14   H     H_    0.116658 0.222530 0.168360 0.114600
H15   H     H_    0.883047 0.777631 0.831332 0.114600
H16   H     H_    0.617024 0.722327 0.168738 0.114750
H17   H     H_    0.382858 0.277734 0.831142 0.114757
H18   H     H_    0.930219 0.878784 0.024572 0.124946
H19   H     H_    0.069692 0.121262 0.975335 0.124992
H20   H     H_    0.430091 0.378841 0.024444 0.125083
H21   H     H_    0.890662 0.937228 0.357609 0.112278
H22   H     H_    0.569939 0.621146 0.975588 0.125121
H23   H     H_    0.944629 0.874215 0.847660 0.122054
H24   H     H_    0.055285 0.125819 0.152257 0.122022
H25   H     H_    0.444514 0.374264 0.847547 0.122104
H26   H     H_    0.555422 0.625756 0.152388 0.122068
H27   H     H_    0.109351 0.937137 0.577075 0.113826
H28   H     H_    0.890646 0.062863 0.422922 0.113839
H29   H     H_    0.000006 0.873399 0.531304 0.136531
H30   H     H_    0.999990 0.126600 0.468693 0.136533
H31   H     H_    0.499927 0.373535 0.467994 0.136016
H32   H     H_    0.609291 0.436926 0.642042 0.113372
H33   H     H_    0.500076 0.626465 0.532009 0.136020
H34   H     H_    0.390604 0.437152 0.422516 0.114281
H35   H     H_    0.609399 0.562848 0.577488 0.114250
H36   H     H_    0.077972 0.325007 0.198387 0.092024
H37   H     H_    0.921968 0.675058 0.801617 0.092026
H38   H     H_    0.932962 0.337041 0.800782 0.104023
H39   H     H_    0.067187 0.663125 0.199173 0.103983
H40   H     H_    0.578027 0.824940 0.198389 0.092036
H41   H     H_    0.421984 0.175045 0.801602 0.092055
H42   H     H_    0.432793 0.836858 0.800835 0.103993
H43   H     H_    0.390712 0.563075 0.357961 0.113398
H44   H     H_    0.567049 0.162967 0.199207 0.103990
H45   H     H_    0.222074 0.087402 0.543020 0.105508
H46   H     H_    0.777936 0.912586 0.456975 0.105495
H47   H     H_    0.771312 0.080010 0.457729 0.106267
H48   H     H_    0.228559 0.919853 0.542311 0.106223
H49   H     H_    0.722018 0.587453 0.543024 0.104865
H50   H     H_    0.277948 0.412582 0.456977 0.104882
H51   H     H_    0.271411 0.580121 0.457698 0.106713
H52   H     H_    0.728715 0.420012 0.542265 0.106750
H53   H     H_    0.326389 0.079695 0.706190 0.097954
H54   H     H_    0.062071 0.247013 0.844265 0.120145
H55   H     H_    0.673627 0.920283 0.293800 0.097943
H56   H     H_    0.662013 0.066837 0.294894 0.100188
H57   H     H_    0.337787 0.932947 0.705162 0.100152
H58   H     H_    0.826332 0.579749 0.706201 0.097484
H59   H     H_    0.173603 0.420321 0.293801 0.097546
H60   H     H_    0.162174 0.567018 0.294849 0.100373
H61   H     H_    0.838014 0.433186 0.705094 0.100403
H62   H     H_    0.913656 0.778577 0.734319 0.098804
H63   H     H_    0.086314 0.221456 0.265683 0.098803
H64   H     H_    0.080437 0.772160 0.266023 0.103544
H65   H     H_    0.937872 0.753063 0.155546 0.120057
H66   H     H_    0.919635 0.227920 0.733959 0.103547
H67   H     H_    0.413655 0.278582 0.734309 0.098806
H68   H     H_    0.586356 0.721407 0.265688 0.098808
H69   H     H_    0.580365 0.272076 0.266037 0.103556
H70   H     H_    0.419561 0.727842 0.733981 0.103563
H71   H     H_    0.968072 0.627472 0.164481 0.113836
H72   H     H_    0.031842 0.372648 0.835159 0.113901
H73   H     H_    0.066912 0.662351 0.932918 0.101068
H74   H     H_    0.933070 0.337617 0.067054 0.101053
H75   H     H_    0.468103 0.127400 0.164646 0.113844
H76   H     H_    0.919842 0.228389 0.106774 0.105983
H77   H     H_    0.531950 0.872504 0.835613 0.113810
H78   H     H_    0.566917 0.162377 0.932918 0.101070
H79   H     H_    0.433090 0.837642 0.067090 0.101060
H80   H     H_    0.750978 0.939759 0.028775 0.123995
H81   H     H_    0.249011 0.060230 0.971245 0.123999
H82   H     H_    0.228121 0.919678 0.914611 0.101630
H83   H     H_    0.771912 0.080360 0.085461 0.101630
H84   H     H_    0.250935 0.439815 0.028577 0.124203
H85   H     H_    0.749034 0.560229 0.971279 0.124103
H86   H     H_    0.728070 0.419626 0.914497 0.101087
H87   H     H_    0.080162 0.771608 0.893249 0.105974
H88   H     H_    0.271891 0.580328 0.085417 0.101079
H89   H     H_    0.626062 0.968738 0.927088 0.114749
H90   H     H_    0.373949 0.031204 0.073055 0.114779
H91   H     H_    0.337187 0.932850 0.970681 0.096853
H92   H     H_    0.662853 0.067203 0.029404 0.096844
H93   H     H_    0.125982 0.468857 0.926690 0.114917
H94   H     H_    0.873954 0.531244 0.072991 0.114858
H95   H     H_    0.837127 0.432784 0.970552 0.096543
H96   H     H_    0.162820 0.567148 0.029337 0.096516
H97   H     H_    0.906425 0.675027 0.915785 0.093453
H98   H     H_    0.562146 0.746916 0.844521 0.120034
H99   H     H_    0.828719 0.581299 0.878843 0.095526
H100  H     H_    0.734829 0.617123 0.849243 0.107518
H101  H     H_    0.720246 0.747340 0.859521 0.127465
H102  H     H_    0.798159 0.841786 0.898192 0.125793
H103  H     H_    0.092516 0.325057 0.082947 0.093535
H104  H     H_    0.169840 0.419095 0.119489 0.095522
H105  H     H_    0.264151 0.383595 0.149732 0.107327
H106  H     H_    0.279513 0.253394 0.140437 0.127419
H107  H     H_    0.201957 0.158642 0.102128 0.125741
H108  H     H_    0.406465 0.175145 0.915903 0.093516
O1    O     O_3   0.999990 1.000000 0.249990 -0.442944
O2    O     O_R   0.585440 0.646160 0.804690 -0.546497
O3    O     O_R   0.585440 0.353840 0.804690 -0.538719
O4    O     O_R   0.414560 0.646160 0.195310 -0.538698
O5    O     O_R   0.085440 0.146150 0.366190 -0.539993
O6    O     O_R   0.914560 0.853850 0.633810 -0.539987
O7    O     O_R   0.914560 0.146150 0.633810 -0.542803
O8    O     O_R   0.085440 0.853850 0.366190 -0.542801
O9    O     O_R   0.585440 0.646150 0.366190 -0.539797
O10   O     O_R   0.414560 0.353850 0.633810 -0.539792
O11   O     O_R   0.414560 0.646150 0.633810 -0.542927
O12   O     O_3   0.000010 0.000000 0.750010 -0.442948
O13   O     O_R   0.585440 0.353850 0.366190 -0.542936
O14   O     O_R   0.853820 0.085430 0.073070 -0.541054
O15   O     O_R   0.146180 0.914570 0.926930 -0.541065
O16   O     O_R   0.146180 0.085430 0.926930 -0.551938
O17   O     O_R   0.853820 0.914570 0.073070 -0.552023
O18   O     O_R   0.353820 0.585430 0.073070 -0.541152
O19   O     O_R   0.646180 0.414570 0.926930 -0.541124
O20   O     O_R   0.646180 0.585430 0.926930 -0.551877
O21   O     O_R   0.353820 0.414570 0.073070 -0.551925
O22   O     O_R   0.146150 0.914540 0.365390 -0.536286
O23   O     O_3   0.499990 0.500000 0.249990 -0.442920
O24   O     O_R   0.853850 0.085460 0.634610 -0.536302
O25   O     O_R   0.853850 0.914540 0.634610 -0.540757
O26   O     O_R   0.146150 0.085460 0.365390 -0.540735
O27   O     O_R   0.646150 0.414540 0.365390 -0.536238
O28   O     O_R   0.353850 0.585460 0.634610 -0.536217
O29   O     O_R   0.353850 0.414540 0.634610 -0.540841
O30   O     O_R   0.646150 0.585460 0.365390 -0.540840
O31   O     O_R   0.939240 0.000000 0.071950 -0.550536
O32   O     O_R   0.060760 0.000000 0.928050 -0.550486
O33   O     O_R   0.439240 0.500000 0.071950 -0.550548
O34   O     O_3   0.500010 0.500000 0.750010 -0.442923
O35   O     O_R   0.560760 0.500000 0.928050 -0.550548
O36   O     O_R   0.000020 0.939290 0.367320 -0.540207
O37   O     O_R   0.999980 0.060710 0.632680 -0.540196
O38   O     O_R   0.999980 0.939290 0.632680 -0.545189
O39   O     O_R   0.000020 0.060710 0.367320 -0.545190
O40   O     O_R   0.500020 0.439290 0.367320 -0.545938
O41   O     O_R   0.499980 0.560710 0.632680 -0.545970
O42   O     O_R   0.499980 0.439290 0.632680 -0.539569
O43   O     O_R   0.500020 0.560710 0.367320 -0.539573
O44   O     O_R   0.060680 0.000000 0.193390 -0.540696
O45   O     O_R   0.914560 0.853840 0.195310 -0.546207
O46   O     O_R   0.939320 0.000000 0.806610 -0.540712
O47   O     O_R   0.560680 0.500000 0.193390 -0.540708
O48   O     O_R   0.439320 0.500000 0.806610 -0.540723
O49   O     O_R   0.085440 0.146160 0.804690 -0.546266
O50   O     O_R   0.085440 0.853840 0.804690 -0.538887
O51   O     O_R   0.914560 0.146160 0.195310 -0.538898
O52   O     O_R   0.414560 0.353840 0.195310 -0.546484
Zn1   Zn    Zn3+2 1.000000 0.086750 0.293940 0.924752
Zn2   Zn    Zn3+2 0.086780 0.000000 0.880710 0.912299
Zn3   Zn    Zn3+2 0.413220 0.500000 0.119290 0.912213
Zn4   Zn    Zn3+2 0.586780 0.500000 0.880710 0.912241
Zn5   Zn    Zn3+2 0.086730 0.000000 0.292800 0.926236
Zn6   Zn    Zn3+2 0.913270 0.000000 0.707200 0.926216
Zn7   Zn    Zn3+2 0.586730 0.500000 0.292800 0.926226
Zn8   Zn    Zn3+2 0.413270 0.500000 0.707200 0.926230
Zn9   Zn    Zn3+2 1.000000 0.913250 0.706060 0.924758
Zn10  Zn    Zn3+2 1.000000 0.086750 0.706060 0.918630
Zn11  Zn    Zn3+2 1.000000 0.913250 0.293940 0.918641
Zn12  Zn    Zn3+2 0.500000 0.586750 0.293940 0.926779
Zn13  Zn    Zn3+2 0.500000 0.413250 0.706060 0.926764
Zn14  Zn    Zn3+2 0.500000 0.586750 0.706060 0.916473
Zn15  Zn    Zn3+2 0.500000 0.413250 0.293940 0.916504
Zn16  Zn    Zn3+2 0.913220 0.000000 0.119290 0.912230

loop_
_geom_bond_atom_site_label_1
_geom_bond_atom_site_label_2
_ccdc_geom_bond_type
C105  C110  A    
C50   O33   A    
O34   Zn4   S    
C74   C83   A    
C21   C26   A    
C114  C115  A    
C174  H79   S    
C97   H102  S    
O8    Zn11  S    
C80   H50   S    
C115  H8    S    
C111  C118  A    
C158  C171  A    
C193  O5    A    
C145  C199  S    
C122  H70   S    
C59   C66   S    
C128  O50   A    
C152  H82   S    
C54   O43   A    
C52   O36   A    
C106  C107  A    
C58   C60   S    
C80   C137  A    
C180  H98   S    
C104  H107  S    
C108  C109  A    
C17   C39   A    
C61   C63   S    
C18   C40   A    
C82   C140  A    
C168  H71   S    
C12   C161  S    
C112  O16   A    
C40   C43   A    
C24   H38   S    
C118  H11   S    
C107  H3    S    
O1    Zn11  S    
C1    O17   A    
C7    C15   A    
C139  O14   A    
C155  H85   S    
O34   Zn14  S    
C130  C134  A    
C160  C174  A    
C5    C186  A    
C109  H5    S    
O29   Zn8   S    
C25   C29   A    
C81   C138  A    
C143  C197  S    
O16   Zn2   S    
C35   H41   S    
C172  O3    A    
C27   C31   A    
C124  C137  A    
C28   C32   A    
C5    C12   A    
C148  C200  S    
C199  O10   A    
C179  C188  A    
C68   H42   S    
C5    C155  A    
O23   Zn15  S    
C17   C21   A    
C177  C186  A    
C120  C129  A    
C42   C45   A    
C19   C23   A    
O41   Zn14  S    
C181  C190  A    
C7    C188  A    
O17   Zn16  S    
C123  C141  A    
C18   H19   S    
C79   C194  A    
C87   H58   S    
C127  C145  A    
C46   C84   A    
O24   Zn6   S    
C60   C65   S    
C94   C95   A    
C22   C27   A    
C36   C44   A    
C37   C45   A    
C15   C191  A    
C19   H20   S    
C20   C42   A    
C113  C126  A    
C125  C138  A    
C119  H67   S    
O33   Zn3   S    
C33   C38   A    
C120  H68   S    
C56   C59   S    
O23   Zn3   S    
C90   H63   S    
C80   C88   A    
C102  H105  S    
C49   O32   A    
C197  O8    A    
C57   C85   A    
O4    Zn12  S    
C11   C204  A    
C4    C14   A    
C58   H28   S    
C9    C202  A    
C53   O37   A    
C27   H14   S    
C98   C99   A    
C31   C36   A    
O47   Zn7   S    
C91   H61   S    
C76   C85   A    
C136  C146  A    
C44   C48   S    
C21   C92   S    
C78   C87   A    
O3    Zn13  S    
O42   Zn13  S    
O12   Zn9   S    
C22   C98   S    
C29   C33   A    
C121  C130  A    
C108  H4    S    
O5    Zn1   S    
C174  C182  A    
C193  O26   A    
C62   H33   S    
C180  C189  A    
O31   Zn16  S    
C163  H93   S    
C75   C84   A    
C65   H1    S    
C115  C116  A    
C23   C105  S    
C20   H22   S    
C66   H21   S    
O21   Zn3   S    
C67   C72   S    
O48   Zn8   S    
C201  O27   A    
O1    Zn1   S    
C63   C69   S    
C138  C148  A    
C153  H83   S    
C62   C64   S    
C64   C73   S    
C154  H84   S    
O34   Zn8   S    
C75   H46   S    
C149  C158  A    
C135  C143  A    
O43   Zn12  S    
C31   H24   S    
C59   H29   S    
C151  H81   S    
C140  C147  A    
C92   C97   A    
C47   C50   S    
C67   H32   S    
C30   C34   A    
C156  H86   S    
C34   C39   A    
O45   Zn11  S    
C147  C201  S    
C9    C186  A    
O7    Zn10  S    
C162  C175  A    
C183  O4    A    
C6    C16   A    
C56   H27   S    
C151  C159  A    
C114  H7    S    
C146  C198  S    
C96   H101  S    
C61   C67   S    
O20   Zn4   S    
O23   Zn12  S    
C41   C47   A    
C128  O15   A    
C46   C120  A    
C77   H48   S    
C32   C37   A    
C81   H51   S    
C99   H103  S    
C11   C188  A    
C101  H64   S    
C26   C30   A    
C61   H31   S    
O49   Zn10  S    
O37   Zn10  S    
O11   Zn14  S    
C122  C131  A    
C49   O46   A    
C74   H45   S    
C26   H15   S    
C18   C22   A    
C78   H49   S    
C34   C43   A    
C158  H89   S    
C116  H9    S    
C177  H65   S    
C167  H72   S    
C165  H95   S    
C166  H96   S    
C39   C44   A    
C144  C196  S    
C189  C202  A    
C54   O40   A    
C170  C179  A    
C181  H2    S    
C50   O47   A    
C3    C192  A    
C106  H108  S    
C125  C143  A    
C126  C144  A    
O9    Zn12  S    
C195  O25   A    
C37   C41   A    
C102  C103  A    
C25   C111  S    
C134  C144  A    
C14   C190  A    
C19   C41   A    
C7    C157  A    
C169  H74   S    
C51   O48   A    
C149  C202  A    
C6    C156  A    
O12   Zn6   S    
C119  C127  A    
C4    C154  A    
C194  H37   S    
O23   Zn7   S    
C84   H55   S    
C46   H40   S    
C94   H99   S    
C82   H52   S    
C176  C185  A    
C12   C189  A    
C137  C145  A    
O36   Zn11  S    
C8    C112  S    
O38   Zn9   S    
C20   C25   A    
O13   Zn15  S    
C168  C177  A    
C1    O45   A    
C79   H62   S    
C141  C195  S    
C149  H80   S    
O6    Zn9   S    
C29   H16   S    
C15   C183  S    
O25   Zn6   S    
C184  C192  A    
C69   C73   S    
C161  O2    A    
C175  H78   S    
C81   C89   A    
C130  C147  A    
C173  C181  A    
C165  C169  A    
C157  H88   S    
C55   O41   A    
C110  H6    S    
C200  O11   A    
C57   H44   S    
C53   C70   S    
O2    Zn14  S    
O44   Zn5   S    
O27   Zn7   S    
C60   H30   S    
O39   Zn1   S    
C160  H91   S    
C68   C122  A    
C76   C134  A    
O1    Zn5   S    
C60   C71   S    
C61   C73   S    
C199  O29   A    
C6    C187  A    
C62   C69   S    
C4    C185  A    
O46   Zn6   S    
C54   C73   S    
C66   C71   S    
C164  C168  A    
C56   C71   S    
C14   C150  S    
C1    C9    S    
O12   Zn2   S    
C129  C146  A    
C178  C187  A    
C184  H13   S    
C155  C164  A    
O34   Zn13  S    
O22   Zn5   S    
C191  C204  A    
C32   H25   S    
C35   C83   A    
O40   Zn15  S    
C90   C124  A    
C30   H23   S    
C8    C203  A    
C58   C70   S    
O26   Zn5   S    
C201  O13   A    
C172  O19   A    
C75   C133  A    
C105  C106  A    
C133  C141  A    
C196  O7    A    
C153  C162  A    
C52   C71   S    
C109  C110  A    
C2    H36   S    
C156  C165  A    
C92   C93   A    
C142  C193  S    
C83   H53   S    
C111  C114  A    
C139  O51   A    
C117  H10   S    
C48   O44   A    
C121  H69   S    
C10   C139  S    
C82   C91   A    
C59   C70   S    
C198  O30   A    
O14   Zn16  S    
C63   C72   S    
C2    C90   A    
C103  C104  A    
C152  C204  A    
C117  C118  A    
C76   H47   S    
C65   C70   S    
C150  O21   A    
C175  C184  A    
C173  H75   S    
O35   Zn4   S    
C152  C160  A    
C93   C94   A    
C74   C132  A    
C68   C86   A    
C35   C119  A    
C95   C96   A    
C159  H90   S    
C176  H54   S    
C63   H34   S    
C195  O6    A    
C13   H39   S    
C126  C140  A    
O19   Zn4   S    
C150  O52   A    
C93   H97   S    
C38   C42   A    
C131  C135  A    
C190  C203  A    
C45   C51   S    
C56   C65   S    
O15   Zn2   S    
C3    C153  A    
C116  C117  A    
C170  H73   S    
C127  C132  A    
C64   H35   S    
C17   H18   S    
C16   C192  A    
O12   Zn10  S    
C53   O38   A    
C58   C66   S    
C28   H17   S    
C196  O24   A    
C95   H100  S    
C179  H87   S    
C86   H57   S    
C164  H94   S    
C55   C72   S    
O32   Zn2   S    
C24   C113  A    
O28   Zn8   S    
C182  H12   S    
O51   Zn1   S    
C124  C142  A    
C198  O9    A    
C162  H92   S    
C55   O42   A    
C69   H43   S    
C13   C89   A    
C132  C142  A    
C112  O49   A    
C64   C67   S    
C154  C163  A    
C36   C40   A    
C113  H66   S    
O18   Zn3   S    
C43   C49   S    
C183  O18   A    
C79   C123  A    
O30   Zn7   S    
C163  C167  A    
C16   C172  S    
C101  C125  A    
C99   C100  A    
C107  C108  A    
C96   C97   A    
C100  C102  A    
C10   C187  A    
C197  O22   A    
O10   Zn13  S    
C62   C72   S    
C131  C148  A    
C89   H60   S    
C2    C88   A    
C38   C47   A    
C77   C86   A    
O50   Zn9   S    
C159  C173  A    
C129  C133  A    
C171  C180  A    
C23   C28   A    
O52   Zn15  S    
C13   C101  A    
C33   H26   S    
C24   C91   A    
C169  C178  A    
C52   O39   A    
C51   O35   A    
C48   O31   A    
C87   C194  A    
C151  C203  A    
C157  C166  A    
C8    C185  A    
C103  H106  S    
C161  O20   A    
C123  C136  A    
C11   C128  S    
C3    C10   A    
O1    Zn16  S    
C200  O28   A    
C98   C104  A    
C166  C170  A    
C85   H56   S    
C57   C121  A    
C100  H104  S    
C178  H76   S    
C182  C191  A    
C77   C135  A    
C171  H77   S    
C78   C136  A    
C88   H59   S    
C167  C176  A    
