data_mof_unit_60377.cif
_audit_creation_date              2013-03-05T16:18:32-0500
_audit_creation_method            fapswitch 2.2
_symmetry_space_group_name_H-M    P1
_symmetry_Int_Tables_number       1
_space_group_crystal_system       triclinic
_cell_length_a                    8.265988
_cell_length_b                    18.774592
_cell_length_c                    22.872208
_cell_angle_alpha                 98.524317
_cell_angle_beta                  90.390334
_cell_angle_gamma                 90.651331
_cell_volume                      3509.98244155

loop_
_atom_site_label
_atom_site_type_symbol
_atom_site_description
_atom_site_fract_x
_atom_site_fract_y
_atom_site_fract_z
_atom_type_partial_charge
P1    P     P_3+3 0.935930 0.665430 0.555670 0.460959
O1    O     O_2   0.110690 0.676100 0.539200 -0.367702
O2    O     O_3   0.863220 0.586720 0.534720 -0.407491
O3    O     O_3   0.368310 0.629070 0.432760 -0.367843
O4    O     O_2   0.241480 0.752447 0.471940 -0.333603
O5    O     O_3   0.940147 0.682929 0.632997 -0.572628
O6    O     O_3   0.321102 0.735278 0.361079 -0.517759
C1    C     C_3   0.536097 0.777482 0.304568 -1.002380
H1    H     H_    0.453185 0.818232 0.290854 0.293306
H2    H     H_    0.606236 0.802637 0.343543 0.222887
P2    P     P_3+3 0.382700 0.439650 0.365620 0.491420
P3    P     P_3+3 0.945737 0.587556 0.325059 0.537617
O7    O     O_2   0.210480 0.460990 0.358130 -0.401311
O8    O     O_3   0.959520 0.592090 0.401630 -0.400705
O9    O     O_2   0.091353 0.544561 0.297379 -0.338033
O10   O     O_3   0.394204 0.345010 0.355046 -0.557279
O11   O     O_3   0.978239 0.673825 0.306923 -0.448541
C2    C     C_3   0.926429 0.725275 0.353606 0.482750
H3    H     H_    0.000726 0.723311 0.393945 0.147229
H4    H     H_    0.797229 0.716341 0.363592 -0.025182
C3    C     C_3   0.948000 0.799706 0.335779 -0.868149
H5    H     H_    0.076645 0.809072 0.325592 0.306161
H6    H     H_    0.876496 0.804179 0.295389 0.260114
C4    C     C_3   0.811922 0.375334 0.343058 0.368779
H7    H     H_    0.701465 0.396543 0.365618 0.126551
H8    H     H_    0.907379 0.417858 0.347040 0.106825
C5    C     C_3   0.773967 0.350223 0.277981 -0.896965
H9    H     H_    0.672761 0.310332 0.273630 0.275581
H10   H     H_    0.739357 0.395891 0.255527 0.216889
H11   H     H_    0.881799 0.324800 0.255483 0.266970
Ba1   Ba    Ba6+2 0.157800 0.534120 0.474430 1.595114
C6    C     C_3   0.974072 0.619596 0.655769 0.421018
H12   H     H_    0.094545 0.600200 0.641078 0.082505
H13   H     H_    0.882877 0.577058 0.641115 0.147603
C7    C     C_3   0.970786 0.635595 0.722897 -0.926245
H14   H     H_    0.070257 0.673789 0.739288 0.252698
H15   H     H_    0.985454 0.585221 0.742082 0.234228
H16   H     H_    0.852992 0.659589 0.737638 0.274967
C8    C     C_3   0.253371 0.311130 0.329353 0.594228
H17   H     H_    0.144919 0.333509 0.352457 0.099528
C9    C     C_3   0.243083 0.314372 0.263062 -0.861321
H18   H     H_    0.197720 0.367461 0.255374 0.241765
H19   H     H_    0.156462 0.272946 0.241382 0.247528
H20   H     H_    0.363569 0.304854 0.242377 0.275379
P4    P     P_3+3 0.874370 0.334570 0.444280 0.488924
O12   O     O_2   0.699610 0.323860 0.460780 -0.328043
O13   O     O_3   0.947090 0.413280 0.465240 -0.401158
O14   O     O_3   0.442000 0.370930 0.567190 -0.369197
O15   O     O_3   0.865714 0.315947 0.367135 -0.581251
P5    P     P_3+3 0.872763 0.410439 0.675445 0.552185
O16   O     O_3   0.359410 0.538600 0.570730 -0.381603
O17   O     O_3   0.850780 0.407910 0.598320 -0.347858
O18   O     O_2   0.776738 0.475925 0.705243 -0.323278
O19   O     O_3   0.766284 0.336354 0.696147 -0.441219
Ba2   Ba    Ba6+2 0.652390 0.465870 0.525520 1.628047
P6    P     P_3+3 0.381865 0.721467 0.432214 0.495708
C10   C     C_3   0.440522 0.712740 0.318997 0.745183
H21   H     H_    0.522601 0.671164 0.332094 -0.021272
H22   H     H_    0.620535 0.760013 0.267863 0.260111
O20   O     O_3   0.450900 0.461390 0.429220 -0.348435
C11   C     C_3   0.479020 0.692899 0.627024 0.203249
H23   H     H_    0.603318 0.674259 0.615310 0.092039
H24   H     H_    0.401964 0.687884 0.586619 0.140510
C12   C     C_3   0.486906 0.771498 0.656731 -0.131809
H25   H     H_    0.579394 0.776877 0.692739 0.146680
H26   H     H_    0.368172 0.786920 0.677148 0.147616
P7    P     P_3+3 0.416518 0.560944 0.644658 0.472789
O21   O     O_2   0.599830 0.538970 0.641850 -0.344609
O22   O     O_3   0.410062 0.653789 0.668297 -0.600498
H27   H     H_    0.908922 0.841674 0.372110 0.210996
C13   C     C_3   0.873402 0.279006 0.700138 0.679986
H28   H     H_    0.996034 0.296608 0.715045 -0.032774
C14   C     C_3   0.811880 0.230741 0.743356 -0.766432
H29   H     H_    0.691724 0.207571 0.729085 0.258544
H30   H     H_    0.897094 0.185753 0.745090 0.206250
H31   H     H_    0.804384 0.261166 0.788566 0.285555
P8    P     P_3+3 0.433271 0.276923 0.562249 0.546942
C15   C     C_3   0.349338 0.290126 0.671208 0.325812
H32   H     H_    0.227187 0.278402 0.651379 -0.025972
O23   O     O_2   0.585433 0.248520 0.528209 -0.308331
O24   O     O_3   0.469100 0.257303 0.633721 -0.471115
H33   H     H_    0.371281 0.349060 0.678844 0.121739
H34   H     H_    0.230456 0.254746 0.746704 0.148331
C16   C     C_3   0.354689 0.261252 0.730366 -0.240823
H35   H     H_    0.410499 0.207235 0.725277 0.183272
C17   C     C_R   0.992916 0.949543 0.524364 0.077257
C18   C     C_R   0.060716 0.902905 0.560564 -0.113194
C19   C     C_R   0.217695 0.037530 0.542601 -0.220435
C20   C     C_R   0.063016 0.018435 0.520168 0.036005
C21   C     C_R   0.287237 0.105151 0.541300 0.227792
C22   C     C_R   0.198493 0.160288 0.518811 -0.083828
C23   C     C_R   0.046686 0.139056 0.490077 0.030973
C24   C     C_R   0.982270 0.067533 0.489501 0.075482
C25   C     C_R   0.246553 0.235023 0.524470 0.187117
C26   C     C_R   0.142565 0.284672 0.503445 -0.427928
C27   C     C_R   0.996911 0.263977 0.474123 0.248998
C28   C     C_R   0.953450 0.189993 0.464385 0.009556
C29   C     C_R   0.848178 0.927225 0.493198 0.055993
C30   C     C_R   0.783512 0.855937 0.493646 0.013922
C31   C     C_R   0.870759 0.806910 0.523719 0.005056
C32   C     C_R   0.003022 0.833179 0.559397 0.009911
H36   H     H_    0.177020 0.341054 0.509173 0.171839
H37   H     H_    0.062904 0.800808 0.588062 0.164941
C33   C     C_R   0.817439 0.165414 0.430064 -0.046873
C34   C     C_R   0.762103 0.094941 0.426422 -0.170204
C35   C     C_R   0.835254 0.045995 0.459388 0.097123
C36   C     C_R   0.766586 0.976401 0.462684 0.025597
C37   C     C_R   0.611315 0.957069 0.440785 -0.232353
C38   C     C_R   0.630404 0.834996 0.466188 -0.054254
C39   C     C_R   0.540602 0.890096 0.443985 0.247161
C40   C     C_R   0.577918 0.761309 0.463895 0.220376
C41   C     C_R   0.677087 0.712617 0.488687 -0.502248
C42   C     C_R   0.820370 0.734019 0.519615 0.220336
H38   H     H_    0.750723 0.200138 0.405276 0.180676
H39   H     H_    0.638153 0.657057 0.486248 0.176965
H40   H     H_    0.292350 0.997958 0.558849 0.186372
H41   H     H_    0.157865 0.919288 0.591476 0.157124
H42   H     H_    0.660161 0.080743 0.397260 0.144615
H43   H     H_    0.536147 0.995939 0.423979 0.169952
H44   H     H_    0.006835 0.414767 0.975325 0.197728
C43   C     C_R   0.643398 0.525145 0.334911 -0.545133
C44   C     C_R   0.451423 0.546443 0.937778 -0.059974
C45   C     C_R   0.410616 0.536624 0.876982 0.583142
O25   O     O_2   0.512319 0.551128 0.842029 -0.546066
N1    N     N_R   0.258141 0.509306 0.857439 -0.166401
C46   C     C_R   0.148877 0.495528 0.900570 0.632422
O26   O     O_2   0.003433 0.497000 0.891664 -0.525089
C47   C     C_R   0.205578 0.482872 0.956105 -0.104920
C48   C     C_R   0.354537 0.512818 0.976049 -0.009550
C49   C     C_R   0.588051 0.586584 0.961057 -0.064681
C50   C     C_R   0.622355 0.594613 0.021746 -0.087150
C51   C     C_R   0.532374 0.555711 0.058844 -0.048427
C52   C     C_R   0.404702 0.510841 0.034819 -0.039461
C53   C     C_R   0.119450 0.440804 0.991518 -0.122079
C54   C     C_R   0.185534 0.426226 0.045260 0.327215
C55   C     C_R   0.326949 0.464352 0.069096 -0.156933
C56   C     C_R   0.397164 0.457512 0.124788 0.627508
N2    N     N_R   0.507935 0.508947 0.151880 -0.156233
C57   C     C_R   0.563738 0.561660 0.119711 0.636385
C58   C     C_2   0.111358 0.439111 0.769977 0.315750
C59   C     C_3   0.088993 0.420150 0.702977 -0.088775
C60   C     C_1   0.292463 0.513456 0.692865 0.260088
C61   C     C_2   0.300819 0.534583 0.750581 -0.179756
C62   C     C_2   0.217601 0.493262 0.793571 -0.022271
C63   C     C_R   0.719774 0.532875 0.233350 0.275865
C64   C     C_R   0.753976 0.546446 0.294722 0.060708
C65   C     C_R   0.500767 0.489076 0.315077 0.286983
C66   C     C_R   0.453821 0.487389 0.255915 -0.235243
C67   C     C_R   0.561196 0.509135 0.213529 -0.002139
O27   O     O_2   0.363243 0.405179 0.148243 -0.568946
O28   O     O_2   0.637645 0.614615 0.144111 -0.548485
C68   C     C_2   0.191605 0.463588 0.666979 -0.452933
H45   H     H_    0.723701 0.628554 0.039087 0.176189
H46   H     H_    0.664386 0.614059 0.932969 0.172703
H47   H     H_    0.345899 0.588540 0.766506 0.181237
H48   H     H_    0.332601 0.469538 0.243508 0.210385
H49   H     H_    0.674654 0.531527 0.381431 0.185056
H50   H     H_    0.187488 0.449500 0.619222 0.177658
I1    I     I_    0.320797 0.667581 0.238929 -0.202129
I2    I     I_    0.263485 0.200786 0.342301 -0.380612
N3    N     N_R   0.525542 0.820439 0.614967 0.233460
O29   O     O_R   0.649571 0.863867 0.625061 -0.388382
O30   O     O_R   0.417929 0.832161 0.575930 -0.420155
I3    I     I_    0.892958 0.214526 0.617659 -0.349988
I4    I     I_    0.480060 0.333731 0.797326 -0.193073
I5    I     I_    0.529931 0.102859 0.571637 -0.284123
I6    I     I_    0.293376 0.893144 0.417924 -0.385376
I7    I     I_    0.058784 0.346740 0.085273 -0.193744
N4    N     N_R   0.848219 0.535292 0.191569 0.258529
O31   O     O_R   0.941238 0.591949 0.193630 -0.288512
O32   O     O_R   0.860096 0.484043 0.146972 -0.402339
N5    N     N_R   0.030674 0.393146 0.805761 0.233062
O33   O     O_R   0.112108 0.350897 0.834906 -0.413855
O34   O     O_R   0.874264 0.395763 0.811119 -0.301216

loop_
_geom_bond_atom_site_label_1
_geom_bond_atom_site_label_2
_geom_bond_distance
_ccdc_geom_bond_type
O14   P8    1.752385 S    
O14   Ba2   2.750576 S    
O5    C6    1.397477 S    
C46   O26   1.219318 D    
C8    I2    2.138215 S    
C5    H10   1.102194 S    
C2    C3    1.521531 S    
N4    O32   1.299391 A    
N4    O31   1.300377 A    
O4    P6    1.543863 D    
C65   C66   1.400896 A    
C4    C5    1.522639 S    
O8    Ba1   2.680292 S    
C47   C48   1.393144 A    
Ba2   O21   2.845784 S    
C21   C22   1.429777 A    
O3    P6    1.738958 S    
C45   O25   1.220037 D    
C8    C9    1.528259 S    
P4    O12   1.514248 D    
C51   C57   1.402189 A    
P5    O19   1.762540 S    
C23   C24   1.437093 A    
C7    H15   1.107529 S    
C4    H8    1.109684 S    
P1    O1    1.513938 D    
C38   C40   1.438555 A    
C1    H22   1.109544 S    
C1    C10   1.520249 S    
C45   N1    1.400356 Am   
C35   C36   1.431081 A    
N1    C62   1.482424 S    
C60   C68   1.316581 D    
C61   C62   1.505024 S    
C30   C38   1.433645 A    
P8    C25   1.870914 S    
P1    Ba1   3.418333 S    
C2    H3    1.110258 S    
C9    H18   1.106583 S    
P3    C64   1.840691 S    
C11   H24   1.110606 S    
C41   C42   1.399309 A    
C16   I4    2.144679 S    
C18   C32   1.384602 A    
O2    Ba2   2.827165 S    
O19   C13   1.414674 S    
C26   C27   1.396933 A    
C1    H1    1.110656 S    
O12   Ba2   2.883505 S    
C52   C55   1.409434 A    
P5    O17   1.765697 S    
C36   C37   1.398808 A    
C43   C65   1.392073 A    
P8    O24   1.752161 S    
C44   C48   1.402847 A    
H44   C53   1.083484 S    
C26   H36   1.081814 S    
P5    C59   1.888817 S    
C10   I1    2.132584 S    
P2    Ba1   3.409532 S    
C58   N5    1.436368 S    
C43   H49   1.082119 S    
Ba2   O20   2.743054 S    
C21   I5    2.121233 S    
C5    H11   1.109145 S    
C9    H19   1.109787 S    
C37   H43   1.075456 S    
C11   H23   1.110864 S    
P1    C42   1.892829 S    
O6    P6    1.755996 S    
C17   C29   1.415455 A    
C33   C34   1.385559 A    
N3    O30   1.299535 A    
N5    O34   1.300304 A    
C23   C28   1.425127 A    
C63   C64   1.414978 A    
C68   H50   1.085293 S    
P4    O13   1.593972 S    
N2    C67   1.473798 S    
C58   C59   1.530431 S    
C63   N4    1.438089 S    
P5    O18   1.545075 D    
C13   I3    2.093340 S    
P7    O21   1.574172 D    
O3    Ba1   2.751331 S    
C6    C7    1.520632 S    
C54   C55   1.425704 A    
C7    H16   1.110897 S    
C16   H35   1.109611 S    
P4    C27   1.880886 S    
Ba1   O16   2.743650 S    
C8    H17   1.099374 S    
C13   C14   1.522745 S    
C15   H32   1.110294 S    
C51   C52   1.400007 A    
O16   Ba2   2.913669 S    
C44   C49   1.407274 A    
C17   C20   1.427721 A    
C29   C36   1.411785 A    
P1    O5    1.750393 S    
O1    Ba1   2.883153 S    
P7    O22   1.748365 S    
C7    H14   1.110626 S    
C6    H13   1.105393 S    
Ba1   O20   2.914500 S    
C19   H40   1.077047 S    
C11   C12   1.530848 S    
C47   C53   1.404078 A    
C24   C35   1.417583 A    
P2    O10   1.761087 S    
C15   H33   1.106958 S    
C61   H47   1.085329 S    
H34   C16   1.106804 S    
P3    O9    1.543426 D    
P4    O15   1.748010 S    
C54   I7    2.131822 S    
C27   C28   1.415601 A    
O11   C2    1.402287 S    
C49   H46   1.083183 S    
O16   P7    1.741355 S    
C4    H7    1.101018 S    
O2    Ba1   2.915939 S    
C33   H38   1.078916 S    
C1    H2    1.102618 S    
C50   H45   1.083316 S    
C19   C21   1.392102 A    
C3    H6    1.107479 S    
N1    C46   1.392225 Am   
C14   H31   1.107248 S    
C48   C52   1.409883 A    
C34   H42   1.077286 S    
C14   H30   1.110941 S    
C50   C51   1.409465 A    
C14   H29   1.107197 S    
C22   C23   1.437061 A    
N5    O33   1.299792 A    
O13   Ba2   2.916622 S    
C56   N2    1.396292 Am   
P8    O23   1.542086 D    
C11   O22   1.399480 S    
C4    O15   1.390728 S    
C46   C47   1.404792 A    
P6    C40   1.872592 S    
C40   C41   1.411956 A    
C17   C18   1.409291 A    
O7    Ba1   2.845553 S    
C31   C42   1.415462 A    
C58   C62   1.380807 D    
P3    O8    1.743644 S    
C12   N3    1.454782 S    
C39   I6    2.128596 S    
O17   Ba2   2.680752 S    
C18   H41   1.077738 S    
C53   C54   1.406476 A    
C34   C35   1.410821 A    
C30   C31   1.427069 A    
C3    H27   1.109508 S    
Ba1   Ba2   4.496586 S    
C6    H12   1.101685 S    
C49   C50   1.400567 A    
C13   H28   1.098754 S    
N3    O29   1.300437 A    
C38   C39   1.430785 A    
C12   H25   1.112636 S    
P3    O11   1.748822 S    
P2    O7    1.498803 D    
C15   O24   1.401327 S    
P2    C65   1.860851 S    
C10   H21   1.112610 S    
C57   O28   1.220716 D    
C31   C32   1.400247 A    
C9    H20   1.110432 S    
C37   C39   1.392547 A    
C2    H4    1.109708 S    
C66   C67   1.419547 A    
C20   C24   1.409429 A    
C25   C26   1.408707 A    
C56   O27   1.218140 D    
C28   C33   1.400692 A    
N2    C57   1.394170 Am   
O10   C8    1.402914 S    
C43   C64   1.397317 A    
C15   C16   1.530955 S    
C19   C20   1.397364 A    
P4    Ba2   3.418709 S    
C32   H37   1.079244 S    
C29   C30   1.437016 A    
C5    H9    1.110492 S    
C60   C61   1.321973 D    
C55   C56   1.419850 A    
Ba1   O13   2.826426 S    
C66   H48   1.075706 S    
P1    O2    1.593906 S    
C44   C45   1.413355 A    
C3    H5    1.107819 S    
P7    C60   1.829801 S    
O6    C10   1.407701 S    
C41   H39   1.081500 S    
C63   C67   1.428680 A    
P2    O20   1.551790 S    
C59   C68   1.501758 S    
C12   H26   1.112559 S    
C22   C25   1.440863 A    
