data_mof_unit_64978.cif
_audit_creation_date              2012-12-10T17:52:54-0500
_audit_creation_method            fapswitch 2.2
_symmetry_space_group_name_H-M    P1
_symmetry_Int_Tables_number       1
_space_group_crystal_system       triclinic
_cell_length_a                    18.741901
_cell_length_b                    18.610684
_cell_length_c                    18.768432
_cell_angle_alpha                 109.255939
_cell_angle_beta                  109.533445
_cell_angle_gamma                 109.244621
_cell_volume                      5062.88110805

loop_
_atom_site_label
_atom_site_type_symbol
_atom_type_description
_atom_site_fract_x
_atom_site_fract_y
_atom_site_fract_z
_atom_type_partial_charge
C1    C     C_R   0.120513 0.120461 0.500289 0.841329
C2    C     C_R   0.309949 0.334140 0.580390 -0.021453
C3    C     C_R   0.245281 0.268085 0.578248 -0.158572
C4    C     C_R   0.120648 0.000335 0.619671 0.879101
C5    C     C_R   0.187726 0.187361 0.501679 -0.061270
C6    C     C_R   0.734993 0.917961 0.244849 -0.025140
C7    C     C_R   0.674358 0.922455 0.182174 -0.194140
C8    C     C_R   0.685473 0.003454 0.190689 -0.087150
C9    C     C_R   0.757755 0.082697 0.263097 -0.037138
C10   C     C_R   0.820037 0.078109 0.324389 -0.172446
C11   C     C_R   0.809461 0.997058 0.315178 -0.086479
C12   C     C_R   0.270834 0.082791 0.742434 0.099012
C13   C     C_R   0.814820 0.730388 0.485037 -0.081850
C14   C     C_R   0.746235 0.665389 0.480095 0.255816
C15   C     C_R   0.685547 0.684191 0.498049 -0.194756
C16   C     C_R   0.882163 0.879450 0.502205 1.002984
C17   C     C_R   0.690385 0.765626 0.518409 0.337606
C18   C     C_R   0.756555 0.829062 0.520899 -0.206790
C19   C     C_R   0.818210 0.812145 0.504057 -0.163568
C20   C     C_R   0.500455 0.880083 0.880631 0.927924
C21   C     C_R   0.380176 0.005432 0.884726 0.853578
C22   C     C_R   0.497985 0.120114 0.118345 0.864331
C23   C     C_R   0.190736 0.004378 0.685358 -0.094407
C24   C     C_R   0.619931 0.002425 0.122708 0.909621
C25   C     C_R   0.499920 0.620599 0.620191 0.884431
C26   C     C_R   0.380207 0.381103 0.501354 0.815696
C27   C     C_R   0.500072 0.379746 0.380108 0.898974
C28   C     C_R   0.877885 0.998233 0.380185 0.935398
C29   C     C_R   0.619753 0.619950 0.499761 1.014526
C30   C     C_R   0.571780 0.798655 0.836154 0.007749
C31   C     C_R   0.570511 0.735210 0.770683 -0.246335
C32   C     C_R   0.500018 0.687383 0.686298 -0.055142
C33   C     C_R   0.429877 0.702876 0.665385 -0.108970
C34   C     C_R   0.173322 0.931520 0.696198 -0.170965
C35   C     C_R   0.429082 0.766558 0.729207 -0.066813
C36   C     C_R   0.500385 0.814037 0.814798 -0.118831
C37   C     C_R   0.415345 0.181369 0.173611 -0.003302
C38   C     C_R   0.418886 0.246039 0.240549 -0.275730
C39   C     C_R   0.498753 0.312378 0.313972 -0.020329
C40   C     C_R   0.291429 0.152861 0.724923 -0.158953
C41   C     C_R   0.576603 0.315608 0.322561 -0.116033
C42   C     C_R   0.574838 0.253150 0.256020 -0.183431
C43   C     C_R   0.495107 0.185911 0.182179 -0.027398
C44   C     C_R   0.368549 0.231589 0.783586 -0.165139
C45   C     C_R   0.235306 0.935068 0.764032 -0.156341
C46   C     C_R   0.423346 0.244109 0.863097 -0.100819
C47   C     C_R   0.403660 0.176364 0.883466 -0.022323
C48   C     C_R   0.331127 0.090887 0.818302 0.008792
C49   C     C_2   0.715325 0.830041 0.235195 0.412114
C50   C     C_2   0.767459 0.169832 0.277821 0.425384
C51   C     C_2   0.882740 0.712059 0.473217 0.514098
C52   C     C_2   0.648543 0.845089 0.924866 0.388626
C53   C     C_2   0.354595 0.783785 0.705307 0.434256
C54   C     C_2   0.327299 0.113491 0.097420 0.374025
C55   C     C_2   0.450251 0.201412 0.976135 0.462296
C56   C     C_R   0.314448 0.012849 0.824358 -0.101114
C57   C     C_2   0.369302 0.420717 0.661321 0.401479
C58   C     C_R   0.193723 0.171233 0.426416 -0.161270
C59   C     C_R   0.256874 0.236367 0.427256 -0.165648
C60   C     C_R   0.314793 0.316859 0.503624 -0.079593
Cl1   Cl    Cl    0.736626 0.560478 0.452628 -0.645159
Cl2   Cl    Cl    0.616430 0.791446 0.544001 -0.585137
H1    H     H_    0.111529 0.871586 0.651966 0.213810
H2    H     H_    0.638498 0.367103 0.379777 0.204625
H3    H     H_    0.635682 0.256248 0.262910 0.157021
H4    H     H_    0.383764 0.284627 0.769112 0.181477
H5    H     H_    0.479095 0.308681 0.910647 0.187441
H6    H     H_    0.221645 0.875718 0.768171 0.179928
H7    H     H_    0.148890 0.108947 0.366876 0.158341
H8    H     H_    0.261349 0.223847 0.368672 0.138633
H9    H     H_    0.669650 0.772088 0.171641 0.072916
H10   H     H_    0.714086 0.175266 0.238853 0.058302
H11   H     H_    0.864872 0.647722 0.425440 0.125245
H12   H     H_    0.239565 0.279217 0.636050 0.189026
H13   H     H_    0.704525 0.835908 0.933465 0.071276
H14   H     H_    0.354301 0.835937 0.752874 0.048448
H15   H     H_    0.269948 0.107979 0.102604 0.075358
H16   H     H_    0.419908 0.162659 0.000112 0.079896
H17   H     H_    0.414908 0.475319 0.662007 0.071935
H18   H     H_    0.617347 0.862375 0.126546 0.163197
H19   H     H_    0.877249 0.137913 0.380046 0.194479
H20   H     H_    0.759226 0.891587 0.535129 0.201731
H21   H     H_    0.248624 0.146796 0.665146 0.128562
H22   H     H_    0.624826 0.722736 0.785735 0.156702
H23   H     H_    0.375709 0.664995 0.599332 0.200810
H24   H     H_    0.359173 0.244994 0.235746 0.139166
O1    O     O_R   0.091590 0.143330 0.551700 -0.626092
O2    O     O_R   0.551730 0.591680 0.643420 -0.639151
O3    O     O_R   0.356670 0.408480 0.448390 -0.615862
O4    O     O_R   0.091620 0.039900 0.448280 -0.628930
O5    O     O_R   0.460120 0.408460 0.551810 -0.630387
O6    O     O_R   0.448270 0.408490 0.356760 -0.622773
O7    O     O_R   0.551720 0.408480 0.460170 -0.606730
O8    O     O_R   0.539880 0.591710 0.448370 -0.584587
O9    O     O_R   0.643330 0.591700 0.551790 -0.588027
O10   O     O_R   0.091610 0.051730 0.643330 -0.621850
O11   O     O_R   0.091640 0.948310 0.539920 -0.591074
O12   O     O_R   0.551760 0.960180 0.908450 -0.588138
O13   O     O_R   0.908380 0.960100 0.551720 -0.636981
O14   O     O_R   0.908410 0.856670 0.448300 -0.567131
O15   O     O_R   0.908360 0.051690 0.460080 -0.627247
O16   O     O_R   0.908390 0.948270 0.356670 -0.596611
O17   O     O_R   0.448330 0.856720 0.908450 -0.626951
O18   O     O_2   0.745853 0.820573 0.297713 -0.564877
O19   O     O_2   0.835388 0.237276 0.334930 -0.543261
O20   O     O_2   0.959680 0.767407 0.519201 -0.597067
O21   O     O_2   0.650344 0.892101 0.989295 -0.584402
O22   O     O_2   0.292287 0.739849 0.631538 -0.542908
O23   O     O_R   0.356660 0.948290 0.908410 -0.593517
O24   O     O_2   0.316598 0.065016 0.027902 -0.581680
O25   O     O_2   0.521808 0.266779 0.027033 -0.553261
O26   O     O_2   0.367646 0.432395 0.728588 -0.569559
O27   O     O_R   0.460090 0.051750 0.908420 -0.633610
O28   O     O_R   0.448250 0.039900 0.091630 -0.585764
O29   O     O_R   0.551680 0.143360 0.091630 -0.618143
O30   O     O_R   0.539910 0.948330 0.091670 -0.621730
O31   O     O_R   0.643340 0.051790 0.091670 -0.606412
O32   O     O_R   0.448280 0.591700 0.540000 -0.607879
Zn1   Zn    Zn3+2 0.999980 0.069060 0.569050 1.006145
Zn2   Zn    Zn3+2 0.000020 0.930940 0.430950 1.042896
Zn3   Zn    Zn3+2 0.430940 0.930960 0.000040 1.027162
Zn4   Zn    Zn3+2 0.569060 0.069120 0.000040 1.047025
Zn5   Zn    Zn3+2 0.430920 0.500100 0.431040 1.034890
Zn6   Zn    Zn3+2 0.569080 0.500080 0.569140 1.016936

loop_
_geom_bond_atom_site_label_1
_geom_bond_atom_site_label_2
_ccdc_geom_bond_type
O9    Zn6   S    
C1    O1    A    
C37   C43   A    
C1    O4    A    
C35   C53   S    
C41   C42   A    
C57   H17   S    
O10   Zn1   S    
C44   H4    S    
C35   C36   A    
O7    Zn6   S    
C48   C56   A    
O2    Zn6   S    
C52   H13   S    
C25   O32   A    
C49   O18   D    
C2    C57   S    
C7    C8    A    
C39   C41   A    
C20   O17   A    
C26   O3    A    
C12   C23   A    
C24   O31   A    
C5    C58   A    
C38   H24   S    
C1    C5    S    
C4    C23   S    
C16   C19   S    
C38   C39   A    
C2    C60   A    
C57   O26   D    
C54   O24   D    
O12   Zn4   S    
C18   C19   A    
C3    H12   S    
C33   H23   S    
C50   H10   S    
C8    C24   S    
C13   C51   S    
O28   Zn3   S    
C28   O15   A    
O27   Zn4   S    
C47   C48   A    
C52   O21   D    
C27   C39   S    
C8    C9    A    
C42   H3    S    
O14   Zn2   S    
C9    C10   A    
C12   C48   A    
C54   H15   S    
O8    Zn5   S    
C25   C32   S    
C59   C60   A    
O29   Zn4   S    
C4    O10   A    
C13   C14   A    
C40   H21   S    
C18   H20   S    
C44   C46   A    
C15   C29   S    
O30   Zn3   S    
C13   C19   A    
O15   Zn1   S    
C45   C56   A    
C21   O27   A    
O6    Zn5   S    
C6    C11   A    
C29   O9    A    
C55   H16   S    
C16   O14   A    
O3    Zn5   S    
C26   O5    A    
C14   Cl1   S    
C25   O2    A    
C31   H22   S    
O4    Zn2   S    
C12   C40   A    
O31   Zn4   S    
O1    Zn1   S    
C37   C38   A    
C17   Cl2   S    
C50   O19   D    
C22   C43   S    
C22   O28   A    
C23   C34   A    
C45   H6    S    
C17   C18   A    
C27   O6    A    
C58   H7    S    
C34   C45   A    
C37   C54   S    
C22   O29   A    
C24   O30   A    
O5    Zn6   S    
C29   O8    A    
C27   O7    A    
C53   H14   S    
C42   C43   A    
O17   Zn3   S    
O16   Zn2   S    
C47   C55   S    
C15   C17   A    
C30   C52   S    
C46   C47   A    
C55   O25   D    
C31   C32   A    
C9    C50   S    
C51   H11   S    
C3    C5    A    
C21   C56   S    
C21   O23   A    
C16   O13   A    
C6    C7    A    
C10   H19   S    
C30   C36   A    
C32   C33   A    
O11   Zn2   S    
C2    C3    A    
C58   C59   A    
C46   H5    S    
C53   O22   D    
O23   Zn3   S    
C30   C31   A    
C11   C28   S    
C51   O20   D    
C34   H1    S    
C33   C35   A    
O32   Zn5   S    
C6    C49   S    
C10   C11   A    
C59   H8    S    
O13   Zn1   S    
C20   C36   S    
C28   O16   A    
C40   C44   A    
C20   O12   A    
C49   H9    S    
C14   C15   A    
C41   H2    S    
C4    O11   A    
C26   C60   S    
C7    H18   S    
