data_mof_unit_57876.cif
_audit_creation_date              2012-12-10T19:14:26-0500
_audit_creation_method            fapswitch 2.2
_symmetry_space_group_name_H-M    P1
_symmetry_Int_Tables_number       1
_space_group_crystal_system       triclinic
_cell_length_a                    15.980483
_cell_length_b                    14.775124
_cell_length_c                    10.807818
_cell_angle_alpha                 90.094979
_cell_angle_beta                  89.808329
_cell_angle_gamma                 90.088229
_cell_volume                      2551.85222066

loop_
_atom_site_label
_atom_site_type_symbol
_atom_type_description
_atom_site_fract_x
_atom_site_fract_y
_atom_site_fract_z
_atom_type_partial_charge
C1    C     C_R   0.340851 0.499970 0.500444 0.810171
C2    C     C_R   0.659129 0.500128 0.500579 0.817685
C3    C     C_R   0.956106 0.433992 0.570757 -0.184796
C4    C     C_R   0.043427 0.433702 0.569817 -0.177673
C5    C     C_1   0.823221 0.501676 0.507427 -0.089508
C6    C     C_1   0.176652 0.500951 0.504829 -0.082352
C7    C     C_1   0.251721 0.500197 0.502579 -0.191315
C8    C     C_1   0.748182 0.500788 0.504287 -0.189557
C9    C     C_R   0.571044 0.951515 0.476677 0.085033
C10   C     C_R   0.420090 0.953452 0.519845 0.097088
C11   C     C_R   0.495375 0.902666 0.498636 0.024226
C12   C     C_R   0.423875 0.049615 0.520103 -0.212915
C13   C     C_R   0.571515 0.047470 0.477475 -0.197873
C14   C     C_R   0.498445 0.097313 0.499205 0.011607
C15   C     C_1   0.497923 0.802527 0.499741 0.089492
C16   C     C_1   0.499538 0.197360 0.499669 0.131127
C17   C     C_R   0.501221 0.500001 0.262208 0.801229
C18   C     C_R   0.500029 0.500039 0.737767 0.801429
C19   C     C_R   0.349879 0.534490 0.130257 -0.148276
C20   C     C_R   0.349622 0.536045 0.872710 -0.151219
C21   C     C_R   0.276010 0.551977 0.066518 -0.138710
C22   C     C_R   0.275896 0.552822 0.937952 -0.137887
C23   C     C_R   0.425526 0.518330 0.935669 0.059674
C24   C     C_R   0.425691 0.517681 0.065786 0.060336
C25   C     C_R   0.501190 0.499935 0.128583 -0.143596
C26   C     C_R   0.500634 0.500145 0.871340 -0.147450
C27   C     C_R   0.576879 0.482804 0.064478 0.055390
C28   C     C_R   0.576412 0.481854 0.933794 0.049509
C29   C     C_R   0.956410 0.571299 0.447646 -0.178849
C30   C     C_R   0.043727 0.571020 0.446730 -0.184884
C31   C     C_R   0.912666 0.502627 0.509329 0.161876
C32   C     C_R   0.087179 0.502021 0.507414 0.158842
Cu1   Cu    Cu3+1 0.500000 0.589220 0.500000 0.949533
Cu2   Cu    Cu3+1 0.500000 0.410780 0.500000 0.963791
H1    H     H_    0.218645 0.564739 0.117143 0.133503
H2    H     H_    0.218445 0.566235 0.888492 0.135540
H3    H     H_    0.922552 0.380624 0.618540 0.137297
H4    H     H_    0.076758 0.380171 0.617028 0.136554
H5    H     H_    0.629477 0.083666 0.460625 0.131829
H6    H     H_    0.367190 0.088131 0.536709 0.135233
N1    N     N_1   0.500000 0.276710 0.500000 -0.157070
N2    N     N_1   0.500000 0.723290 0.500000 -0.165200
O1    O     O_R   0.380310 0.575320 0.500020 -0.581060
O2    O     O_R   0.619690 0.575320 0.499980 -0.572093
O3    O     O_R   0.380310 0.424640 0.499960 -0.563717
O4    O     O_R   0.619690 0.424640 0.500040 -0.574558
O5    O     O_R   0.500000 0.575360 0.319640 -0.577732
O6    O     O_R   0.500000 0.575360 0.680360 -0.576561
O7    O     O_R   0.500000 0.424670 0.319580 -0.575693
O8    O     O_R   0.500000 0.424670 0.680420 -0.577980
C33   C     C_3   0.658824 0.471961 0.135480 -0.408449
C34   C     C_3   0.702045 0.564102 0.152908 -0.353520
C35   C     C_3   0.795628 0.553183 0.175963 -0.860099
H7    H     H_    0.806788 0.504594 0.252102 0.267606
H8    H     H_    0.827088 0.527740 0.090986 0.250512
H9    H     H_    0.823380 0.619618 0.201096 0.242183
H10   H     H_    0.693894 0.607153 0.069525 0.221914
H11   H     H_    0.673028 0.599993 0.232644 0.233282
H12   H     H_    0.648791 0.440460 0.227389 0.190867
H13   H     H_    0.701107 0.423531 0.088360 0.209112
C36   C     C_3   0.656286 0.461348 0.860582 -0.393321
C37   C     C_3   0.668079 0.358798 0.844375 -0.325049
C38   C     C_3   0.752403 0.336902 0.785044 -0.861409
H14   H     H_    0.756394 0.366965 0.691298 0.264050
H15   H     H_    0.804301 0.363489 0.842845 0.249586
H16   H     H_    0.759422 0.262403 0.776468 0.240728
H17   H     H_    0.664162 0.323959 0.935167 0.209894
H18   H     H_    0.617580 0.331061 0.784996 0.244111
H19   H     H_    0.655497 0.493809 0.768186 0.182580
H20   H     H_    0.711766 0.492035 0.905605 0.205002
H21   H     H_    0.346737 0.534129 0.230200 0.126231
H22   H     H_    0.346276 0.536844 0.772801 0.125373
H23   H     H_    0.077290 0.624140 0.398423 0.133506
H24   H     H_    0.923075 0.624576 0.399904 0.135929
C39   C     C_3   0.652936 0.902487 0.453336 -0.413203
C40   C     C_3   0.657221 0.864871 0.320956 -0.322430
C41   C     C_3   0.736010 0.808311 0.301223 -0.859148
H25   H     H_    0.792799 0.849904 0.318159 0.251534
H26   H     H_    0.736005 0.749186 0.364646 0.263122
H27   H     H_    0.737881 0.783052 0.204427 0.240892
H28   H     H_    0.601902 0.821678 0.301217 0.225476
H29   H     H_    0.657320 0.921989 0.254114 0.216198
H30   H     H_    0.706789 0.949129 0.467458 0.189259
H31   H     H_    0.660286 0.847023 0.521826 0.205046
C42   C     C_3   0.332482 0.914889 0.543637 -0.445515
C43   C     C_3   0.319010 0.812048 0.537578 -0.307878
C44   C     C_3   0.226970 0.787508 0.556454 -0.860016
H32   H     H_    0.204710 0.811775 0.648146 0.253224
H33   H     H_    0.188018 0.818084 0.482605 0.249026
H34   H     H_    0.219401 0.712817 0.552593 0.252820
H35   H     H_    0.338473 0.786078 0.445343 0.231365
H36   H     H_    0.355169 0.778601 0.612203 0.234614
H37   H     H_    0.311905 0.938531 0.636646 0.201961
H38   H     H_    0.289691 0.946107 0.474847 0.203560

loop_
_geom_bond_atom_site_label_1
_geom_bond_atom_site_label_2
_ccdc_geom_bond_type
C36   H20   S    
C6    C32   S    
C44   H32   S    
C38   H15   S    
C10   C42   S    
C19   H21   S    
C18   C26   S    
C39   H30   S    
C35   H7    S    
C2    O4    A    
C29   C30   A    
C37   H17   S    
Cu1   N2    S    
C21   C22   A    
C19   C21   A    
C43   H35   S    
C42   C43   S    
C39   H31   S    
C35   H9    S    
C23   C26   A    
C9    C13   A    
C42   H37   S    
C1    O1    A    
C2    O2    A    
C23   C24   A    
Cu2   O4    S    
C28   C36   S    
C41   H26   S    
C38   H16   S    
C13   C14   A    
Cu2   N1    S    
C11   C15   S    
C27   C33   S    
C35   H8    S    
C34   H11   S    
Cu2   O8    S    
C33   C34   S    
Cu1   O1    S    
C24   C25   A    
C10   C11   A    
C17   O7    A    
C30   H23   S    
C43   C44   S    
C29   H24   S    
C41   H25   S    
C12   H6    S    
C39   C40   S    
C37   C38   S    
C42   H38   S    
C20   C23   A    
Cu1   Cu2   S    
Cu2   O3    S    
C40   C41   S    
C3    C31   A    
C9    C11   A    
C4    C32   A    
C10   C12   A    
C12   C14   A    
C44   H33   S    
Cu1   O5    S    
C14   C16   S    
C33   H12   S    
C40   H29   S    
C3    C4    A    
C34   C35   S    
C18   O8    A    
C41   H27   S    
C36   H19   S    
Cu2   O7    S    
C1    C7    S    
Cu1   O2    S    
C2    C8    S    
C17   O5    A    
C15   N2    T    
C20   C22   A    
C18   O6    A    
C40   H28   S    
C5    C8    T    
C6    C7    T    
C21   H1    S    
C25   C27   A    
C22   H2    S    
C26   C28   A    
C37   H18   S    
C17   C25   S    
C19   C24   A    
C29   C31   A    
C43   H36   S    
C30   C32   A    
C1    O3    A    
C36   C37   S    
C13   H5    S    
C34   H10   S    
C38   H14   S    
C3    H3    S    
C44   H34   S    
C27   C28   A    
Cu1   O6    S    
C20   H22   S    
C33   H13   S    
C9    C39   S    
C4    H4    S    
C16   N1    T    
C5    C31   S    
