data_mof_unit_59367.cif
_audit_creation_date              2012-12-10T17:19:53-0500
_audit_creation_method            fapswitch 2.2
_symmetry_space_group_name_H-M    P1
_symmetry_Int_Tables_number       1
_space_group_crystal_system       triclinic
_cell_length_a                    9.661697
_cell_length_b                    10.820657
_cell_length_c                    15.507216
_cell_angle_alpha                 84.649095
_cell_angle_beta                  73.763375
_cell_angle_gamma                 90.793258
_cell_volume                      1548.41907581

loop_
_atom_site_label
_atom_site_type_symbol
_atom_type_description
_atom_site_fract_x
_atom_site_fract_y
_atom_site_fract_z
_atom_type_partial_charge
C1    C     C_R   0.001527 0.262429 0.495950 0.879856
C2    C     C_R   0.667964 0.464860 0.907611 0.094143
C3    C     C_R   0.762132 0.420083 0.957800 0.151488
C4    C     C_R   0.518471 0.473393 0.951478 0.069930
C5    C     C_R   0.467527 0.450011 0.047259 0.068941
C6    C     C_R   0.565363 0.405849 0.094997 -0.131804
C7    C     C_R   0.709284 0.389809 0.050656 -0.167274
C8    C     C_R   0.417783 0.501381 0.902265 -0.192365
C9    C     C_R   0.274032 0.516028 0.945585 -0.207565
C10   C     C_R   0.224931 0.503841 0.039289 0.113131
C11   C     C_R   0.320114 0.470549 0.091482 0.082858
C12   C     C_R   0.917867 0.496755 0.672050 0.809683
C13   C     C_R   0.080232 0.524004 0.080825 -0.184229
C14   C     C_R   0.025962 0.514640 0.174753 -0.019547
C15   C     C_R   0.265572 0.464071 0.185957 -0.087513
C16   C     C_R   0.273645 0.119031 0.444392 0.011844
C17   C     C_R   0.390075 0.069134 0.470753 -0.229360
C18   C     C_R   0.372631 0.954506 0.521921 -0.137906
C19   C     C_R   0.242700 0.886035 0.541778 -0.175504
C20   C     C_R   0.123855 0.936295 0.516749 0.060371
C21   C     C_R   0.133256 0.062208 0.482861 0.091372
C22   C     C_R   0.002772 0.126522 0.495127 -0.136656
C23   C     C_R   0.995953 0.734955 0.511931 0.746711
C24   C     C_R   0.869959 0.059728 0.528670 -0.161190
C25   C     C_R   0.863387 0.930692 0.548001 -0.003329
C26   C     C_R   0.993251 0.867256 0.529059 -0.200308
C27   C     C_R   0.704709 0.678049 0.389890 -0.158642
C28   C     C_R   0.665128 0.787588 0.354086 -0.154866
C29   C     C_R   0.523721 0.802906 0.354973 -0.027365
C30   C     C_R   0.422209 0.700977 0.388638 -0.077048
C31   C     C_R   0.454103 0.593612 0.444408 0.155085
C32   C     C_R   0.603487 0.588580 0.444370 0.143789
C33   C     C_R   0.542671 0.420963 0.558849 0.071318
C34   C     C_R   0.080899 0.496601 0.327817 0.811511
C35   C     C_R   0.397747 0.418835 0.555144 -0.155445
C36   C     C_R   0.870869 0.480681 0.771037 -0.042972
C37   C     C_R   0.122204 0.490270 0.228516 -0.105484
C38   C     C_R   0.908370 0.405085 0.914215 -0.198043
C39   C     C_R   0.962292 0.434249 0.821157 -0.185463
C40   C     C_R   0.726972 0.500199 0.814879 -0.211404
Cu1   Cu    Cu3+1 0.140660 0.499990 0.500010 0.945181
Cu2   Cu    Cu3+1 0.859340 0.500010 0.499990 0.959743
H1    H     H_    0.770571 0.108836 0.543916 0.225710
H2    H     H_    0.463400 0.913314 0.539137 0.201940
H3    H     H_    0.234828 0.796317 0.580257 0.176003
H4    H     H_    0.748444 0.857895 0.320154 0.197747
H5    H     H_    0.334902 0.443949 0.228415 0.183432
H6    H     H_    0.200960 0.538658 0.905131 0.146323
H7    H     H_    0.980304 0.368239 0.951860 0.140422
H8    H     H_    0.663330 0.543842 0.774632 0.138513
H9    H     H_    0.533674 0.379047 0.166637 0.144842
H10   H     H_    0.445402 0.509459 0.829651 0.132765
N1    N     N_R   0.648320 0.501210 0.499140 -0.207982
N2    N     N_R   0.352470 0.501290 0.499110 -0.200214
O1    O     O_R   0.118810 0.319640 0.500010 -0.588536
O2    O     O_R   0.881240 0.319660 0.500000 -0.529909
O3    O     O_R   0.055570 0.499980 0.629840 -0.592294
O4    O     O_R   0.818000 0.500010 0.629830 -0.553596
O5    O     O_R   0.118760 0.680340 0.500000 -0.608788
O6    O     O_R   0.881190 0.680360 0.499990 -0.618647
O7    O     O_R   0.182000 0.499990 0.370170 -0.566681
O8    O     O_R   0.944430 0.500020 0.370160 -0.633573
H11   H     H_    0.780098 0.354291 0.089597 0.148745
H12   H     H_    0.008376 0.546368 0.039470 0.174754
C41   C     C_2   0.306701 0.214323 0.365819 0.406877
H13   H     H_    0.406639 0.270343 0.347635 0.064299
O9    O     O_2   0.225268 0.226940 0.318286 -0.587477
H14   H     H_    0.496714 0.113979 0.446125 0.158971
C42   C     C_2   0.724441 0.867417 0.602268 0.342890
H15   H     H_    0.714399 0.767648 0.618560 0.104189
O10   O     O_2   0.620683 0.927665 0.635788 -0.560386
C43   C     C_2   0.564021 0.342109 0.637455 0.395940
H16   H     H_    0.472832 0.321774 0.697066 0.033032
O11   O     O_2   0.676558 0.293823 0.637546 -0.508144
H17   H     H_    0.817780 0.669821 0.374807 0.210337
C44   C     C_2   0.488658 0.919539 0.306728 0.427963
H18   H     H_    0.378068 0.937103 0.307440 0.067132
O12   O     O_2   0.582361 0.998067 0.266713 -0.549311
C45   C     C_2   0.326058 0.699061 0.330670 0.444238
H19   H     H_    0.221319 0.739274 0.348269 0.060222
O13   O     O_2   0.373886 0.670096 0.254074 -0.552647
H20   H     H_    0.318412 0.353412 0.600526 0.141489
C46   C     C_2   0.868470 0.527925 0.212258 0.333025
H21   H     H_    0.806743 0.468895 0.271094 0.106174
O14   O     O_2   0.804306 0.602451 0.175173 -0.513983
H22   H     H_    0.074088 0.417642 0.788300 0.148519

loop_
_geom_bond_atom_site_label_1
_geom_bond_atom_site_label_2
_ccdc_geom_bond_type
C16   C21   A    
C34   C37   S    
Cu1   Cu2   S    
C19   C20   A    
C15   H5    S    
C4    C8    A    
Cu2   O4    S    
C29   C44   S    
C23   O5    A    
C28   H4    S    
C28   C29   A    
C1    O2    A    
C44   O12   D    
C5    C11   A    
C3    C7    A    
Cu2   N1    S    
C5    C6    A    
C34   O8    A    
C18   C19   A    
C23   C26   S    
C42   O10   D    
Cu1   O1    S    
C33   C43   S    
Cu2   O2    S    
C11   C15   A    
C15   C37   A    
C46   H21   S    
C3    C38   A    
C8    C9    A    
C41   O9    D    
Cu1   O7    S    
C6    H9    S    
C12   C36   S    
C9    C10   A    
C8    H10   S    
C12   O4    A    
C1    C22   S    
C21   C22   A    
C35   N2    A    
C14   C46   S    
C27   H17   S    
C35   H20   S    
C33   N1    A    
C23   O6    A    
C36   C40   A    
C38   C39   A    
C44   H18   S    
Cu1   O5    S    
C43   O11   D    
Cu2   O6    S    
C45   O13   D    
C16   C17   A    
C25   C26   A    
C34   O7    A    
C2    C4    A    
C29   C30   A    
C18   H2    S    
C31   C32   A    
C17   C18   A    
C24   C25   A    
C7    H11   S    
C12   O3    A    
C46   O14   D    
C22   C24   A    
C25   C42   S    
C30   C45   S    
C32   N1    A    
C38   H7    S    
Cu2   O8    S    
C17   H14   S    
C27   C32   A    
C36   C39   A    
C43   H16   S    
C10   C13   A    
C19   H3    S    
C6    C7    A    
C2    C3    A    
C1    O1    A    
Cu1   O3    S    
C14   C37   A    
C30   C31   A    
C13   H12   S    
C20   C26   A    
C40   H8    S    
C33   C35   A    
C31   N2    A    
C42   H15   S    
Cu1   N2    S    
C10   C11   A    
C45   H19   S    
C2    C40   A    
C4    C5    A    
C20   C21   A    
C9    H6    S    
C41   H13   S    
C27   C28   A    
C24   H1    S    
C16   C41   S    
C39   H22   S    
C13   C14   A    
