data_mof_unit_54726.cif
_audit_creation_date              2012-12-11T14:08:33-0500
_audit_creation_method            fapswitch 2.2
_symmetry_space_group_name_H-M    P1
_symmetry_Int_Tables_number       1
_space_group_crystal_system       triclinic
_cell_length_a                    11.004097
_cell_length_b                    10.924851
_cell_length_c                    18.691677
_cell_angle_alpha                 89.729596
_cell_angle_beta                  88.76934
_cell_angle_gamma                 60.259361
_cell_volume                      1950.59719806

loop_
_atom_site_label
_atom_site_type_symbol
_atom_type_description
_atom_site_fract_x
_atom_site_fract_y
_atom_site_fract_z
_atom_type_partial_charge
C1    C     C_R   0.238192 0.644285 0.609631 0.567406
C2    C     C_2   0.774550 0.163162 0.706416 -0.090513
C3    C     C_2   0.191768 0.655300 0.684266 -0.073133
C4    C     C_R   0.649755 0.620422 0.602749 0.549918
C5    C     C_2   0.203480 0.664207 0.841157 -0.092524
C6    C     C_2   0.229516 0.548851 0.804572 -0.173920
C7    C     C_2   0.253566 0.540604 0.726599 -0.130947
C8    C     C_2   0.656893 0.645969 0.318209 -0.105184
C9    C     C_2   0.637542 0.666843 0.161695 -0.059812
C10   C     C_2   0.707487 0.545505 0.196393 -0.154020
C11   C     C_2   0.689076 0.537607 0.273114 -0.150296
C12   C     C_3   0.673087 0.547514 0.802758 -0.240136
C13   C     C_2   0.675019 0.132088 0.334670 0.253837
C14   C     C_2   0.645473 0.153814 0.177706 -0.057590
C15   C     C_2   0.595622 0.089616 0.221027 -0.148207
C16   C     C_R   0.626366 0.229465 0.602231 0.544893
C17   C     C_2   0.582723 0.111609 0.297635 -0.167200
C18   C     C_2   0.320673 0.605730 0.316811 0.115071
C19   C     C_2   0.165762 0.661053 0.180917 0.266479
C20   C     C_2   0.253506 0.709459 0.199111 0.311204
C21   C     C_2   0.276508 0.721942 0.275444 0.310034
C22   C     C_R   0.704186 0.102409 0.897844 0.570723
C23   C     C_3   0.698008 0.673210 0.812867 0.051494
C24   C     C_R   0.724602 0.688010 0.888339 0.576565
C25   C     C_R   0.121936 0.705538 0.908206 0.570772
C26   C     C_R   0.674404 0.106507 0.104530 0.539469
C27   C     C_R   0.692891 0.688590 0.095054 0.564201
C28   C     C_R   0.302816 0.615659 0.395081 0.608710
C29   C     C_R   0.095947 0.707476 0.112502 0.581625
C30   C     C_R   0.643274 0.622109 0.393314 0.535546
C31   C     C_R   0.621901 0.221352 0.397906 0.551148
C32   C     C_3   0.562719 0.810164 0.786658 0.189870
C33   C     C_3   0.536053 0.790764 0.707159 0.211154
C34   C     C_3   0.661184 0.649259 0.677963 0.027113
C35   C     C_3   0.828251 0.653180 0.765459 -0.055198
C36   C     C_3   0.016201 0.082507 0.809376 -0.125140
C37   C     C_3   0.369417 0.975719 0.856384 -0.107703
C38   C     C_3   0.891620 0.953591 0.300098 -0.054819
C39   C     C_3   0.261441 0.897167 0.144703 -0.081244
C40   C     C_3   0.302192 0.924936 0.674642 -0.065321
C41   C     C_3   0.295641 0.912608 0.313119 -0.103080
C42   C     C_3   0.105486 0.493774 0.214523 -0.116319
C43   C     C_3   0.796331 0.656900 0.685973 -0.261635
C44   C     C_3   0.668609 0.524129 0.722376 -0.212682
C45   C     C_2   0.673200 0.156945 0.670577 0.059421
C46   C     C_2   0.691651 0.171637 0.829308 -0.067640
C47   C     C_2   0.800480 0.123323 0.782161 0.257968
Cr1   Cr    Cr6+3 0.393010 0.398050 0.501480 0.998133
Cr2   Cr    Cr6+3 0.398820 0.707980 0.501630 0.995172
Cr3   Cr    Cr6+3 0.708140 0.393940 0.496850 1.020506
Cr4   Cr    Cr6+3 0.937950 0.938450 0.008940 1.021675
Cr5   Cr    Cr6+3 0.626180 0.937030 0.994750 0.995958
Cr6   Cr    Cr6+3 0.937790 0.625760 0.001410 0.991362
H1    H     H_    0.585364 0.899135 0.788711 0.096365
H2    H     H_    0.788199 0.451263 0.169440 0.141019
H3    H     H_    0.712421 0.435037 0.293569 0.170688
H4    H     H_    0.553594 0.758272 0.188116 0.106012
H5    H     H_    0.636464 0.748865 0.300136 0.069726
H6    H     H_    0.560438 0.020048 0.200008 0.130401
H7    H     H_    0.486165 0.125738 0.322201 0.109809
H8    H     H_    0.680515 0.224093 0.197570 0.143648
H9    H     H_    0.537759 0.874903 0.674715 0.043636
H10   H     H_    0.847012 0.742615 0.776527 0.163547
H11   H     H_    0.784103 0.755375 0.661515 0.084270
H12   H     H_    0.765269 0.425722 0.706760 0.118129
H13   H     H_    0.755295 0.449913 0.828075 0.101018
H14   H     H_    0.572358 0.569560 0.828873 0.172681
H15   H     H_    0.577771 0.509169 0.711215 0.149729
H16   H     H_    0.001837 0.524527 0.826603 0.278220
H17   H     H_    0.946177 0.433040 0.776899 0.229453
H18   H     H_    0.978419 0.157020 0.855650 0.117298
H19   H     H_    0.022548 0.136613 0.760042 0.070720
H20   H     H_    0.123181 0.997565 0.820419 0.163439
H21   H     H_    0.614992 0.013782 0.661581 0.217066
H22   H     H_    0.497844 0.159180 0.707175 0.224144
H23   H     H_    0.886012 0.568637 0.656612 0.186319
H24   H     H_    0.314758 0.051205 0.813090 0.077714
H25   H     H_    0.435850 0.009166 0.883798 0.170902
H26   H     H_    0.290546 0.983461 0.896743 0.114795
H27   H     H_    0.836321 0.894981 0.286369 0.116301
H28   H     H_    0.948232 0.911405 0.350754 0.185825
H29   H     H_    0.968481 0.932051 0.256005 0.189554
H30   H     H_    0.335034 0.927599 0.166887 0.091993
H31   H     H_    0.157527 0.958337 0.172493 0.141774
H32   H     H_    0.247229 0.930625 0.087923 0.143783
H33   H     H_    0.318401 0.932605 0.616321 0.142068
H34   H     H_    0.839230 0.199724 0.680048 0.096966
H35   H     H_    0.300772 0.015960 0.701259 0.069499
H36   H     H_    0.197951 0.934573 0.683492 0.141376
H37   H     H_    0.397537 0.853629 0.284187 0.084294
H38   H     H_    0.314488 0.918178 0.370685 0.170821
H39   H     H_    0.242833 0.022283 0.292888 0.110583
H40   H     H_    0.199387 0.420850 0.181493 0.116654
H41   H     H_    0.007741 0.519718 0.186575 0.167321
H42   H     H_    0.106768 0.436444 0.263898 0.138286
H43   H     H_    0.346016 0.410103 0.302736 0.258450
H44   H     H_    0.495080 0.419495 0.298866 0.210707
H45   H     H_    0.587042 0.248125 0.812362 0.062845
H46   H     H_    0.226744 0.461798 0.831198 0.131438
H47   H     H_    0.322586 0.436951 0.703680 0.143667
H48   H     H_    0.222869 0.742707 0.815701 0.170532
H49   H     H_    0.121725 0.759168 0.706578 0.128674
N1    N     N_3   0.959325 0.521169 0.778213 -0.648510
N2    N     N_3   0.604419 0.086214 0.700570 -0.668575
N3    N     N_3   0.390962 0.468877 0.283535 -0.661717
O1    O     O_R   0.507110 0.256280 0.580300 -0.524688
O2    O     O_R   0.837080 0.593860 0.915300 -0.541743
O3    O     O_R   0.064770 0.636080 0.932550 -0.515393
O4    O     O_R   0.280830 0.527190 0.577940 -0.497029
O5    O     O_R   0.068250 0.829200 0.092940 -0.526280
O6    O     O_R   0.799650 0.057040 0.080330 -0.505300
O7    O     O_R   0.586130 0.079760 0.077080 -0.525876
O8    O     O_R   0.627700 0.809630 0.066580 -0.500274
O9    O     O_R   0.816140 0.597180 0.075920 -0.529541
O10   O     O_R   0.045360 0.639170 0.081440 -0.518374
O11   O     O_3   0.833980 0.833750 0.001700 -0.249293
O12   O     O_R   0.524640 0.695370 0.425100 -0.544399
O13   O     O_R   0.261360 0.738990 0.584270 -0.507890
O14   O     O_R   0.532590 0.694780 0.574370 -0.484374
O15   O     O_R   0.744470 0.503750 0.577000 -0.533758
O16   O     O_R   0.698520 0.277230 0.571620 -0.512550
O17   O     O_R   0.498530 0.256920 0.419280 -0.568409
O18   O     O_R   0.272880 0.527780 0.428680 -0.498224
O19   O     O_R   0.252780 0.739630 0.423250 -0.487287
O20   O     O_3   0.932696 0.019550 0.800856 -0.549107
O21   O     O_3   0.444794 0.835094 0.830679 -0.536063
O22   O     O_3   0.804571 0.101217 0.306089 -0.591755
O23   O     O_R   0.735890 0.504390 0.415980 -0.497183
O24   O     O_3   0.319116 0.748811 0.146584 -0.595419
O25   O     O_3   0.406263 0.793071 0.701063 -0.511508
O26   O     O_3   0.205246 0.856837 0.304805 -0.594237
O27   O     O_3   0.104930 0.618491 0.234503 -0.621895
O28   O     O_R   0.690560 0.277820 0.422350 -0.472186
O29   O     O_3   0.499990 0.499990 0.499980 -0.286639
O30   O     O_R   0.089190 0.825870 0.932320 -0.492498
O31   O     O_R   0.819070 0.053960 0.931440 -0.461532
O32   O     O_R   0.607070 0.076440 0.916460 -0.554512
O33   O     O_R   0.647110 0.806550 0.917690 -0.493305

loop_
_geom_bond_atom_site_label_1
_geom_bond_atom_site_label_2
_ccdc_geom_bond_type
C33   O25   S    
H43   N3    S    
C18   C21   D    
C36   O20   S    
C20   O24   S    
C31   O28   A    
Cr1   O18   S    
C38   O22   S    
C28   O18   A    
Cr5   O8    S    
C37   H26   S    
C12   C23   S    
Cr3   O15   S    
Cr1   O29   S    
C39   H31   S    
C3    C7    D    
Cr1   O17   S    
C5    C6    D    
Cr5   O7    S    
C32   O21   S    
C42   H40   S    
C43   H23   S    
C40   H33   S    
C21   O26   S    
Cr2   O29   S    
C1    O4    A    
Cr4   O30   S    
Cr1   O1    S    
C19   C20   D    
C33   H9    S    
Cr5   O33   S    
C23   C24   S    
C4    O14   A    
C47   O20   S    
Cr4   O6    S    
C40   H36   S    
C35   C43   S    
C9    C10   D    
C36   H18   S    
C16   O1    A    
H44   N3    S    
H16   N1    S    
Cr1   O4    S    
C46   H45   S    
C38   H29   S    
C44   H12   S    
Cr3   O16   S    
C32   H1    S    
C43   H11   S    
C33   C34   S    
C5    H48   S    
Cr5   O11   S    
C2    C45   D    
C12   H14   S    
C30   O23   A    
C7    H47   S    
C42   H42   S    
C29   O5    A    
C18   C28   S    
Cr3   O29   S    
C41   O26   S    
H17   N1    S    
C39   O24   S    
C24   O33   A    
C14   H8    S    
C12   H13   S    
C32   C33   S    
C22   O31   A    
C1    C3    S    
C36   H20   S    
C16   O16   A    
C45   N2    S    
Cr4   O31   S    
Cr6   O2    S    
Cr2   O13   S    
C22   O32   A    
Cr5   O32   S    
C34   C44   S    
C2    H34   S    
C24   O2    A    
C14   C26   S    
C10   H2    S    
C5    C25   S    
C27   O8    A    
C3    H49   S    
C41   H38   S    
Cr4   O5    S    
C23   C35   S    
C38   H28   S    
H22   N2    S    
Cr2   O12   S    
C44   H15   S    
Cr3   O23   S    
C39   H32   S    
C19   C29   S    
C26   O7    A    
Cr6   O9    S    
C9    C27   S    
H21   N2    S    
C37   O21   S    
C19   O27   S    
C15   C17   S    
C40   O25   S    
C46   C47   D    
C8    H5    S    
C22   C46   S    
C42   H41   S    
C15   H6    S    
C13   C31   S    
C34   C43   S    
C31   O17   A    
Cr3   O28   S    
C16   C45   S    
C42   O27   S    
C28   O19   A    
C6    C7    S    
C30   O12   A    
C2    C47   S    
C37   H25   S    
C35   N1    S    
Cr4   O11   S    
C13   C17   D    
Cr6   O11   S    
C8    C30   S    
C6    H46   S    
C40   H35   S    
C18   N3    S    
C39   H30   S    
C12   C44   S    
C23   C32   S    
Cr2   O19   S    
Cr6   O3    S    
Cr2   O14   S    
C38   H27   S    
C8    C11   D    
C41   H37   S    
C9    H4    S    
C1    O13   A    
C4    C34   S    
C29   O10   A    
C25   O30   A    
C10   C11   S    
C17   H7    S    
C13   O22   S    
C27   O9    A    
C36   H19   S    
C41   H39   S    
C37   H24   S    
C20   C21   S    
C14   C15   D    
C4    O15   A    
C35   H10   S    
C26   O6    A    
C11   H3    S    
Cr6   O10   S    
C25   O3    A    
