data_mof_unit_51837.cif
_audit_creation_date              2012-10-26T17:10:23-0400
_audit_creation_method            fapswitch 2.2
_symmetry_space_group_name_H-M    P1
_symmetry_Int_Tables_number       1
_space_group_crystal_system       triclinic
_cell_length_a                    16.893021
_cell_length_b                    16.89928
_cell_length_c                    16.886049
_cell_angle_alpha                 67.337317
_cell_angle_beta                  67.348875
_cell_angle_gamma                 67.323697
_cell_volume                      3942.93407702

loop_
_atom_site_label
_atom_site_type_symbol
_atom_type_description
_atom_site_fract_x
_atom_site_fract_y
_atom_site_fract_z
_atom_type_partial_charge
C1    C     C_R   0.596657 0.021857 0.596206 0.071337
C2    C     C_R   0.403342 0.978143 0.403794 0.071337
C3    C     C_R   0.021821 0.596709 0.596187 0.071072
C4    C     C_R   0.978179 0.403291 0.403813 0.071073
C5    C     C_R   0.596251 0.596690 0.021786 0.071104
C6    C     C_R   0.403749 0.403310 0.978214 0.071103
C7    C     C_R   0.022989 0.829793 0.566803 0.806299
C8    C     C_R   0.977011 0.170207 0.433197 0.806299
C9    C     C_R   0.829779 0.566820 0.022910 0.805635
C10   C     C_R   0.170221 0.433180 0.977090 0.805634
C11   C     C_R   0.566802 0.022940 0.829763 0.805940
C12   C     C_R   0.433198 0.977060 0.170237 0.805939
C13   C     C_R   0.433200 0.170202 0.977001 0.806043
C14   C     C_R   0.566800 0.829798 0.022999 0.806044
C15   C     C_R   0.977064 0.433197 0.170231 0.805707
C16   C     C_R   0.022936 0.566803 0.829769 0.805707
C17   C     C_R   0.170214 0.976990 0.433210 0.806367
C18   C     C_R   0.829786 0.023010 0.566790 0.806366
C19   C     C_R   0.547223 0.011175 0.546453 0.109650
C20   C     C_R   0.452776 0.988825 0.453547 0.109650
C21   C     C_R   0.011164 0.547258 0.546428 0.110037
C22   C     C_R   0.988835 0.452742 0.453572 0.110037
C23   C     C_R   0.546479 0.547234 0.011138 0.108317
C24   C     C_R   0.453521 0.452766 0.988862 0.108317
C25   C     C_R   0.589726 0.952339 0.492477 -0.175018
C26   C     C_R   0.410274 0.047661 0.507523 -0.175018
C27   C     C_R   0.058649 0.457006 0.553516 -0.175395
C28   C     C_R   0.941351 0.542994 0.446484 -0.175395
C29   C     C_R   0.492061 0.589801 0.952690 -0.171959
C30   C     C_R   0.507939 0.410199 0.047310 -0.171958
C31   C     C_R   0.543062 0.941369 0.446485 -0.176893
C32   C     C_R   0.456938 0.058631 0.553515 -0.176893
C33   C     C_R   0.446058 0.543140 0.941762 -0.174405
C34   C     C_R   0.553942 0.456860 0.058238 -0.174406
C35   C     C_R   0.047685 0.410311 0.507558 -0.173198
C36   C     C_R   0.952315 0.589689 0.492442 -0.173198
C37   C     C_R   0.556624 0.024766 0.685256 -0.201211
C38   C     C_R   0.443376 0.975234 0.314744 -0.201211
C39   C     C_R   0.024745 0.685676 0.556428 -0.200703
C40   C     C_R   0.975255 0.314324 0.443572 -0.200703
C41   C     C_R   0.685312 0.556681 0.024665 -0.198708
C42   C     C_R   0.314688 0.443319 0.975335 -0.198708
C43   C     C_R   0.314376 0.975183 0.443571 -0.201507
C44   C     C_R   0.685624 0.024817 0.556429 -0.201507
C45   C     C_R   0.443530 0.314352 0.975206 -0.199322
C46   C     C_R   0.556470 0.685648 0.024794 -0.199322
C47   C     C_R   0.975243 0.443330 0.314758 -0.199481
C48   C     C_R   0.024757 0.556670 0.685242 -0.199481
C49   C     C_R   0.605136 0.029511 0.734143 -0.061166
C50   C     C_R   0.394864 0.970489 0.265857 -0.061166
C51   C     C_R   0.029396 0.734313 0.605162 -0.060930
C52   C     C_R   0.970604 0.265687 0.394838 -0.060930
C53   C     C_R   0.734171 0.605171 0.029442 -0.061193
C54   C     C_R   0.265828 0.394829 0.970557 -0.061193
C55   C     C_R   0.265708 0.970557 0.394847 -0.060981
C56   C     C_R   0.734292 0.029443 0.605153 -0.060981
C57   C     C_R   0.394822 0.265692 0.970591 -0.060878
C58   C     C_R   0.605178 0.734308 0.029409 -0.060879
C59   C     C_R   0.970503 0.394848 0.265858 -0.061286
C60   C     C_R   0.029497 0.605152 0.734142 -0.061285
C61   C     C_R   0.693177 0.033231 0.693182 -0.225413
C62   C     C_R   0.306823 0.966769 0.306818 -0.225413
C63   C     C_R   0.033204 0.693176 0.693189 -0.226328
C64   C     C_R   0.966796 0.306824 0.306810 -0.226327
C65   C     C_R   0.693194 0.693190 0.033179 -0.227225
C66   C     C_R   0.306806 0.306810 0.966821 -0.227225
Cu1   Cu    Cu3+1 0.995180 0.995180 0.424630 0.936651
Cu2   Cu    Cu3+1 0.004820 0.004820 0.575370 0.936651
Cu3   Cu    Cu3+1 0.995180 0.424630 0.995180 0.938243
Cu4   Cu    Cu3+1 0.004820 0.575370 0.004820 0.938243
Cu5   Cu    Cu3+1 0.424630 0.995180 0.995180 0.937369
Cu6   Cu    Cu3+1 0.575370 0.004820 0.004820 0.937369
H1    H     H_    0.422706 0.105230 0.593674 0.129056
H2    H     H_    0.577294 0.894770 0.406326 0.129056
H3    H     H_    0.913511 0.658702 0.486904 0.128471
H4    H     H_    0.086489 0.341298 0.513096 0.128471
H5    H     H_    0.594412 0.422532 0.104560 0.130378
H6    H     H_    0.405587 0.577468 0.895440 0.130378
H7    H     H_    0.341231 0.086436 0.513029 0.128689
H8    H     H_    0.658769 0.913564 0.486970 0.128689
H9    H     H_    0.513788 0.341090 0.085850 0.131236
H10   H     H_    0.486212 0.658909 0.914150 0.131236
H11   H     H_    0.894721 0.577184 0.406331 0.128801
H12   H     H_    0.105279 0.422816 0.593669 0.128801
O1    O     O_R   0.124540 0.978640 0.385460 -0.587977
O2    O     O_R   0.875460 0.021360 0.614540 -0.587977
O3    O     O_R   0.978640 0.385460 0.124540 -0.588671
O4    O     O_R   0.021360 0.614540 0.875460 -0.588672
O5    O     O_R   0.385460 0.124540 0.978640 -0.588961
O6    O     O_R   0.614540 0.875460 0.021360 -0.588961
O7    O     O_R   0.614540 0.021360 0.875460 -0.587964
O8    O     O_R   0.385460 0.978640 0.124540 -0.587964
O9    O     O_R   0.875460 0.614540 0.021360 -0.588961
O10   O     O_R   0.124540 0.385460 0.978640 -0.588961
O11   O     O_R   0.021360 0.875460 0.614540 -0.588298
O12   O     O_R   0.978640 0.124540 0.385460 -0.588298
O13   O     O_R   0.013780 0.867370 0.487190 -0.592959
O14   O     O_R   0.986220 0.132630 0.512810 -0.592959
O15   O     O_R   0.867370 0.487190 0.013780 -0.591428
O16   O     O_R   0.132630 0.512810 0.986220 -0.591428
O17   O     O_R   0.487190 0.013780 0.867370 -0.592723
O18   O     O_R   0.512810 0.986220 0.132630 -0.592723
O19   O     O_R   0.512810 0.132630 0.986220 -0.592021
O20   O     O_R   0.487190 0.867370 0.013780 -0.592021
O21   O     O_R   0.986220 0.512810 0.132630 -0.591707
O22   O     O_R   0.013780 0.487190 0.867370 -0.591707
O23   O     O_R   0.132630 0.986220 0.512810 -0.593299
O24   O     O_R   0.867370 0.013780 0.487190 -0.593299
H13   H     H_    0.488890 0.019651 0.717425 0.147504
H14   H     H_    0.511110 0.980349 0.282575 0.147504
H15   H     H_    0.022131 0.717308 0.487840 0.147631
H16   H     H_    0.977869 0.282692 0.512159 0.147631
H17   H     H_    0.717518 0.488966 0.019524 0.148393
H18   H     H_    0.282482 0.511034 0.980476 0.148393
H19   H     H_    0.282761 0.977769 0.512162 0.147213
H20   H     H_    0.717239 0.022231 0.487838 0.147213
H21   H     H_    0.512123 0.282729 0.977727 0.147932
H22   H     H_    0.487877 0.717271 0.022273 0.147932
H23   H     H_    0.980334 0.511053 0.282592 0.148260
H24   H     H_    0.019666 0.488947 0.717408 0.148260
H25   H     H_    0.730999 0.035564 0.731101 0.175202
H26   H     H_    0.269001 0.964436 0.268899 0.175202
H27   H     H_    0.035548 0.730969 0.731112 0.174939
H28   H     H_    0.964452 0.269031 0.268888 0.174939
H29   H     H_    0.731088 0.730992 0.035524 0.174695
H30   H     H_    0.268912 0.269008 0.964476 0.174695

loop_
_geom_bond_atom_site_label_1
_geom_bond_atom_site_label_2
_ccdc_geom_bond_type
C25   C31   A    
C39   C51   A    
Cu5   O20   S    
C26   C32   A    
C6    C45   A    
C25   H8    S    
Cu2   O2    S    
C8    O12   A    
C57   C66   A    
Cu4   O4    S    
C40   H16   S    
C21   C36   A    
C22   C35   A    
C45   C57   A    
C59   C64   A    
C18   O2    A    
C20   C26   A    
C60   C63   A    
C17   O1    A    
C23   C29   A    
C44   H20   S    
C27   H12   S    
C17   O23   A    
C34   H5    S    
C33   H6    S    
C13   C57   S    
C10   O10   A    
C55   C62   A    
C29   C33   A    
C3    C48   A    
Cu6   O6    S    
C46   H22   S    
C61   H25   S    
C16   C60   S    
C8    O14   A    
C14   O6    A    
C1    C44   A    
C43   H19   S    
C42   H18   S    
Cu5   O8    S    
C4    C40   A    
C12   C50   S    
Cu5   O5    S    
Cu2   O23   S    
C13   O19   A    
C53   C65   A    
C8    C52   S    
C37   H13   S    
Cu3   O3    S    
C18   C56   S    
C47   H23   S    
Cu5   O17   S    
C3    C39   A    
C9    O15   A    
C22   C28   A    
C46   C58   A    
C28   H11   S    
C10   C54   S    
C19   C32   A    
Cu4   O16   S    
C48   C60   A    
C18   O24   A    
C14   C58   S    
C35   H4    S    
Cu1   O1    S    
Cu2   O11   S    
C49   C61   A    
C30   C34   A    
C2    C20   S    
Cu1   Cu2   S    
Cu4   O9    S    
C51   C63   A    
C48   H24   S    
Cu3   O10   S    
C52   C64   A    
C32   H1    S    
Cu6   O7    S    
C31   H2    S    
C27   C35   A    
C40   C52   A    
C1    C19   S    
C66   H30   S    
C65   H29   S    
C12   O18   A    
C11   C49   S    
C36   H3    S    
C4    C22   S    
C44   C56   A    
C58   C65   A    
C14   O20   A    
C5    C23   S    
C2    C43   A    
C23   C34   A    
C6    C24   S    
C11   O17   A    
C10   O16   A    
C41   C53   A    
C37   C49   A    
C54   C66   A    
Cu3   O15   S    
C43   C55   A    
Cu1   O12   S    
C50   C62   A    
C3    C21   S    
C24   C30   A    
C38   H14   S    
Cu1   O24   S    
C9    O9    A    
C62   H26   S    
C15   O3    A    
C45   H21   S    
C5    C41   A    
C7    O13   A    
C13   O5    A    
C15   C59   S    
C12   O8    A    
C26   H7    S    
C41   H17   S    
Cu4   O21   S    
C63   H27   S    
Cu3   O22   S    
C38   C50   A    
Cu6   O19   S    
C16   O22   A    
C7    O11   A    
C5    C46   A    
C24   C33   A    
C2    C38   A    
C15   O21   A    
C30   H9    S    
C7    C51   S    
Cu5   Cu6   S    
C64   H28   S    
C42   C54   A    
Cu6   O18   S    
C17   C55   S    
C39   H15   S    
C21   C27   A    
Cu3   Cu4   S    
C19   C25   A    
Cu2   O14   S    
Cu1   O13   S    
C47   C59   A    
C11   O7    A    
C29   H10   S    
C9    C53   S    
C28   C36   A    
C6    C42   A    
C16   O4    A    
C56   C61   A    
C20   C31   A    
C1    C37   A    
C4    C47   A    
