data_mof_unit_66111.cif
_audit_creation_date              2012-12-10T20:06:25-0500
_audit_creation_method            fapswitch 2.2
_symmetry_space_group_name_H-M    P1
_symmetry_Int_Tables_number       1
_space_group_crystal_system       triclinic
_cell_length_a                    22.468112
_cell_length_b                    25.879349
_cell_length_c                    22.462297
_cell_angle_alpha                 89.984613
_cell_angle_beta                  89.989794
_cell_angle_gamma                 90.025445
_cell_volume                      13060.9277589

loop_
_atom_site_label
_atom_site_type_symbol
_atom_type_description
_atom_site_fract_x
_atom_site_fract_y
_atom_site_fract_z
_atom_type_partial_charge
C1    C     C_R   0.500034 0.391439 0.749991 0.792776
C2    C     C_R   0.499971 0.391457 0.249934 0.802803
C3    C     C_R   0.500085 0.608557 0.249780 0.778509
C4    C     C_R   0.500053 0.608532 0.750203 0.764493
C5    C     C_R   0.500035 0.891439 0.249992 0.792768
C6    C     C_R   0.499969 0.891457 0.749937 0.802797
C7    C     C_R   0.500084 0.108557 0.749781 0.778493
C8    C     C_R   0.500054 0.108532 0.250204 0.764488
C9    C     C_R   0.000035 0.391439 0.249993 0.792767
C10   C     C_R   0.999966 0.391457 0.749939 0.802799
C11   C     C_R   0.000082 0.608557 0.749783 0.778491
C12   C     C_R   0.000054 0.608532 0.250204 0.764488
C13   C     C_R   0.000032 0.891439 0.749990 0.792785
C14   C     C_R   0.999969 0.891457 0.249937 0.802801
C15   C     C_R   0.000084 0.108557 0.249781 0.778492
C16   C     C_R   0.000053 0.108532 0.750202 0.764499
C17   C     C_3   0.500698 0.051006 0.748801 0.133630
C18   C     C_3   0.500260 0.050946 0.251157 0.127633
C19   C     C_3   0.500782 0.949018 0.251075 0.087197
C20   C     C_3   0.500899 0.949078 0.748923 0.091698
C21   C     C_3   0.500703 0.551006 0.248798 0.133659
C22   C     C_3   0.500259 0.550946 0.751156 0.127643
C23   C     C_3   0.500781 0.449018 0.751073 0.087209
C24   C     C_3   0.500903 0.449078 0.248919 0.091723
C25   C     C_3   0.000697 0.051006 0.248801 0.133633
C26   C     C_3   0.000257 0.050946 0.751155 0.127641
C27   C     C_3   0.000779 0.949018 0.751072 0.087205
C28   C     C_3   0.000898 0.949078 0.248924 0.091701
C29   C     C_3   0.000693 0.551006 0.748804 0.133626
C30   C     C_3   0.000260 0.550946 0.251158 0.127643
C31   C     C_3   0.000783 0.449018 0.251076 0.087207
C32   C     C_3   0.000893 0.449077 0.748927 0.091688
C33   C     C_1   0.500034 0.250039 0.973324 -0.160192
C34   C     C_1   0.500028 0.250036 0.026673 -0.160673
C35   C     C_1   0.500035 0.749966 0.026673 -0.159850
C36   C     C_1   0.500022 0.749957 0.973327 -0.159904
C37   C     C_1   0.500034 0.750039 0.473324 -0.160196
C38   C     C_1   0.500028 0.750036 0.526673 -0.160677
C39   C     C_1   0.500035 0.249966 0.526673 -0.159854
C40   C     C_1   0.500022 0.249957 0.473327 -0.159906
C41   C     C_1   0.000034 0.250039 0.473324 -0.160193
C42   C     C_1   0.000028 0.250036 0.526673 -0.160677
C43   C     C_1   0.000035 0.749966 0.526673 -0.159856
C44   C     C_1   0.000022 0.749957 0.473327 -0.159908
C45   C     C_1   0.000034 0.750039 0.973324 -0.160191
C46   C     C_1   0.000028 0.750036 0.026673 -0.160674
C47   C     C_1   0.000035 0.249966 0.026673 -0.159853
C48   C     C_1   0.000022 0.249957 0.973327 -0.159903
C49   C     C_R   0.500023 0.249985 0.589992 0.835473
C50   C     C_R   0.500010 0.249981 0.410008 0.833762
C51   C     C_R   0.500020 0.750019 0.410001 0.841173
C52   C     C_R   0.500010 0.750012 0.589997 0.839178
C53   C     C_R   0.500023 0.749985 0.089992 0.835469
C54   C     C_R   0.500010 0.749981 0.910008 0.833761
C55   C     C_R   0.500020 0.250019 0.910002 0.841174
C56   C     C_R   0.500010 0.250012 0.089997 0.839178
C57   C     C_R   0.000023 0.249985 0.089992 0.835474
C58   C     C_R   0.000010 0.249981 0.910008 0.833765
C59   C     C_R   0.000020 0.750019 0.910002 0.841175
C60   C     C_R   0.000010 0.750012 0.089997 0.839182
C61   C     C_R   0.000023 0.749985 0.589992 0.835473
C62   C     C_R   0.000010 0.749981 0.410008 0.833759
C63   C     C_R   0.000020 0.250019 0.410001 0.841172
C64   C     C_R   0.000010 0.250012 0.589997 0.839189
C65   C     C_R   0.660019 0.249996 0.749985 0.836685
C66   C     C_R   0.660016 0.250020 0.249984 0.839637
C67   C     C_R   0.660019 0.749996 0.249985 0.836692
C68   C     C_R   0.660016 0.750020 0.749984 0.839639
C69   C     C_R   0.160019 0.249996 0.249985 0.836684
C70   C     C_R   0.160016 0.250020 0.749984 0.839631
C71   C     C_R   0.160019 0.749996 0.749985 0.836684
C72   C     C_R   0.160016 0.750020 0.249984 0.839637
C73   C     C_R   0.339991 0.250007 0.749988 0.835070
C74   C     C_R   0.339987 0.249990 0.250002 0.836459
C75   C     C_R   0.339991 0.750007 0.249988 0.835071
C76   C     C_R   0.339987 0.749990 0.750002 0.836458
C77   C     C_R   0.839991 0.250007 0.249988 0.835071
C78   C     C_R   0.839987 0.249990 0.750002 0.836453
C79   C     C_R   0.839991 0.750007 0.749988 0.835070
C80   C     C_R   0.839987 0.749990 0.250002 0.836458
C81   C     C_1   0.276672 0.250023 0.749974 -0.159526
C82   C     C_1   0.276672 0.249981 0.249998 -0.160362
C83   C     C_1   0.276672 0.750023 0.249974 -0.159527
C84   C     C_1   0.276672 0.749981 0.749998 -0.160361
C85   C     C_1   0.776672 0.250023 0.249973 -0.159529
C86   C     C_1   0.776672 0.249981 0.749998 -0.160361
C87   C     C_1   0.776672 0.750023 0.749974 -0.159529
C88   C     C_1   0.776672 0.749981 0.249998 -0.160362
C89   C     C_1   0.223332 0.250033 0.749977 -0.161139
C90   C     C_1   0.223333 0.249992 0.249981 -0.161346
C91   C     C_1   0.223332 0.750033 0.249977 -0.161137
C92   C     C_1   0.223333 0.749992 0.749981 -0.161346
C93   C     C_1   0.723332 0.250033 0.249977 -0.161142
C94   C     C_1   0.723333 0.249993 0.749981 -0.161349
C95   C     C_1   0.723332 0.750033 0.749977 -0.161137
C96   C     C_1   0.723333 0.749992 0.249981 -0.161350
C97   C     C_3   0.452637 0.029432 0.705386 -0.375724
C98   C     C_3   0.436398 0.029610 0.241369 -0.390039
C99   C     C_3   0.436189 0.970149 0.246332 -0.409779
C100  C     C_3   0.455918 0.970325 0.702274 -0.398729
C101  C     C_3   0.452691 0.529433 0.205328 -0.375745
C102  C     C_3   0.436394 0.529610 0.741387 -0.390037
C103  C     C_3   0.436187 0.470150 0.746350 -0.409776
C104  C     C_3   0.455965 0.470324 0.202230 -0.398725
C105  C     C_3   0.952624 0.029433 0.205400 -0.375731
C106  C     C_3   0.936389 0.029610 0.741413 -0.390035
C107  C     C_3   0.936183 0.970150 0.746376 -0.409771
C108  C     C_3   0.955904 0.970325 0.202288 -0.398724
C109  C     C_3   0.952568 0.529433 0.705455 -0.375738
C110  C     C_3   0.936400 0.529609 0.241363 -0.390043
C111  C     C_3   0.936190 0.470149 0.246326 -0.409778
C112  C     C_3   0.955836 0.470324 0.702347 -0.398685
C113  C     C_3   0.564610 0.029842 0.733838 0.061859
C114  C     C_3   0.528587 0.029813 0.310424 0.071751
C115  C     C_3   0.531800 0.969281 0.308962 0.055330
C116  C     C_3   0.564922 0.969292 0.734720 0.050585
C117  C     C_3   0.564631 0.529841 0.233906 0.061839
C118  C     C_3   0.528603 0.529813 0.810414 0.071725
C119  C     C_3   0.531816 0.469280 0.808951 0.055313
C120  C     C_3   0.564938 0.469291 0.234772 0.050543
C121  C     C_3   0.064605 0.029841 0.233821 0.061841
C122  C     C_3   0.028629 0.029812 0.810399 0.071723
C123  C     C_3   0.031838 0.969280 0.808935 0.055314
C124  C     C_3   0.064917 0.969292 0.234703 0.050576
C125  C     C_3   0.064587 0.529840 0.733749 0.061810
C126  C     C_3   0.028581 0.529813 0.310428 0.071739
C127  C     C_3   0.031794 0.469281 0.308966 0.055313
C128  C     C_3   0.064897 0.469290 0.734622 0.050556
C129  C     C_3   0.483792 0.030064 0.811527 -0.477741
C130  C     C_3   0.538531 0.029843 0.198552 -0.460344
C131  C     C_3   0.536300 0.970396 0.196790 -0.447335
C132  C     C_3   0.482200 0.970214 0.811025 -0.469195
C133  C     C_3   0.483727 0.530064 0.311504 -0.477764
C134  C     C_3   0.538514 0.529844 0.698539 -0.460346
C135  C     C_3   0.536282 0.470396 0.696778 -0.447350
C136  C     C_3   0.482150 0.470214 0.311004 -0.469207
C137  C     C_3   0.983809 0.030064 0.311533 -0.477729
C138  C     C_3   0.038488 0.029844 0.698521 -0.460348
C139  C     C_3   0.036256 0.970396 0.696761 -0.447364
C140  C     C_3   0.982217 0.970214 0.311032 -0.469196
C141  C     C_3   0.983874 0.530064 0.811557 -0.477668
C142  C     C_3   0.038537 0.529843 0.198557 -0.460346
C143  C     C_3   0.036306 0.470396 0.196795 -0.447338
C144  C     C_3   0.982291 0.470214 0.811061 -0.469151
H1    H     H_    0.455291 0.046129 0.660165 0.187140
H2    H     H_    0.403508 0.046717 0.272299 0.185662
H3    H     H_    0.409201 0.958016 0.285295 0.174547
H4    H     H_    0.468351 0.958134 0.656537 0.170307
H5    H     H_    0.455406 0.546124 0.160108 0.187110
H6    H     H_    0.403513 0.546717 0.772325 0.185670
H7    H     H_    0.409211 0.458017 0.785321 0.174556
H8    H     H_    0.468432 0.458126 0.156506 0.170295
H9    H     H_    0.955265 0.046129 0.160178 0.187147
H10   H     H_    0.903523 0.046717 0.772367 0.185684
H11   H     H_    0.909225 0.958017 0.785359 0.174563
H12   H     H_    0.968324 0.958134 0.156547 0.170319
H13   H     H_    0.955165 0.546123 0.660225 0.187162
H14   H     H_    0.903506 0.546718 0.272288 0.185658
H15   H     H_    0.909199 0.458017 0.285286 0.174548
H16   H     H_    0.968190 0.458129 0.656588 0.170349
H17   H     H_    0.407694 0.040654 0.721854 0.177396
H18   H     H_    0.420764 0.040790 0.196124 0.159151
H19   H     H_    0.413984 0.953626 0.206327 0.161852
H20   H     H_    0.410733 0.954328 0.711015 0.187647
H21   H     H_    0.407729 0.540662 0.221739 0.177438
H22   H     H_    0.420747 0.540790 0.696146 0.159150
H23   H     H_    0.413969 0.453625 0.706352 0.161852
H24   H     H_    0.410770 0.454335 0.210937 0.187679
H25   H     H_    0.907685 0.040654 0.221881 0.177387
H26   H     H_    0.920721 0.040791 0.696181 0.159151
H27   H     H_    0.913949 0.953626 0.706388 0.161858
H28   H     H_    0.910721 0.954328 0.211041 0.187636
H29   H     H_    0.907646 0.540662 0.721984 0.177342
H30   H     H_    0.920771 0.540790 0.196116 0.159152
H31   H     H_    0.913989 0.453625 0.206319 0.161851
H32   H     H_    0.910661 0.454331 0.711167 0.187580
H33   H     H_    0.516428 0.043478 0.845448 0.186671
H34   H     H_    0.585628 0.042610 0.203260 0.185569
H35   H     H_    0.582620 0.955133 0.196758 0.189195
H36   H     H_    0.512455 0.955184 0.846219 0.185126
H37   H     H_    0.516317 0.543486 0.345464 0.186642
H38   H     H_    0.585612 0.542609 0.703233 0.185578
H39   H     H_    0.582602 0.455133 0.696731 0.189204
H40   H     H_    0.512380 0.455190 0.346223 0.185097
H41   H     H_    0.016454 0.043478 0.345444 0.186678
H42   H     H_    0.085588 0.042609 0.703193 0.185594
H43   H     H_    0.082576 0.955134 0.696694 0.189219
H44   H     H_    0.012482 0.955184 0.346217 0.185135
H45   H     H_    0.016556 0.543483 0.845436 0.186702
H46   H     H_    0.085633 0.542609 0.203270 0.185567
H47   H     H_    0.082626 0.455133 0.196767 0.189193
H48   H     H_    0.012609 0.455190 0.846207 0.185169
H49   H     H_    0.439506 0.045189 0.825313 0.177647
H50   H     H_    0.522006 0.045366 0.155366 0.197895
H51   H     H_    0.514944 0.957626 0.154549 0.196518
H52   H     H_    0.436478 0.956713 0.822117 0.181257
H53   H     H_    0.439421 0.545181 0.325235 0.177657
H54   H     H_    0.521976 0.545366 0.655359 0.197883
H55   H     H_    0.514913 0.457626 0.654544 0.196508
H56   H     H_    0.436422 0.456706 0.322061 0.181258
H57   H     H_    0.939527 0.045189 0.325331 0.177644
H58   H     H_    0.021930 0.045366 0.655348 0.197866
H59   H     H_    0.014869 0.957626 0.654536 0.196494
H60   H     H_    0.936498 0.956713 0.322137 0.181254
H61   H     H_    0.939602 0.545184 0.825403 0.177633
H62   H     H_    0.022016 0.545366 0.155369 0.197899
H63   H     H_    0.014954 0.457627 0.154552 0.196523
H64   H     H_    0.936588 0.456708 0.822231 0.181226
H65   H     H_    0.592727 0.040954 0.772777 0.088821
H66   H     H_    0.576014 0.042608 0.309013 0.054386
H67   H     H_    0.579685 0.958508 0.304364 0.101331
H68   H     H_    0.593366 0.957047 0.772960 0.129690
H69   H     H_    0.592700 0.540943 0.272883 0.088846
H70   H     H_    0.576030 0.542607 0.808988 0.054396
H71   H     H_    0.579700 0.458508 0.804338 0.101350
H72   H     H_    0.593353 0.457036 0.273028 0.129736
H73   H     H_    0.092733 0.040954 0.272752 0.088812
H74   H     H_    0.076054 0.042606 0.808951 0.054412
H75   H     H_    0.079720 0.958506 0.804303 0.101365
H76   H     H_    0.093372 0.957046 0.272934 0.129695
H77   H     H_    0.092759 0.540949 0.772653 0.088780
H78   H     H_    0.076008 0.542608 0.309021 0.054382
H79   H     H_    0.079680 0.458508 0.304372 0.101337
H80   H     H_    0.093406 0.457039 0.772813 0.129663
O1    O     O_3   0.500000 0.250000 0.750000 -0.480163
O2    O     O_3   0.500000 0.250000 0.250000 -0.479697
O3    O     O_3   0.500000 0.750000 0.250000 -0.480164
O4    O     O_3   0.500000 0.750000 0.750000 -0.479697
O5    O     O_3   1.000000 0.250000 0.250000 -0.480163
O6    O     O_3   0.000000 0.250000 0.750000 -0.479696
O7    O     O_3   0.000000 0.750000 0.750000 -0.480162
O8    O     O_3   1.000000 0.750000 0.250000 -0.479697
O9    O     O_R   0.465380 0.366870 0.784620 -0.639152
O10   O     O_R   0.465380 0.366870 0.215380 -0.649852
O11   O     O_R   0.465380 0.633130 0.215380 -0.652553
O12   O     O_R   0.465380 0.633130 0.784620 -0.647921
O13   O     O_R   0.465380 0.866870 0.284620 -0.639156
O14   O     O_R   0.465380 0.866870 0.715380 -0.649851
O15   O     O_R   0.465380 0.133130 0.715380 -0.652548
O16   O     O_R   0.465380 0.133130 0.284620 -0.647920
O17   O     O_R   0.965380 0.366870 0.284620 -0.639147
O18   O     O_R   0.965380 0.366870 0.715380 -0.649830
O19   O     O_R   0.965380 0.633130 0.715380 -0.652557
O20   O     O_R   0.965380 0.633130 0.284620 -0.647919
O21   O     O_R   0.965380 0.866870 0.784620 -0.639159
O22   O     O_R   0.965380 0.866870 0.215380 -0.649846
O23   O     O_R   0.965380 0.133130 0.215380 -0.652551
O24   O     O_R   0.965380 0.133130 0.784620 -0.647922
O25   O     O_R   0.534610 0.280640 0.617980 -0.637040
O26   O     O_R   0.534610 0.280640 0.382020 -0.638247
O27   O     O_R   0.534610 0.719360 0.382020 -0.637457
O28   O     O_R   0.534610 0.719360 0.617980 -0.636078
O29   O     O_R   0.534610 0.780640 0.117980 -0.637040
O30   O     O_R   0.534610 0.780640 0.882020 -0.638249
O31   O     O_R   0.534610 0.219360 0.882020 -0.637456
O32   O     O_R   0.534610 0.219360 0.117980 -0.636077
O33   O     O_R   0.034610 0.280640 0.117980 -0.637038
O34   O     O_R   0.034610 0.280640 0.882020 -0.638246
O35   O     O_R   0.034610 0.719360 0.882020 -0.637455
O36   O     O_R   0.034610 0.719360 0.117980 -0.636077
O37   O     O_R   0.034610 0.780640 0.617980 -0.637039
O38   O     O_R   0.034610 0.780640 0.382020 -0.638247
O39   O     O_R   0.034610 0.219360 0.382020 -0.637456
O40   O     O_R   0.034610 0.219360 0.617980 -0.636078
O41   O     O_R   0.632030 0.280640 0.715400 -0.636719
O42   O     O_R   0.632030 0.280640 0.284600 -0.635850
O43   O     O_R   0.632030 0.719360 0.284600 -0.638867
O44   O     O_R   0.632030 0.719360 0.715400 -0.637357
O45   O     O_R   0.632030 0.780640 0.215400 -0.636717
O46   O     O_R   0.632030 0.780640 0.784600 -0.635840
O47   O     O_R   0.632030 0.219360 0.784600 -0.638862
O48   O     O_R   0.632030 0.219360 0.215400 -0.637353
O49   O     O_R   0.132030 0.280640 0.215400 -0.636719
O50   O     O_R   0.132030 0.280640 0.784600 -0.635852
O51   O     O_R   0.132030 0.719360 0.784600 -0.638857
O52   O     O_R   0.132030 0.719360 0.215400 -0.637354
O53   O     O_R   0.132030 0.780640 0.715400 -0.636719
O54   O     O_R   0.132030 0.780640 0.284600 -0.635845
O55   O     O_R   0.132030 0.219360 0.284600 -0.638861
O56   O     O_R   0.132030 0.219360 0.715400 -0.637351
O57   O     O_R   0.367970 0.280650 0.784620 -0.639736
O58   O     O_R   0.367970 0.280650 0.215380 -0.638034
O59   O     O_R   0.367970 0.719350 0.215380 -0.637173
O60   O     O_R   0.367970 0.719350 0.784620 -0.640138
O61   O     O_R   0.367970 0.780650 0.284620 -0.639736
O62   O     O_R   0.367970 0.780650 0.715380 -0.638037
O63   O     O_R   0.367970 0.219350 0.715380 -0.637175
O64   O     O_R   0.367970 0.219350 0.284620 -0.640140
O65   O     O_R   0.867970 0.280650 0.284620 -0.639737
O66   O     O_R   0.867970 0.280650 0.715380 -0.638041
O67   O     O_R   0.867970 0.719350 0.715380 -0.637177
O68   O     O_R   0.867970 0.719350 0.284620 -0.640142
O69   O     O_R   0.867970 0.780650 0.784620 -0.639736
O70   O     O_R   0.867970 0.780650 0.215380 -0.638037
O71   O     O_R   0.867970 0.219350 0.215380 -0.637175
O72   O     O_R   0.867970 0.219350 0.784620 -0.640137
O73   O     O_R   0.465380 0.219370 0.617980 -0.639904
O74   O     O_R   0.465380 0.219370 0.382020 -0.641229
O75   O     O_R   0.465380 0.780630 0.382020 -0.633752
O76   O     O_R   0.465380 0.780630 0.617980 -0.636962
O77   O     O_R   0.465380 0.719370 0.117980 -0.639900
O78   O     O_R   0.465380 0.719370 0.882020 -0.641229
O79   O     O_R   0.465380 0.280630 0.882020 -0.633751
O80   O     O_R   0.465380 0.280630 0.117980 -0.636962
O81   O     O_R   0.965380 0.219370 0.117980 -0.639906
O82   O     O_R   0.965380 0.219370 0.882020 -0.641229
O83   O     O_R   0.965380 0.780630 0.882020 -0.633753
O84   O     O_R   0.965380 0.780630 0.117980 -0.636960
O85   O     O_R   0.965380 0.719370 0.617980 -0.639913
O86   O     O_R   0.965380 0.719370 0.382020 -0.641231
O87   O     O_R   0.965380 0.280630 0.382020 -0.633751
O88   O     O_R   0.965380 0.280630 0.617980 -0.636959
O89   O     O_R   0.534610 0.366870 0.715390 -0.653522
O90   O     O_R   0.534610 0.366870 0.284610 -0.647062
O91   O     O_R   0.534610 0.633130 0.284610 -0.654919
O92   O     O_R   0.534610 0.633130 0.715390 -0.651835
O93   O     O_R   0.534610 0.866870 0.215390 -0.653520
O94   O     O_R   0.534610 0.866870 0.784610 -0.647058
O95   O     O_R   0.534610 0.133130 0.784610 -0.654923
O96   O     O_R   0.534610 0.133130 0.215390 -0.651832
O97   O     O_R   0.034610 0.366870 0.215390 -0.653521
O98   O     O_R   0.034610 0.366870 0.784610 -0.647093
O99   O     O_R   0.034610 0.633130 0.784610 -0.654919
O100  O     O_R   0.034610 0.633130 0.215390 -0.651832
O101  O     O_R   0.034610 0.866870 0.715390 -0.653522
O102  O     O_R   0.034610 0.866870 0.284610 -0.647066
O103  O     O_R   0.034610 0.133130 0.284610 -0.654922
O104  O     O_R   0.034610 0.133130 0.715390 -0.651838
Zn1   Zn    Zn3+2 0.450550 0.206230 0.700550 0.959856
Zn2   Zn    Zn3+2 0.450550 0.206230 0.299450 0.952321
Zn3   Zn    Zn3+2 0.450550 0.793770 0.299450 0.971199
Zn4   Zn    Zn3+2 0.450550 0.793770 0.700550 0.969057
Zn5   Zn    Zn3+2 0.450550 0.706230 0.200550 0.959863
Zn6   Zn    Zn3+2 0.450550 0.706230 0.799450 0.952322
Zn7   Zn    Zn3+2 0.450550 0.293770 0.799450 0.971201
Zn8   Zn    Zn3+2 0.450550 0.293770 0.200550 0.969060
Zn9   Zn    Zn3+2 0.950550 0.206230 0.200550 0.959854
Zn10  Zn    Zn3+2 0.950550 0.206230 0.799450 0.952322
Zn11  Zn    Zn3+2 0.950550 0.793770 0.799450 0.971200
Zn12  Zn    Zn3+2 0.950550 0.793770 0.200550 0.969062
Zn13  Zn    Zn3+2 0.950550 0.706230 0.700550 0.959839
Zn14  Zn    Zn3+2 0.950550 0.706230 0.299450 0.952316
Zn15  Zn    Zn3+2 0.950550 0.293770 0.299450 0.971199
Zn16  Zn    Zn3+2 0.950550 0.293770 0.700550 0.969066
Zn17  Zn    Zn3+2 0.549450 0.293780 0.700550 0.966785
Zn18  Zn    Zn3+2 0.549450 0.293780 0.299450 0.970318
Zn19  Zn    Zn3+2 0.549450 0.706220 0.299450 0.964394
Zn20  Zn    Zn3+2 0.549450 0.706220 0.700550 0.966120
Zn21  Zn    Zn3+2 0.549450 0.793780 0.200550 0.966788
Zn22  Zn    Zn3+2 0.549450 0.793780 0.799450 0.970328
Zn23  Zn    Zn3+2 0.549450 0.206220 0.799450 0.964396
Zn24  Zn    Zn3+2 0.549450 0.206220 0.200550 0.966123
Zn25  Zn    Zn3+2 0.049450 0.293780 0.200550 0.966785
Zn26  Zn    Zn3+2 0.049450 0.293780 0.799450 0.970315
Zn27  Zn    Zn3+2 0.049450 0.706220 0.799450 0.964401
Zn28  Zn    Zn3+2 0.049450 0.706220 0.200550 0.966125
Zn29  Zn    Zn3+2 0.049450 0.793780 0.700550 0.966788
Zn30  Zn    Zn3+2 0.049450 0.793780 0.299450 0.970322
Zn31  Zn    Zn3+2 0.049450 0.206220 0.299450 0.964395
Zn32  Zn    Zn3+2 0.049450 0.206220 0.700550 0.966127
N1    N     N_2   0.594494 0.053208 0.682356 -0.297784
H81   H     H_    0.622310 0.083521 0.693233 0.215493
C145  C     C_3   0.564803 0.061116 0.625889 -0.785449
H82   H     H_    0.598825 0.068207 0.590991 0.232695
H83   H     H_    0.535768 0.095714 0.628041 0.237307
H84   H     H_    0.538908 0.026906 0.612065 0.236344
N2    N     N_2   0.505093 0.051879 0.365815 -0.291039
H85   H     H_    0.525846 0.085436 0.379424 0.214576
C146  C     C_3   0.442918 0.049371 0.382876 -0.714396
H86   H     H_    0.439988 0.047025 0.432118 0.226568
H87   H     H_    0.419914 0.015438 0.364379 0.222130
H88   H     H_    0.419227 0.084845 0.368691 0.254691
N3    N     N_2   0.509852 0.943811 0.362658 -0.275487
H89   H     H_    0.464869 0.942721 0.370799 0.248593
C147  C     C_3   0.548226 0.943142 0.414426 -0.774138
H90   H     H_    0.530050 0.915767 0.447879 0.236341
H91   H     H_    0.550769 0.982075 0.434860 0.255643
H92   H     H_    0.593633 0.929976 0.402144 0.225896
N4    N     N_2   0.589294 0.945417 0.681139 -0.295219
H93   H     H_    0.567628 0.951252 0.641452 0.236750
C148  C     C_3   0.653402 0.941103 0.677098 -0.775214
H94   H     H_    0.665363 0.917879 0.637297 0.230452
H95   H     H_    0.671430 0.921164 0.717012 0.238445
H96   H     H_    0.674087 0.979873 0.672944 0.256372
N5    N     N_2   0.594582 0.553216 0.182468 -0.297776
H97   H     H_    0.622403 0.583512 0.193392 0.215544
C149  C     C_3   0.564954 0.561161 0.125976 -0.785468
H98   H     H_    0.599015 0.568275 0.091123 0.232702
H99   H     H_    0.535915 0.595757 0.128124 0.237251
H100  H     H_    0.539077 0.526959 0.112092 0.236341
N6    N     N_2   0.505127 0.551878 0.865811 -0.291053
H101  H     H_    0.525885 0.585435 0.879414 0.214562
C150  C     C_3   0.442957 0.549374 0.882890 -0.714400
H102  H     H_    0.440041 0.547027 0.932133 0.226574
H103  H     H_    0.419946 0.515442 0.864400 0.222127
H104  H     H_    0.419265 0.584850 0.868713 0.254695
N7    N     N_2   0.509883 0.443811 0.862653 -0.275498
H105  H     H_    0.464903 0.442729 0.870812 0.248590
C151  C     C_3   0.548279 0.443133 0.914404 -0.774102
H106  H     H_    0.530086 0.415786 0.947881 0.236330
H107  H     H_    0.550874 0.482077 0.934813 0.255628
H108  H     H_    0.593668 0.429923 0.902106 0.225891
N8    N     N_2   0.589346 0.445429 0.181201 -0.295223
H109  H     H_    0.567723 0.451292 0.141498 0.236782
C152  C     C_3   0.653453 0.441085 0.177223 -0.775386
H110  H     H_    0.665450 0.417943 0.137376 0.230476
H111  H     H_    0.671412 0.421051 0.217097 0.238520
H112  H     H_    0.674171 0.479846 0.173211 0.256383
N9    N     N_2   0.094475 0.053207 0.182330 -0.297772
H113  H     H_    0.122295 0.083519 0.193198 0.215482
C153  C     C_3   0.064767 0.061117 0.125871 -0.785409
H114  H     H_    0.098779 0.068206 0.090964 0.232696
H115  H     H_    0.035735 0.095715 0.128030 0.237314
H116  H     H_    0.038867 0.026907 0.112055 0.236338
N10   N     N_2   0.005179 0.051880 0.865806 -0.291062
H117  H     H_    0.025943 0.085437 0.879397 0.214543
C154  C     C_3   0.943018 0.049377 0.882914 -0.714422
H118  H     H_    0.940124 0.047032 0.932157 0.226579
H119  H     H_    0.919997 0.015446 0.864435 0.222135
H120  H     H_    0.919320 0.084853 0.868745 0.254698
N11   N     N_2   0.009927 0.943812 0.862646 -0.275518
H121  H     H_    0.964951 0.942729 0.870822 0.248587
C155  C     C_3   0.048344 0.943133 0.914381 -0.774136
H122  H     H_    0.030159 0.915793 0.947868 0.236333
H123  H     H_    0.050959 0.982076 0.934785 0.255639
H124  H     H_    0.093723 0.929913 0.902066 0.225903
N12   N     N_2   0.089274 0.945418 0.181114 -0.295210
H125  H     H_    0.067600 0.951256 0.141432 0.236770
C156  C     C_3   0.153381 0.941095 0.177063 -0.775340
H126  H     H_    0.165336 0.917907 0.137240 0.230480
H127  H     H_    0.171400 0.921117 0.216951 0.238468
H128  H     H_    0.174079 0.979859 0.172959 0.256371
N13   N     N_2   0.094403 0.553211 0.682226 -0.297762
H129  H     H_    0.122233 0.583525 0.693067 0.215425
C157  C     C_3   0.064635 0.561121 0.625795 -0.785249
H130  H     H_    0.098614 0.568207 0.590850 0.232663
H131  H     H_    0.035608 0.595722 0.627982 0.237356
H132  H     H_    0.038714 0.526914 0.612005 0.236306
N14   N     N_2   0.005081 0.551878 0.365815 -0.291044
H133  H     H_    0.025834 0.585434 0.379428 0.214576
C158  C     C_3   0.942904 0.549372 0.382870 -0.714394
H134  H     H_    0.939969 0.547024 0.432111 0.226570
H135  H     H_    0.919901 0.515441 0.364369 0.222122
H136  H     H_    0.919217 0.584848 0.368684 0.254694
N15   N     N_2   0.009841 0.443812 0.362660 -0.275488
H137  H     H_    0.964858 0.442728 0.370800 0.248593
C159  C     C_3   0.048216 0.443135 0.414426 -0.774069
H138  H     H_    0.030013 0.415783 0.447894 0.236336
H139  H     H_    0.050796 0.482077 0.434841 0.255624
H140  H     H_    0.093612 0.429931 0.402147 0.225885
N16   N     N_2   0.089179 0.445422 0.680993 -0.295173
H141  H     H_    0.067443 0.451253 0.641342 0.236755
C160  C     C_3   0.153282 0.441096 0.676849 -0.775347
H142  H     H_    0.165181 0.417937 0.636985 0.230474
H143  H     H_    0.171354 0.421088 0.716693 0.238434
H144  H     H_    0.173980 0.479859 0.672754 0.256387

loop_
_geom_bond_atom_site_label_1
_geom_bond_atom_site_label_2
_ccdc_geom_bond_type
C33   C55   S    
N12   H125  S    
C124  H76   S    
C34   C56   S    
C126  C127  S    
C35   C53   S    
C54   O30   A    
O79   Zn7   S    
C149  H100  S    
C54   O78   A    
C79   C87   S    
C114  C115  S    
C25   C105  S    
C107  H27   S    
C149  H99   S    
C6    O14   A    
O82   Zn10  S    
C105  H25   S    
C29   C109  S    
N8    C152  S    
O2    Zn18  S    
O10   Zn8   S    
C109  H29   S    
O63   Zn1   S    
C153  H115  S    
C106  C107  S    
C69   O55   A    
C70   O56   A    
O22   Zn12  S    
C110  C111  S    
C21   C117  S    
C3    O11   A    
C23   C103  S    
C1    O9    A    
C71   O51   A    
C2    O90   A    
O16   Zn2   S    
C131  H35   S    
O99   Zn27  S    
C146  H88   S    
O53   Zn29  S    
C110  H30   S    
O95   Zn23  S    
C4    O92   A    
C13   O101  A    
C20   C132  S    
C21   C133  S    
C98   H18   S    
O8    Zn28  S    
C155  H124  S    
C16   O24   A    
C137  C140  S    
O11   Zn5   S    
C68   C95   S    
C5    O93   A    
O18   Zn16  S    
O13   Zn3   S    
O71   Zn9   S    
C120  N8    S    
C141  C144  S    
O41   Zn17  S    
C72   C91   S    
C19   C99   S    
C158  H136  S    
C130  H50   S    
C118  N6    S    
O1    Zn23  S    
O7    Zn29  S    
C160  H144  S    
C43   C44   T    
C159  H139  S    
C37   C38   T    
C122  N10   S    
C7    O95   A    
O30   Zn22  S    
O5    Zn31  S    
O66   Zn16  S    
C49   O73   A    
O90   Zn18  S    
C121  N9    S    
O3    Zn5   S    
C133  C136  S    
O29   Zn21  S    
O36   Zn28  S    
C148  H94   S    
C18   C130  S    
C41   C63   S    
C149  H98   S    
C42   C64   S    
C75   C83   S    
C136  H56   S    
C83   C91   T    
O19   Zn13  S    
C20   C116  S    
O6    Zn16  S    
C22   C118  S    
C99   H3    S    
C45   C59   S    
C133  H53   S    
C112  H16   S    
C46   C60   S    
C97   H1    S    
O52   Zn28  S    
C76   O60   A    
C131  H51   S    
C115  N3    S    
O2    Zn24  S    
C24   C136  S    
C147  H90   S    
O102  Zn30  S    
O61   Zn3   S    
C69   O49   A    
C150  H102  S    
O54   Zn30  S    
C14   O102  A    
C104  H8    S    
N7    C151  S    
C130  C131  S    
C61   O37   A    
C50   O74   A    
C152  H110  S    
C79   O69   A    
C135  H55   S    
C138  H58   S    
O80   Zn8   S    
C6    C20   S    
C28   C108  S    
C57   O33   A    
C55   O31   A    
O93   Zn21  S    
C142  H62   S    
C31   C143  S    
N15   H137  S    
C32   C144  S    
O88   Zn16  S    
O97   Zn25  S    
O42   Zn18  S    
C80   C88   S    
C98   C99   S    
C143  H47   S    
N9    H113  S    
C25   C121  S    
C107  H11   S    
C157  H131  S    
C105  H9    S    
C103  H23   S    
N11   H121  S    
C29   C125  S    
C11   O19   A    
C31   C127  S    
C9    O17   A    
C59   O83   A    
C17   C113  S    
C156  H126  S    
N12   C156  S    
C58   O34   A    
O14   Zn4   S    
C140  H60   S    
C125  N13   S    
C77   O65   A    
C15   C25   S    
C60   O84   A    
C151  H106  S    
O62   Zn4   S    
O84   Zn12  S    
O27   Zn19  S    
C30   C142  S    
O3    Zn3   S    
C85   C93   T    
O55   Zn31  S    
C71   C92   S    
N10   H117  S    
C11   O99   A    
C7    C17   S    
C87   C95   T    
C148  H96   S    
N10   C154  S    
O4    Zn22  S    
O60   Zn6   S    
C72   O54   A    
C50   O26   A    
C6    O94   A    
C77   C85   S    
C102  H22   S    
C113  N1    S    
C4    O12   A    
C76   O62   A    
C124  N12   S    
C134  H38   S    
C154  H119  S    
C8    O16   A    
C150  H104  S    
O37   Zn29  S    
O23   Zn9   S    
C152  H112  S    
O33   Zn25  S    
C39   C40   T    
C80   O68   A    
N13   C157  S    
O73   Zn1   S    
C27   C139  S    
O56   Zn32  S    
C3    O91   A    
C25   C137  S    
O3    Zn21  S    
C26   C106  S    
C47   C57   S    
C4    C22   S    
C29   C141  S    
C52   O28   A    
C74   O58   A    
C132  H36   S    
C66   C93   S    
C99   H19   S    
C133  H37   S    
C39   C49   S    
C97   H17   S    
C56   O32   A    
C145  H84   S    
C70   C89   S    
O8    Zn12  S    
C49   O25   A    
C97   C100  S    
C156  H128  S    
C73   O57   A    
N6    C150  S    
C123  H75   S    
C112  H32   S    
O57   Zn7   S    
O25   Zn17  S    
O1    Zn1   S    
O59   Zn5   S    
C28   C124  S    
C134  C135  S    
C125  H77   S    
C62   O86   A    
O7    Zn13  S    
C115  H67   S    
C32   C128  S    
C108  H28   S    
C113  H65   S    
N7    H105  S    
C137  H57   S    
O5    Zn15  S    
O31   Zn23  S    
O38   Zn30  S    
C102  C103  S    
C141  H61   S    
C36   C54   S    
N16   H141  S    
C63   O87   A    
O34   Zn26  S    
C31   C111  S    
O69   Zn11  S    
C84   C92   T    
C158  H135  S    
N5    C149  S    
C17   C97   S    
C147  H91   S    
C60   O36   A    
C146  H87   S    
C13   O21   A    
C88   C96   T    
C70   O50   A    
C41   C42   T    
C35   C36   T    
C65   O41   A    
C76   C84   S    
C51   O75   A    
N4    H93   S    
C155  H123  S    
C45   C46   T    
N1    C145  S    
C71   O53   A    
C5    O13   A    
C30   C110  S    
C138  H42   S    
O3    Zn19  S    
N3    C147  S    
O64   Zn2   S    
C119  N7    S    
C147  H92   S    
C142  H46   S    
C144  H64   S    
C73   C81   S    
C160  H143  S    
C111  H15   S    
C130  H34   S    
C2    O10   A    
C143  H63   S    
N2    H85   S    
C114  N2    S    
C106  H10   S    
C28   C140  S    
C145  H82   S    
C78   O66   A    
C135  H39   S    
C122  H74   S    
C136  H40   S    
C110  H14   S    
C103  H7    S    
C129  C132  S    
C81   C89   T    
C109  H13   S    
O39   Zn31  S    
C153  H116  S    
C16   C26   S    
C18   C114  S    
C53   O29   A    
C74   C82   S    
C137  H41   S    
O75   Zn3   S    
C9    O97   A    
C24   C120  S    
O74   Zn2   S    
C159  H138  S    
C123  N11   S    
O72   Zn10  S    
C141  H45   S    
O96   Zn24  S    
C117  C120  S    
O86   Zn14  S    
O51   Zn27  S    
C144  H48   S    
O68   Zn14  S    
C129  H33   S    
C43   C61   S    
C8    C18   S    
C140  H44   S    
N14   H133  S    
C77   O71   A    
C78   O72   A    
C108  H12   S    
C27   C107  S    
O32   Zn24  S    
C100  H20   S    
O91   Zn19  S    
C101  H21   S    
O40   Zn32  S    
C102  H6    S    
C15   O23   A    
C101  C104  S    
O1    Zn17  S    
O7    Zn27  S    
O83   Zn11  S    
N5    H97   S    
O103  Zn31  S    
O4    Zn6   S    
C32   C112  S    
C12   C30   S    
C72   O52   A    
O44   Zn20  S    
C26   C138  S    
C63   O39   A    
C64   O40   A    
C48   C58   S    
C5    C19   S    
O101  Zn29  S    
C121  H73   S    
C117  N5    S    
C82   C90   T    
C23   C135  S    
O5    Zn9   S    
O98   Zn26  S    
N14   C158  S    
C159  H140  S    
C116  H68   S    
C139  H59   S    
O6    Zn32  S    
C52   O76   A    
C126  N14   S    
C56   O80   A    
C40   C50   S    
C10   O98   A    
O24   Zn10  S    
O58   Zn8   S    
C68   O44   A    
C138  C139  S    
C53   O77   A    
C67   O45   A    
C22   C134  S    
O43   Zn19  S    
O4    Zn20  S    
O20   Zn14  S    
C106  H26   S    
C153  H114  S    
C148  H95   S    
C142  C143  S    
C23   C119  S    
O85   Zn13  S    
C26   C122  S    
C79   O67   A    
N16   C160  S    
O6    Zn26  S    
C151  H108  S    
C30   C126  S    
C119  H71   S    
C1    O89   A    
O67   Zn13  S    
N8    H109  S    
C10   O18   A    
C62   O38   A    
C154  H118  S    
N6    H101  S    
C151  H107  S    
C114  H66   S    
C128  H80   S    
C150  H103  S    
O89   Zn17  S    
C8    O96   A    
C111  H31   S    
O5    Zn25  S    
C152  H111  S    
O47   Zn23  S    
C37   C51   S    
N4    C148  S    
C38   C52   S    
C75   O59   A    
O76   Zn4   S    
O81   Zn9   S    
N15   C159  S    
C118  C119  S    
C121  C124  S    
C86   C94   T    
C74   O64   A    
O8    Zn30  S    
C55   O79   A    
C20   C100  S    
C125  C128  S    
N9    C153  S    
C51   O27   A    
C66   O42   A    
C127  H79   S    
C157  H132  S    
C21   C101  S    
C78   C86   S    
N11   C155  S    
C145  H83   S    
C75   O61   A    
O70   Zn12  S    
C139  H43   S    
O2    Zn2   S    
O9    Zn7   S    
O92   Zn20  S    
C19   C131  S    
C105  C108  S    
O48   Zn24  S    
C156  H127  S    
C17   C129  S    
O21   Zn11  S    
C118  H70   S    
C109  C112  S    
C155  H122  S    
O78   Zn6   S    
C27   C123  S    
C98   H2    S    
C44   C62   S    
O45   Zn21  S    
C24   C104  S    
C117  H69   S    
O28   Zn20  S    
O87   Zn15  S    
C68   O46   A    
O100  Zn28  S    
C116  N4    S    
C10   C32   S    
C104  H24   S    
C67   O43   A    
C73   O63   A    
C61   O85   A    
C47   C48   T    
C16   O104  A    
C128  N16   S    
C19   C115  S    
O15   Zn1   S    
C33   C34   T    
O1    Zn7   S    
C57   O81   A    
C12   O100  A    
C127  N15   S    
C80   O70   A    
C65   C94   S    
C7    O15   A    
C1    C23   S    
O94   Zn22  S    
C2    C24   S    
C67   C96   S    
C3    C21   S    
C59   O35   A    
O17   Zn15  S    
C69   C90   S    
C64   O88   A    
C154  H120  S    
C15   O103  A    
C146  H86   S    
C134  H54   S    
O26   Zn18  S    
O6    Zn10  S    
C129  H49   S    
C126  H78   S    
C120  H72   S    
O50   Zn26  S    
N1    H81   S    
C22   C102  S    
C113  C116  S    
O65   Zn15  S    
O8    Zn14  S    
C58   O82   A    
N3    H89   S    
O4    Zn4   S    
O2    Zn8   S    
C158  H134  S    
C100  H4    S    
C101  H5    S    
C12   O20   A    
O104  Zn32  S    
N2    C146  S    
C160  H142  S    
C65   O47   A    
C66   O48   A    
C9    C31   S    
C157  H130  S    
O35   Zn27  S    
C11   C29   S    
O12   Zn6   S    
N13   H129  S    
O7    Zn11  S    
C132  H52   S    
C13   C27   S    
O77   Zn5   S    
C18   C98   S    
C14   C28   S    
C122  C123  S    
O49   Zn25  S    
O46   Zn22  S    
C14   O22   A    
