data_mof_unit_58235.cif
_audit_creation_date              2012-12-10T18:05:53-0500
_audit_creation_method            fapswitch 2.2
_symmetry_space_group_name_H-M    P1
_symmetry_Int_Tables_number       1
_space_group_crystal_system       triclinic
_cell_length_a                    12.587896
_cell_length_b                    13.165707
_cell_length_c                    14.89041
_cell_angle_alpha                 89.823268
_cell_angle_beta                  103.08539
_cell_angle_gamma                 82.28652
_cell_volume                      2380.50530723

loop_
_atom_site_label
_atom_site_type_symbol
_atom_type_description
_atom_site_fract_x
_atom_site_fract_y
_atom_site_fract_z
_atom_type_partial_charge
C1    C     C_R   0.438586 0.691552 0.486636 0.907354
C2    C     C_R   0.551154 0.406325 0.102808 -0.048506
C3    C     C_R   0.377295 0.660755 0.025026 0.431127
C4    C     C_R   0.388756 0.669735 0.934349 0.219417
C5    C     C_R   0.448510 0.587918 0.897030 -0.088083
C6    C     C_R   0.494007 0.496566 0.951678 -0.098943
C7    C     C_R   0.541408 0.409063 0.912695 -0.014181
C8    C     C_R   0.591741 0.321091 0.967514 0.427855
C9    C     C_R   0.608791 0.324893 0.063180 0.215839
C10   C     C_R   0.464626 0.592759 0.806894 0.477593
C11   C     C_R   0.502859 0.502339 0.768311 -0.187928
C12   C     C_R   0.500853 0.500903 0.672602 0.915044
C13   C     C_R   0.540742 0.411874 0.819620 -0.261850
C14   C     C_R   0.731314 0.053791 0.504834 0.534540
C15   C     C_R   0.599954 0.199449 0.522863 -0.133176
C16   C     C_R   0.307230 0.832841 0.519835 -0.213929
C17   C     C_R   0.296180 0.926096 0.561924 -0.136189
C18   C     C_R   0.378370 0.989029 0.571427 0.245917
C19   C     C_R   0.466425 0.965172 0.525390 0.007186
C20   C     C_R   0.474789 0.871582 0.479223 -0.025316
C21   C     C_R   0.547306 0.029707 0.523623 0.038169
C22   C     C_R   0.646459 0.991771 0.497530 -0.045255
C23   C     C_R   0.561496 0.308765 0.512906 0.934249
C24   C     C_R   0.651370 0.900701 0.450688 -0.232561
C25   C     C_R   0.560997 0.848139 0.432121 0.283150
C26   C     C_R   0.523761 0.134664 0.530729 -0.174456
C27   C     C_R   0.706424 0.158767 0.516272 -0.220690
C28   C     C_R   0.401109 0.801525 0.486129 -0.099372
C29   C     C_R   0.087670 0.345120 0.375876 -0.266773
C30   C     C_R   0.799683 0.631449 0.606247 0.031980
C31   C     C_R   0.904058 0.661076 0.626870 -0.264321
C32   C     C_R   0.985401 0.611738 0.586354 -0.182761
C33   C     C_R   0.962530 0.531629 0.524901 0.021727
C34   C     C_R   0.499264 0.498506 0.327331 0.961444
C35   C     C_R   0.854658 0.504277 0.506299 0.232719
C36   C     C_R   0.041718 0.477943 0.481115 -0.012864
C37   C     C_R   0.011260 0.398838 0.419715 0.164523
C38   C     C_R   0.904978 0.373715 0.402773 -0.237026
C39   C     C_R   0.828183 0.425558 0.445582 -0.189300
C40   C     C_R   0.150741 0.498842 0.495771 -0.033365
C41   C     C_R   0.193898 0.369553 0.393416 0.028642
C42   C     C_R   0.546785 0.405417 0.196636 0.236099
C43   C     C_R   0.497670 0.493440 0.231551 -0.117986
C44   C     C_R   0.441968 0.576622 0.175693 -0.213249
C45   C     C_R   0.436899 0.576827 0.082032 -0.022634
C46   C     C_R   0.493583 0.492897 0.045426 -0.054476
H1    H     H_    0.719357 0.877174 0.418474 0.213232
H2    H     H_    0.440540 0.167767 0.530123 0.213081
H3    H     H_    0.249128 0.780295 0.524121 0.169840
H4    H     H_    0.228718 0.944504 0.595681 0.186109
H5    H     H_    0.254423 0.328480 0.360639 0.152485
H6    H     H_    0.880930 0.313386 0.356194 0.207602
H7    H     H_    0.065534 0.284670 0.328908 0.169702
H8    H     H_    0.401911 0.641184 0.206223 0.199101
H9    H     H_    0.181757 0.556744 0.541440 0.130667
H10   H     H_    0.736051 0.670058 0.637059 0.122171
H11   H     H_    0.064743 0.638027 0.604290 0.144418
H12   H     H_    0.921814 0.722289 0.673942 0.150617
H13   H     H_    0.748505 0.402088 0.429596 0.231294
H14   H     H_    0.573225 0.345045 0.786773 0.186159
H15   H     H_    0.767118 0.208701 0.512412 0.177772
N1    N     N_R   0.222190 0.444670 0.452360 -0.108482
N2    N     N_R   0.776970 0.554790 0.547140 -0.123384
O1    O     O_R   0.366740 0.627160 0.477250 -0.621587
O2    O     O_R   0.544830 0.662520 0.507680 -0.616232
O3    O     O_R   0.410940 0.482340 0.616930 -0.600177
O4    O     O_R   0.589030 0.517700 0.647360 -0.644777
O5    O     O_R   0.455170 0.337480 0.492320 -0.610877
O6    O     O_R   0.633260 0.372840 0.522750 -0.646271
O7    O     O_R   0.410970 0.482300 0.352640 -0.618576
O8    O     O_R   0.589060 0.517660 0.383070 -0.591692
Zn1   Zn    Zn3+2 0.381090 0.476390 0.479680 0.972325
Zn2   Zn    Zn3+2 0.618910 0.523610 0.520320 0.955952
Br1   Br    Br    0.582277 0.282710 0.275910 -0.502795
O9    O     O_3   0.832009 0.017221 0.485722 -0.628286
C47   C     C_3   0.894471 0.947333 0.556851 0.048281
H16   H     H_    0.944430 0.888236 0.524837 0.179512
H17   H     H_    0.843572 0.905111 0.592380 0.122539
C48   C     C_3   0.972544 0.002971 0.627652 -0.372842
H18   H     H_    0.026641 0.040555 0.592356 0.246986
H19   H     H_    0.923850 0.063221 0.659604 0.226248
C49   C     C_3   0.043886 0.928713 0.703323 -0.871640
H20   H     H_    0.991548 0.893941 0.742352 0.256310
H21   H     H_    0.101778 0.970708 0.751958 0.299478
H22   H     H_    0.092444 0.866814 0.673052 0.267659
Br2   Br    Br    0.373697 0.090094 0.664642 -0.636333
Br3   Br    Br    0.551923 0.759834 0.329109 -0.504338
O10   O     O_3   0.314450 0.739407 0.059465 -0.596780
C50   C     C_3   0.214798 0.707220 0.070558 0.083820
H23   H     H_    0.191653 0.747993 0.130004 0.181552
H24   H     H_    0.222152 0.623594 0.087601 0.118208
C51   C     C_3   0.122135 0.735912 0.984464 -0.323031
H25   H     H_    0.115734 0.818958 0.966874 0.266057
H26   H     H_    0.141029 0.691137 0.925539 0.234594
C52   C     C_3   0.011590 0.713211 0.999540 -0.936188
H27   H     H_    0.015530 0.630256 0.016050 0.270469
H28   H     H_    0.946617 0.734203 0.935743 0.264603
H29   H     H_    0.989089 0.758642 0.056868 0.277272
Br4   Br    Br    0.312366 0.792814 0.864676 -0.523558
O11   O     O_3   0.443702 0.684684 0.756304 -0.619131
C53   C     C_3   0.544104 0.717582 0.747891 0.084359
H30   H     H_    0.546069 0.717751 0.673965 0.168882
H31   H     H_    0.620135 0.668151 0.786483 0.121930
C54   C     C_3   0.548396 0.826720 0.781030 -0.295968
H32   H     H_    0.471787 0.876161 0.745682 0.277809
H33   H     H_    0.553882 0.826751 0.856566 0.241336
C55   C     C_3   0.647413 0.870227 0.760861 -0.971249
H34   H     H_    0.725273 0.823467 0.797794 0.259950
H35   H     H_    0.647041 0.950131 0.784473 0.283776
H36   H     H_    0.643824 0.870818 0.685640 0.263285
O12   O     O_3   0.635173 0.234040 0.928820 -0.609373
C56   C     C_3   0.549792 0.174926 0.893043 0.072992
H37   H     H_    0.573960 0.129517 0.836338 0.194186
H38   H     H_    0.469633 0.222784 0.861659 0.156630
C57   C     C_3   0.535009 0.100281 0.967179 -0.359363
H39   H     H_    0.612201 0.045999 0.990651 0.259456
H40   H     H_    0.517329 0.143122 0.027420 0.250117
C58   C     C_3   0.439826 0.040025 0.930405 -0.811445
H41   H     H_    0.360890 0.092684 0.911998 0.276483
H42   H     H_    0.434340 0.983469 0.984079 0.293736
H43   H     H_    0.452860 0.998441 0.868430 0.286224
Br5   Br    Br    0.728735 0.227471 0.131457 -0.412273

loop_
_geom_bond_atom_site_label_1
_geom_bond_atom_site_label_2
_ccdc_geom_bond_type
C16   C28   A    
C21   C26   A    
C53   H30   S    
C52   H27   S    
C23   O6    A    
C19   C20   A    
C47   C48   S    
C43   C44   A    
C54   H33   S    
C52   H29   S    
C40   N1    A    
C7    C8    A    
C13   H14   S    
C45   C46   A    
C2    C46   A    
C18   Br2   S    
C29   H7    S    
C41   N1    A    
C31   H12   S    
C36   C37   A    
C19   C21   A    
C47   H17   S    
C30   C31   A    
C38   H6    S    
C20   C25   A    
C57   H39   S    
C25   Br3   S    
C33   C36   A    
O2    Zn2   S    
C56   C57   S    
C18   C19   A    
C58   H41   S    
C56   H37   S    
C27   H15   S    
O3    Zn1   S    
O12   C56   S    
C8    C9    A    
C57   H40   S    
C1    C28   S    
C1    O2    A    
C55   H34   S    
C24   C25   A    
O6    Zn2   S    
O4    Zn2   S    
C14   C27   A    
C50   H24   S    
C34   O7    A    
C26   H2    S    
C57   C58   S    
C15   C23   S    
C53   H31   S    
C21   C22   A    
C55   H35   S    
C32   H11   S    
C56   H38   S    
C54   H32   S    
C17   C18   A    
O11   C53   S    
C38   C39   A    
C12   O4    A    
C42   Br1   S    
C36   C40   A    
C16   H3    S    
C8    O12   S    
C48   H19   S    
C16   C17   A    
C15   C26   A    
C20   C28   A    
C12   O3    A    
C3    C45   A    
C51   C52   S    
C58   H43   S    
C23   O5    A    
C35   C39   A    
O9    C47   S    
C37   C38   A    
C15   C27   A    
C31   C32   A    
O5    Zn1   S    
C40   H9    S    
C39   H13   S    
C51   H26   S    
C9    Br5   S    
N1    Zn1   S    
C47   H16   S    
C50   C51   S    
C10   O11   S    
C53   C54   S    
C49   H21   S    
C55   H36   S    
C22   C24   A    
C42   C43   A    
C3    C4    A    
C1    O1    A    
C44   C45   A    
O8    Zn2   S    
C6    C46   A    
C29   C41   A    
C3    O10   S    
C24   H1    S    
C34   C43   S    
C4    C5    A    
C17   H4    S    
C48   C49   S    
O7    Zn1   S    
C11   C12   S    
C52   H28   S    
C6    C7    A    
C49   H22   S    
N2    Zn2   S    
C14   O9    S    
C14   C22   A    
C5    C10   A    
C32   C33   A    
C11   C13   A    
C5    C6    A    
C30   H10   S    
C2    C42   A    
C51   H25   S    
C33   C35   A    
O1    Zn1   S    
C58   H42   S    
C10   C11   A    
C48   H18   S    
C44   H8    S    
C7    C13   A    
O10   C50   S    
C49   H20   S    
C4    Br4   S    
C29   C37   A    
C35   N2    A    
C50   H23   S    
C30   N2    A    
C2    C9    A    
C34   O8    A    
C41   H5    S    
C54   C55   S    
