data_mof_unit_60042.cif
_audit_creation_date              2012-12-10T20:54:21-0500
_audit_creation_method            fapswitch 2.2
_symmetry_space_group_name_H-M    P1
_symmetry_Int_Tables_number       1
_space_group_crystal_system       triclinic
_cell_length_a                    12.917264
_cell_length_b                    15.864415
_cell_length_c                    15.07189
_cell_angle_alpha                 90.011159
_cell_angle_beta                  97.163334
_cell_angle_gamma                 89.983854
_cell_volume                      3064.49696413

loop_
_atom_site_label
_atom_site_type_symbol
_atom_type_description
_atom_site_fract_x
_atom_site_fract_y
_atom_site_fract_z
_atom_type_partial_charge
Br1   Br    Br    0.490997 0.105518 0.690746 -0.378036
Br2   Br    Br    0.509010 0.894482 0.309255 -0.378034
Br3   Br    Br    0.491012 0.894634 0.690798 -0.368012
Br4   Br    Br    0.508996 0.105366 0.309203 -0.368021
C1    C     C_R   0.500042 0.338941 0.499980 0.896756
C2    C     C_R   0.575396 0.545620 0.054944 -0.110751
C3    C     C_R   0.499992 0.500009 0.905035 0.058575
C4    C     C_R   0.500008 0.499990 0.094965 0.058569
C5    C     C_R   0.575378 0.545635 0.961197 -0.138111
C6    C     C_R   0.424622 0.454365 0.038803 -0.138111
C7    C     C_1   0.500009 0.499993 0.807175 0.107916
C8    C     C_1   0.499991 0.500007 0.192825 0.107917
C9    C     C_R   0.297704 0.499306 0.482599 0.898661
C10   C     C_R   0.702296 0.500698 0.517400 0.898664
C11   C     C_R   0.814163 0.500366 0.528219 -0.075103
C12   C     C_R   0.499958 0.661059 0.500020 0.896753
C13   C     C_R   0.185837 0.499656 0.471779 -0.075100
C14   C     C_R   0.021504 0.521790 0.380473 -0.000941
C15   C     C_R   0.978499 0.478268 0.619527 -0.000935
C16   C     C_R   0.129576 0.519460 0.389518 -0.271095
C17   C     C_R   0.870426 0.480581 0.610483 -0.271097
C18   C     C_R   0.136005 0.481585 0.545985 -0.202711
C19   C     C_R   0.863991 0.518448 0.454012 -0.202737
C20   C     C_R   0.029142 0.490226 0.542078 0.123570
C21   C     C_R   0.970857 0.509822 0.457919 0.123545
C22   C     C_R   0.496187 0.956074 0.580840 0.226855
C23   C     C_R   0.503817 0.956010 0.419181 0.224116
C24   C     C_R   0.503821 0.043926 0.419161 0.226853
C25   C     C_R   0.499996 0.913024 0.500020 -0.134523
C26   C     C_R   0.500010 0.086976 0.499980 -0.134521
C27   C     C_2   0.967084 0.535341 0.288781 0.390653
C28   C     C_2   0.032924 0.464754 0.711220 0.390573
C29   C     C_R   0.496190 0.043989 0.580820 0.224116
C30   C     C_1   0.499979 0.824051 0.500036 0.132914
C31   C     C_1   0.500026 0.175949 0.499965 0.132914
C32   C     C_1   0.500037 0.250706 0.499966 -0.108454
C33   C     C_1   0.499965 0.749294 0.500035 -0.108449
C34   C     C_R   0.424604 0.454380 0.945056 -0.110756
H1    H     H_    0.818052 0.539568 0.393347 0.210327
H2    H     H_    0.996834 0.425527 0.757773 0.081180
H3    H     H_    0.181938 0.460455 0.606650 0.210295
H4    H     H_    0.830098 0.468554 0.668173 0.165477
H5    H     H_    0.169909 0.531489 0.331830 0.165474
H6    H     H_    0.365529 0.418573 0.067486 0.152429
H7    H     H_    0.634471 0.581427 0.932514 0.152431
H8    H     H_    0.365491 0.418609 0.903720 0.160882
H9    H     H_    0.634509 0.581391 0.096280 0.160901
H10   H     H_    0.003191 0.574590 0.242242 0.081184
N1    N     N_1   0.499970 0.500020 0.270540 -0.077508
N2    N     N_1   0.500030 0.499980 0.729460 -0.077507
O1    O     O_R   0.500000 0.378020 0.573650 -0.603757
O2    O     O_2   0.113940 0.501449 0.737855 -0.555060
O3    O     O_R   0.500000 0.621980 0.426350 -0.603758
O4    O     O_R   0.500050 0.378020 0.426320 -0.595111
O5    O     O_R   0.499950 0.621980 0.573680 -0.595110
O6    O     O_R   0.346340 0.499990 0.561490 -0.611167
O7    O     O_R   0.653660 0.500010 0.438510 -0.611173
O8    O     O_R   0.346380 0.499990 0.414160 -0.622658
O9    O     O_R   0.653620 0.500010 0.585840 -0.622659
O10   O     O_2   0.886065 0.498673 0.262125 -0.555122
Zn1   Zn    Zn3+2 0.499970 0.500000 0.598370 1.022795
Zn2   Zn    Zn3+2 0.500030 0.500000 0.401630 1.022792

loop_
_geom_bond_atom_site_label_1
_geom_bond_atom_site_label_2
_ccdc_geom_bond_type
C27   O10   D    
O8    Zn2   S    
C25   C30   S    
C5    H7    S    
Br2   C23   S    
C9    O8    A    
C4    C8    S    
C23   C25   A    
C30   C33   T    
O3    Zn2   S    
C22   C29   A    
C31   C32   T    
O1    Zn1   S    
C9    C13   S    
C12   C33   S    
C6    C34   A    
C9    O6    A    
C16   H5    S    
C2    C5    A    
C24   C26   A    
C8    N1    T    
C12   O5    A    
Br1   C29   S    
O7    Zn2   S    
O6    Zn1   S    
C7    N2    T    
C19   C21   A    
C3    C7    S    
C10   O9    A    
C14   C21   A    
C26   C31   S    
C19   H1    S    
C15   C28   S    
O5    Zn1   S    
C11   C19   A    
Br4   C24   S    
C3    C34   A    
C15   C20   A    
C14   C16   A    
C27   H10   S    
C28   H2    S    
C18   C20   A    
C34   H8    S    
C18   H3    S    
O9    Zn1   S    
C2    H9    S    
C6    H6    S    
C17   H4    S    
C1    C32   S    
C1    O4    A    
C11   C17   A    
C13   C16   A    
C20   C21   A    
C22   C25   A    
C4    C6    A    
C23   C24   A    
C3    C5    A    
C10   O7    A    
C12   O3    A    
C1    O1    A    
N1    Zn2   S    
C2    C4    A    
C14   C27   S    
O4    Zn2   S    
C26   C29   A    
C15   C17   A    
C10   C11   S    
N2    Zn1   S    
Br3   C22   S    
C28   O2    D    
C13   C18   A    
