data_mof_unit_56572.cif
_audit_creation_date              2012-12-11T17:01:35-0500
_audit_creation_method            fapswitch 2.2
_symmetry_space_group_name_H-M    P1
_symmetry_Int_Tables_number       1
_space_group_crystal_system       triclinic
_cell_length_a                    15.212569
_cell_length_b                    14.979546
_cell_length_c                    14.909287
_cell_angle_alpha                 109.513195
_cell_angle_beta                  109.181997
_cell_angle_gamma                 110.275838
_cell_volume                      2597.05570757

loop_
_atom_site_label
_atom_site_type_symbol
_atom_type_description
_atom_site_fract_x
_atom_site_fract_y
_atom_site_fract_z
_atom_type_partial_charge
C1    C     C_R   0.007050 0.804163 0.100277 -0.159657
C2    C     C_R   0.677442 0.219949 0.671745 0.062291
C3    C     C_R   0.068693 0.504767 0.701170 -0.109833
C4    C     C_R   0.680273 0.504763 0.998336 0.007375
C5    C     C_R   0.063806 0.594984 0.314823 -0.140829
C6    C     C_R   0.212518 0.410465 0.910883 -0.263641
C7    C     C_R   0.299797 0.802628 0.207880 -0.123231
C8    C     C_R   0.959374 0.235203 0.050209 -0.117378
C9    C     C_R   0.055453 0.239624 0.963813 -0.122388
C10   C     C_R   0.211491 0.805531 0.300897 -0.133996
C11   C     C_R   0.962578 0.411703 0.227487 -0.135637
C12   C     C_R   0.780103 0.252056 0.685492 -0.138588
C13   C     C_R   0.301240 0.594221 0.002809 0.709301
C14   C     C_R   0.041845 0.505236 0.329176 0.079918
C15   C     C_R   0.307365 0.504501 0.948953 -0.158574
C16   C     C_R   0.304582 0.867379 0.301931 0.043421
C17   C     C_R   0.030155 0.204187 0.031675 0.061510
C18   C     C_3   0.501011 0.450811 0.862301 -0.441766
C19   C     C_3   0.393329 0.443782 0.846464 -0.377339
C20   C     C_3   0.532530 0.444404 0.036786 -0.393860
C21   C     C_3   0.608305 0.629820 0.045797 -0.146039
C22   C     C_3   0.583298 0.508267 0.987010 0.337996
C23   C     C_R   0.097382 0.593883 0.795248 0.691743
C24   C     C_3   0.406867 0.507297 0.960312 0.355908
C25   C     C_3   0.433739 0.452707 0.029709 -0.403840
C26   C     C_3   0.502226 0.627928 0.021434 -0.378080
C27   C     C_R   0.576386 0.119020 0.467622 0.162037
C28   C     C_R   0.577873 0.164579 0.567123 0.038808
C29   C     C_R   0.477903 0.138485 0.563284 -0.203223
C30   C     C_R   0.382123 0.047200 0.468895 -0.190223
C31   C     C_R   0.387081 0.983671 0.378773 0.042522
C32   C     C_R   0.481988 0.029697 0.374456 0.136857
C33   C     C_3   0.541283 0.978330 0.336799 -0.478789
C34   C     C_R   0.686906 0.410167 0.967171 -0.146550
C35   C     C_3   0.644391 0.075758 0.438815 -0.527027
C36   C     C_R   0.145107 0.610527 0.531856 0.127213
C37   C     C_R   0.090990 0.510596 0.433745 0.045278
C38   C     C_R   0.072035 0.414214 0.439099 -0.213050
C39   C     C_R   0.080473 0.414452 0.535451 -0.204119
C40   C     C_R   0.107380 0.510993 0.624943 0.063574
C41   C     C_R   0.153092 0.610906 0.626597 0.224408
C42   C     C_3   0.135270 0.706495 0.661031 -0.368018
C43   C     C_3   0.126749 0.705753 0.557514 -0.615880
C44   C     C_R   0.043769 0.025603 0.153272 0.082810
C45   C     C_R   0.005658 0.411068 0.700058 -0.255620
C46   C     C_R   0.098690 0.983319 0.109667 0.045020
C47   C     C_R   0.164638 0.044889 0.079951 -0.187505
C48   C     C_R   0.150876 0.127247 0.064720 -0.189636
C49   C     C_R   0.070300 0.145976 0.077845 0.056900
C50   C     C_R   0.025405 0.101825 0.131928 0.055177
C51   C     C_3   0.913097 0.052344 0.116168 -0.235613
C52   C     C_3   0.934232 0.970346 0.142935 -0.218761
C53   C     C_R   0.781635 0.595577 0.051305 -0.131369
C54   C     C_R   0.686023 0.243672 0.773786 -0.115341
C55   C     C_R   0.093721 0.805374 0.005613 -0.105542
C56   C     C_R   0.066770 0.868437 0.071169 0.045552
H1    H     H_    0.991999 0.831901 0.167268 0.109833
H2    H     H_    0.187039 0.325853 0.858053 0.133330
H3    H     H_    0.346860 0.830139 0.172033 0.178147
H4    H     H_    0.918196 0.214140 0.092028 0.094232
H5    H     H_    0.106522 0.227470 0.930999 0.093600
H6    H     H_    0.181685 0.836294 0.353399 0.089740
H7    H     H_    0.917679 0.330228 0.213204 0.088043
H8    H     H_    0.485610 0.366079 0.816920 0.161498
H9    H     H_    0.534504 0.498210 0.826164 0.167161
H10   H     H_    0.369447 0.479383 0.794622 0.169135
H11   H     H_    0.804042 0.249197 0.624662 0.115822
H12   H     H_    0.328518 0.355752 0.802688 0.159896
H13   H     H_    0.506322 0.355799 0.990496 0.153852
H14   H     H_    0.364878 0.368286 0.992933 0.160348
H15   H     H_    0.647507 0.676976 0.012426 0.108476
H16   H     H_    0.487947 0.665834 0.969376 0.201913
H17   H     H_    0.508093 0.678529 0.099851 0.190854
H18   H     H_    0.592025 0.477571 0.123934 0.166702
H19   H     H_    0.450105 0.502529 0.114103 0.161232
H20   H     H_    0.474379 0.178391 0.636278 0.122618
H21   H     H_    0.308282 0.019665 0.472566 0.125469
H22   H     H_    0.522343 0.899695 0.336947 0.204098
H23   H     H_    0.536771 0.975584 0.259882 0.212360
H24   H     H_    0.683398 0.051890 0.496520 0.205005
H25   H     H_    0.699197 0.128814 0.420513 0.195448
H26   H     H_    0.038190 0.336489 0.366276 0.130998
H27   H     H_    0.052315 0.336652 0.533757 0.136650
H28   H     H_    0.057870 0.684859 0.661733 0.177744
H29   H     H_    0.208134 0.782478 0.736099 0.234315
H30   H     H_    0.044358 0.683442 0.499253 0.214845
H31   H     H_    0.623972 0.327097 0.934260 0.087125
H32   H     H_    0.194782 0.780540 0.573670 0.204658
H33   H     H_    0.215659 0.020779 0.054695 0.129167
H34   H     H_    0.194272 0.166362 0.031318 0.121364
H35   H     H_    0.903455 0.109487 0.177330 0.127284
H36   H     H_    0.878255 0.883066 0.074879 0.137672
H37   H     H_    0.982339 0.327406 0.646929 0.136134
H38   H     H_    0.808799 0.682347 0.089854 0.100205
H39   H     H_    0.620514 0.223718 0.790671 0.089684
H40   H     H_    0.151692 0.834539 0.980532 0.152927
H41   H     H_    0.121974 0.680605 0.375324 0.116489
N1    N     N_R   0.995640 0.706130 0.053910 -0.044947
N2    N     N_R   0.153680 0.443190 0.946090 -0.066441
N3    N     N_R   0.208920 0.706140 0.152110 -0.044331
N4    N     N_R   0.947120 0.293870 0.002870 -0.043727
N5    N     N_R   0.004360 0.293870 0.946090 -0.038190
N6    N     N_R   0.151690 0.706140 0.208890 -0.046084
N7    N     N_R   0.945990 0.443210 0.152110 -0.041223
N8    N     N_R   0.210060 0.556810 0.002870 -0.099724
N9    N     N_R   0.848310 0.293860 0.791110 -0.038676
N10   N     N_R   0.054010 0.556790 0.847890 -0.102895
N11   N     N_R   0.789940 0.443190 0.997130 -0.035311
N12   N     N_R   0.997630 0.443170 0.791110 -0.070818
N13   N     N_R   0.846320 0.556810 0.053910 -0.037990
N14   N     N_R   0.791080 0.293860 0.847890 -0.042063
N15   N     N_R   0.052880 0.706130 0.997130 -0.044440
N16   N     N_R   0.002370 0.556830 0.208890 -0.043499
Ni1   Ni    Ni4+2 0.999010 0.630300 0.130220 0.204309
Ni2   Ni    Ni4+2 0.000990 0.369700 0.869780 0.200745
Ni3   Ni    Ni4+2 0.130280 0.630280 0.000000 0.291191
Ni4   Ni    Ni4+2 0.869720 0.369720 0.000000 0.214769
F1    F     F_    0.358745 0.698540 0.024611 -0.723077
C57   C     C_1   0.681522 0.689509 0.166876 0.055628
N17   N     N_1   0.738533 0.736030 0.261155 -0.087806
F2    F     F_    0.186026 0.695610 0.848649 -0.716836
C58   C     C_1   0.825870 0.997389 0.001225 0.102767
N18   N     N_1   0.757526 0.954327 0.911160 -0.087202
C59   C     C_1   0.943779 0.986229 0.249396 0.068916
N19   N     N_1   0.951227 0.998597 0.332998 -0.093800

loop_
_geom_bond_atom_site_label_1
_geom_bond_atom_site_label_2
_ccdc_geom_bond_type
C53   N13   A    
C21   C26   S    
N4    N5    A    
C55   N15   A    
C26   H16   S    
C41   C42   S    
C6    H2    S    
N8    Ni3   S    
C3    C23   A    
N3    Ni3   S    
C55   C56   A    
C45   H37   S    
C13   F1    S    
C35   H25   S    
C23   F2    S    
C29   H20   S    
C18   H9    S    
C37   C38   A    
C21   H15   S    
C9    H5    S    
C43   H32   S    
C28   C29   A    
C1    C56   A    
C24   C26   S    
N16   Ni1   S    
C11   H7    S    
N2    Ni2   S    
C38   C39   A    
C4    C53   A    
C11   C14   A    
C45   N12   A    
C33   H22   S    
N1    Ni1   S    
C20   C25   S    
C35   H24   S    
C26   H17   S    
C19   H10   S    
C18   C19   S    
N5    Ni2   S    
C51   H35   S    
C6    C15   A    
C30   H21   S    
C31   C32   A    
C9    N5    A    
C11   N7    A    
C8    N4    A    
N13   Ni1   S    
C44   C52   S    
C53   H38   S    
C2    C12   A    
C48   H34   S    
C21   C22   S    
C38   H26   S    
N10   N12   A    
C36   C41   A    
C10   H6    S    
C7    H3    S    
C44   C46   A    
N9    N14   A    
N2    N8    A    
C12   H11   S    
C4    C34   A    
N1    N15   A    
C7    N3    A    
C51   C52   S    
N6    Ni1   S    
C42   H28   S    
C24   C25   S    
C13   N8    A    
C2    C54   A    
C17   C49   S    
C39   C40   A    
C33   H23   S    
C27   C35   S    
C3    C45   A    
N3    N6    A    
C16   C31   S    
C29   C30   A    
C1    H1    S    
C4    C22   S    
C47   C48   A    
C23   N10   A    
C50   C51   S    
C5    C14   A    
C20   H18   S    
C19   H12   S    
C42   H29   S    
C15   C24   S    
C10   N6    A    
C54   H39   S    
C9    C17   A    
C40   C41   A    
C5    H41   S    
C3    C40   S    
C47   H33   S    
C13   C15   A    
C20   H13   S    
C52   H36   S    
C42   C43   S    
N15   Ni3   S    
N7    Ni4   S    
C44   C50   A    
C46   C47   A    
C36   C37   A    
C5    N16   A    
C27   C32   A    
C18   C22   S    
C43   H30   S    
N11   Ni4   S    
C7    C16   A    
C20   C22   S    
C55   H40   S    
C1    N1    A    
C57   N17   T    
C8    C17   A    
N9    Ni2   S    
N14   Ni4   S    
N4    Ni4   S    
C32   C33   S    
C19   C24   S    
C34   N11   A    
C21   C57   S    
C10   C16   A    
C6    N2    A    
C14   C37   S    
C12   N9    A    
C52   C59   S    
C18   H8    S    
C30   C31   A    
C48   C49   A    
C33   C35   S    
N11   N13   A    
C54   N14   A    
C34   H31   S    
N10   Ni3   S    
N12   Ni2   S    
C39   H27   S    
N7    N16   A    
C49   C50   A    
C46   C56   S    
C27   C28   A    
C51   C58   S    
C36   C43   S    
C2    C28   S    
C25   H14   S    
C25   H19   S    
C58   N18   T    
C8    H4    S    
C59   N19   T    
