data_mof_unit_39096.cif
_audit_creation_date              2012-12-11T14:56:20-0500
_audit_creation_method            fapswitch 2.2
_symmetry_space_group_name_H-M    P1
_symmetry_Int_Tables_number       1
_space_group_crystal_system       triclinic
_cell_length_a                    10.512315
_cell_length_b                    10.706481
_cell_length_c                    17.069204
_cell_angle_alpha                 79.721625
_cell_angle_beta                  89.891613
_cell_angle_gamma                 118.732244
_cell_volume                      1648.98656153

loop_
_atom_site_label
_atom_site_type_symbol
_atom_type_description
_atom_site_fract_x
_atom_site_fract_y
_atom_site_fract_z
_atom_type_partial_charge
C1    C     C_R   0.278884 0.888064 0.132737 0.560518
C2    C     C_1   0.685232 0.403077 0.709710 0.000486
C3    C     C_R   0.623779 0.710413 0.807044 0.154365
C4    C     C_R   0.633296 0.270717 0.090116 0.541905
C5    C     C_R   0.587770 0.698951 0.729212 0.296744
C6    C     C_R   0.663399 0.822150 0.666352 -0.013627
C7    C     C_R   0.755414 0.958592 0.683902 -0.205836
C8    C     C_R   0.766701 0.973628 0.762937 -0.180602
C9    C     C_R   0.696269 0.850020 0.824694 -0.018824
C10   C     C_R   0.273398 0.963111 0.753759 0.238440
C11   C     C_R   0.263306 0.940329 0.675853 0.249088
C12   C     C_R   0.704550 0.249547 0.303356 0.084352
C13   C     C_R   0.155714 0.807446 0.662345 -0.039359
C14   C     C_R   0.076696 0.689217 0.726178 -0.206514
C15   C     C_R   0.097507 0.706882 0.804643 0.045255
C16   C     C_R   0.640472 0.857851 0.125154 0.541195
C17   C     C_R   0.193565 0.844920 0.818325 0.023527
C18   C     C_R   0.686646 0.809791 0.357222 0.535360
C19   C     C_R   0.681492 0.385443 0.399022 0.574602
C20   C     C_R   0.108357 0.812620 0.360005 0.553413
C21   C     C_R   0.676692 0.798836 0.586100 0.532771
C22   C     C_R   0.717585 0.446687 0.625701 0.562500
C23   C     C_R   0.705465 0.237760 0.223998 -0.126130
C24   C     C_R   0.100124 0.800445 0.585617 0.574078
C25   C     C_R   0.225848 0.865832 0.898515 0.622123
C26   C     C_R   0.640088 0.290637 0.861827 0.577058
C27   C     C_R   0.648919 0.866603 0.900143 0.550181
C28   C     C_R   0.552517 0.349376 0.197580 -0.137709
C29   C     C_R   0.546992 0.359326 0.277469 0.097516
C30   C     C_R   0.634346 0.320628 0.329016 0.063076
C31   C     C_3   0.478328 0.054899 0.598320 -0.080737
C32   C     C_3   0.056158 0.484767 0.891660 -0.266110
C33   C     C_3   0.322006 0.302279 0.349198 -0.262803
C34   C     C_R   0.637336 0.295637 0.170321 -0.013427
C35   C     C_3   0.923648 0.237100 0.338470 -0.258161
C36   C     C_3   0.442218 0.477744 0.892909 -0.238134
C37   C     C_3   0.351460 0.567030 0.708246 -0.126962
C38   C     C_3   0.292631 0.183943 0.748938 -0.073691
C39   C     C_1   0.668718 0.847553 0.205265 -0.043563
C40   C     C_1   0.680675 0.838901 0.274700 -0.041696
C41   C     C_1   0.228123 0.853615 0.215659 -0.041507
C42   C     C_1   0.179464 0.834852 0.283224 -0.045530
C43   C     C_1   0.662321 0.358830 0.780368 0.008896
Cr1   Cr    Cr6+3 0.402240 0.783890 0.019450 1.006644
Cr2   Cr    Cr6+3 0.382360 0.097900 0.991800 1.008248
Cr3   Cr    Cr6+3 0.715380 0.118170 0.988700 0.987229
Cr4   Cr    Cr6+3 0.936650 0.882420 0.465510 0.999028
Cr5   Cr    Cr6+3 0.605770 0.565620 0.493360 1.052226
Cr6   Cr    Cr6+3 0.921340 0.550490 0.496380 1.001662
H1    H     H_    0.490208 0.382722 0.156941 0.123769
H2    H     H_    0.045955 0.426316 0.842333 0.123282
H3    H     H_    0.988302 0.405201 0.946176 0.176773
H4    H     H_    0.170399 0.538124 0.905908 0.147251
H5    H     H_    0.444280 0.484680 0.260433 0.255140
H6    H     H_    0.264541 0.354172 0.372512 0.125498
H7    H     H_    0.341509 0.236434 0.400890 0.177323
H8    H     H_    0.251343 0.229721 0.309991 0.140037
H9    H     H_    0.708589 0.075948 0.375436 0.247053
H10   H     H_    0.967259 0.198439 0.390839 0.143152
H11   H     H_    0.986341 0.357948 0.323592 0.167896
H12   H     H_    0.992633 0.585887 0.715391 0.141611
H13   H     H_    0.938810 0.192826 0.287293 0.127706
H14   H     H_    0.657237 0.607498 0.914023 0.241658
H15   H     H_    0.434075 0.409228 0.951851 0.136726
H16   H     H_    0.396688 0.405132 0.850084 0.170376
H17   H     H_    0.375796 0.530221 0.899266 0.139696
H18   H     H_    0.358858 0.651219 0.656853 0.136195
H19   H     H_    0.314013 0.584642 0.764189 0.104746
H20   H     H_    0.266907 0.459825 0.698021 0.112556
H21   H     H_    0.246030 0.176791 0.690341 0.148247
H22   H     H_    0.373850 0.298940 0.744699 0.185491
H23   H     H_    0.757721 0.181070 0.204460 0.146819
H24   H     H_    0.205787 0.152622 0.797437 0.105127
H25   H     H_    0.815250 0.053546 0.636469 0.142683
H26   H     H_    0.824180 0.081997 0.775594 0.148580
H27   H     H_    0.459821 0.950655 0.583422 0.080981
H28   H     H_    0.543322 0.077708 0.650504 0.154787
H29   H     H_    0.543541 0.143170 0.546190 0.163299
H30   H     H_    0.899773 0.545921 0.862423 0.263353
N1    N     N_2   0.009269 0.591704 0.869479 -0.503439
N2    N     N_2   0.458449 0.413737 0.304261 -0.478685
N3    N     N_2   0.770592 0.187348 0.358313 -0.503567
N4    N     N_2   0.593313 0.584897 0.867140 -0.501270
O1    O     O_R   0.521780 0.757110 0.108900 -0.526840
O2    O     O_R   0.805020 0.410040 0.421340 -0.493000
O3    O     O_R   0.049240 0.685450 0.403290 -0.495375
O4    O     O_R   0.275160 0.783810 0.101120 -0.488967
O5    O     O_R   0.077520 0.903010 0.551800 -0.475477
O6    O     O_R   0.802980 0.872780 0.546830 -0.511470
O7    O     O_R   0.578090 0.681300 0.569920 -0.484108
O8    O     O_R   0.608530 0.436370 0.586530 -0.457501
O9    O     O_R   0.798770 0.401880 0.597100 -0.544476
O10   O     O_R   0.043450 0.677890 0.566230 -0.538788
O11   O     O_3   0.821250 0.666180 0.485090 -0.278129
O12   O     O_R   0.513330 0.228330 0.898660 -0.469162
O13   O     O_R   0.237900 0.972600 0.090980 -0.509069
O14   O     O_R   0.511190 0.220540 0.061620 -0.529783
O15   O     O_R   0.736920 0.257720 0.063840 -0.527407
O16   O     O_R   0.710450 0.984050 0.081720 -0.506441
O17   O     O_R   0.524090 0.765520 0.933110 -0.520655
O18   O     O_R   0.277300 0.791600 0.938160 -0.491528
O19   O     O_R   0.240210 0.981010 0.915190 -0.500309
O20   O     O_3   0.345636 0.053837 0.612411 -0.548029
O21   O     O_3   0.485226 0.566085 0.714502 -0.565680
O22   O     O_3   0.364286 0.101002 0.766484 -0.544438
O23   O     O_R   0.739230 0.266130 0.888050 -0.543211
O24   O     O_R   0.712580 0.991850 0.918770 -0.501183
O25   O     O_3   0.499990 0.999980 0.999980 -0.265447
O26   O     O_R   0.083770 0.911170 0.376030 -0.519243
O27   O     O_R   0.808770 0.880340 0.383890 -0.507327
O28   O     O_R   0.584340 0.689460 0.394160 -0.497947
O29   O     O_R   0.614320 0.443940 0.423590 -0.471429

loop_
_geom_bond_atom_site_label_1
_geom_bond_atom_site_label_2
_ccdc_geom_bond_type
C33   H6    S    
Cr3   O16   S    
C38   H21   S    
C1    O4    A    
C37   H20   S    
Cr1   O17   S    
C41   C42   T    
C36   H15   S    
C26   O23   A    
C7    C8    A    
C21   O6    A    
C19   O29   A    
C12   C23   A    
C20   O3    A    
Cr5   O11   S    
C28   C29   A    
C4    O15   A    
H9    N3    S    
C5    C6    A    
C36   H17   S    
C25   O19   A    
C10   C17   A    
C37   H19   S    
Cr3   O23   S    
C16   O1    A    
C35   H10   S    
C18   C40   S    
C32   H3    S    
C28   H1    S    
C8    C9    A    
Cr5   O8    S    
Cr3   O25   S    
C2    C22   S    
C22   O8    A    
Cr6   O11   S    
Cr1   O4    S    
Cr2   O25   S    
C33   H7    S    
Cr3   O15   S    
C5    O21   S    
C28   C34   A    
Cr5   O7    S    
C4    O14   A    
Cr4   O6    S    
C23   H23   S    
C35   N3    S    
C26   C43   S    
C31   H28   S    
C7    H25   S    
C21   O7    A    
Cr1   O25   S    
C4    C34   S    
C27   O17   A    
Cr6   O2    S    
C14   H12   S    
C18   O28   A    
Cr2   O19   S    
C39   C40   T    
C36   H16   S    
C19   O2    A    
Cr4   O26   S    
C6    C21   S    
C8    H26   S    
H30   N1    S    
C13   C24   S    
H14   N4    S    
C35   H11   S    
C31   O20   S    
C32   H2    S    
C29   N2    S    
C29   C30   A    
C3    C9    A    
C32   N1    S    
C15   N1    S    
C27   O24   A    
C2    C43   T    
C23   C34   A    
Cr3   O24   S    
C12   N3    S    
C19   C30   S    
C24   O5    A    
C1    C41   S    
Cr5   O29   S    
C3    N4    S    
Cr6   O9    S    
Cr2   O12   S    
C32   H4    S    
C9    C27   S    
C31   H29   S    
C26   O12   A    
C15   C17   A    
C38   H22   S    
C33   H8    S    
C12   C30   A    
Cr6   O3    S    
C18   O27   A    
C3    C5    A    
C37   O21   S    
C20   C42   S    
Cr1   O18   S    
C16   O16   A    
C6    C7    A    
Cr4   O27   S    
Cr1   O1    S    
C17   C25   S    
Cr4   O5    S    
C38   O22   S    
Cr2   O14   S    
C24   O10   A    
C11   C13   A    
C25   O18   A    
C31   H27   S    
C1    O13   A    
C37   H18   S    
Cr4   O11   S    
C35   H13   S    
C10   C11   A    
C16   C39   S    
C20   O26   A    
Cr5   O28   S    
C22   O9    A    
C14   C15   A    
C10   O22   S    
C11   O20   S    
C36   N4    S    
Cr6   O10   S    
C13   C14   A    
Cr2   O13   S    
C33   N2    S    
H5    N2    S    
C38   H24   S    
