data_mof_unit_49488.cif
_audit_creation_date              2012-12-11T14:56:01-0500
_audit_creation_method            fapswitch 2.2
_symmetry_space_group_name_H-M    P1
_symmetry_Int_Tables_number       1
_space_group_crystal_system       triclinic
_cell_length_a                    27.940962
_cell_length_b                    17.333527
_cell_length_c                    18.113291
_cell_angle_alpha                 90.091363
_cell_angle_beta                  137.311267
_cell_angle_gamma                 89.941883
_cell_volume                      5947.91135312

loop_
_atom_site_label
_atom_site_type_symbol
_atom_type_description
_atom_site_fract_x
_atom_site_fract_y
_atom_site_fract_z
_atom_type_partial_charge
C1    C     C_R   0.685511 0.900171 0.802423 -0.204609
C2    C     C_3   0.271774 0.697467 0.014683 0.376592
C3    C     C_3   0.694653 0.719506 0.929857 -0.232434
C4    C     C_3   0.201030 0.796246 0.922133 -0.226680
C5    C     C_3   0.804845 0.218156 0.069439 -0.232877
C6    C     C_3   0.829503 0.750742 0.045790 -0.222908
C7    C     C_3   0.167187 0.243362 0.951515 -0.232393
C8    C     C_3   0.251005 0.766327 0.039345 -0.239035
C9    C     C_3   0.748194 0.248066 0.951571 -0.225343
C10   C     C_3   0.772094 0.720874 0.926478 -0.234205
C11   C     C_3   0.217741 0.273326 0.070030 -0.236310
C12   C     C_3   0.727855 0.222372 0.073695 -0.233846
C13   C     C_3   0.238741 0.342011 0.044072 0.364756
C14   C     C_3   0.282471 0.772225 0.930191 -0.236367
C15   C     C_3   0.249506 0.265303 0.961345 -0.239328
C16   C     C_3   0.751368 0.749833 0.047643 -0.225920
C17   C     C_3   0.311482 0.812084 0.072403 0.116644
C18   C     C_3   0.695698 0.191549 0.926612 0.117649
C19   C     C_3   0.720380 0.778543 0.901972 0.100262
C20   C     C_3   0.277617 0.226943 0.102204 0.112875
C21   C     C_3   0.780009 0.278661 0.097448 0.100831
C22   C     C_3   0.222342 0.726836 0.898329 0.113270
C23   C     C_3   0.189313 0.312014 0.928018 0.116137
C24   C     C_3   0.747380 0.661813 0.956564 0.361819
C25   C     C_3   0.803366 0.691971 0.073247 0.116840
C26   C     C_3   0.581694 0.266897 0.698914 -1.076464
C27   C     C_3   0.436423 0.741163 0.301553 -1.083820
C28   C     C_3   0.423904 0.272620 0.338056 -1.063623
C29   C     C_3   0.573978 0.728383 0.671574 -1.088460
C30   C     C_3   0.076498 0.772554 0.662683 -1.063030
C31   C     C_3   0.925653 0.228445 0.327875 -1.087044
C32   C     C_3   0.918537 0.767034 0.301451 -1.076563
C33   C     C_3   0.063483 0.241471 0.698663 -1.083905
C34   C     C_3   0.707830 0.391217 0.942056 -1.077326
C35   C     C_3   0.262098 0.841730 0.956301 0.364758
C36   C     C_3   0.275889 0.615472 0.048941 -1.074499
C37   C     C_3   0.244976 0.424583 0.077974 -1.041096
C38   C     C_3   0.730367 0.578631 0.918770 -1.053336
C39   C     C_3   0.256437 0.924003 0.922331 -1.041723
C40   C     C_3   0.767988 0.078782 0.081462 -1.054940
C41   C     C_3   0.793504 0.891633 0.057277 -1.081192
C42   C     C_3   0.223456 0.114972 0.951489 -1.076689
C43   C     C_3   0.751656 0.161802 0.043403 0.362353
C44   C     C_3   0.776620 0.808420 0.018916 0.391183
C45   C     C_3   0.228120 0.197223 0.985865 0.377877
C46   C     C_R   0.716157 0.756193 0.620981 0.124126
C47   C     C_R   0.383327 0.147755 0.636728 0.131447
C48   C     C_R   0.285631 0.755119 0.381437 0.126205
C49   C     C_R   0.313947 0.101519 0.198996 -0.199988
C50   C     C_R   0.613554 0.146815 0.358729 0.129812
C51   C     C_R   0.214488 0.255120 0.618980 0.126082
C52   C     C_R   0.886623 0.647003 0.641582 0.129656
C53   C     C_R   0.783950 0.256172 0.379315 0.123848
C54   C     C_R   0.116740 0.647442 0.363397 0.131535
C55   C     C_R   0.391759 0.248348 0.738800 -0.228211
C56   C     C_R   0.738039 0.626423 0.600902 -0.225083
C57   C     C_R   0.606982 0.249850 0.261174 -0.228359
C58   C     C_R   0.264809 0.625671 0.403410 -0.224554
C59   C     C_R   0.893189 0.750065 0.739399 -0.228288
C60   C     C_R   0.331687 0.918957 0.184449 -0.198548
C61   C     C_R   0.235527 0.125608 0.597210 -0.224483
C62   C     C_R   0.108361 0.748060 0.261695 -0.228148
C63   C     C_R   0.762283 0.126479 0.399628 -0.224762
C64   C     C_R   0.419736 0.210674 0.709505 -0.172453
C65   C     C_R   0.694752 0.678702 0.588047 -0.179232
C66   C     C_R   0.578207 0.211048 0.288433 -0.169883
C67   C     C_R   0.307750 0.677998 0.415718 -0.172567
C68   C     C_R   0.921926 0.711321 0.711935 -0.169827
C69   C     C_R   0.192472 0.177937 0.584762 -0.172417
C70   C     C_R   0.080294 0.710272 0.290674 -0.172541
C71   C     C_R   0.672009 0.083356 0.815410 -0.193145
C72   C     C_R   0.805446 0.178738 0.412286 -0.179254
C73   C     C_R   0.329846 0.111771 0.616492 -0.276980
C74   C     C_R   0.786488 0.776012 0.686623 -0.289942
C75   C     C_R   0.667407 0.111598 0.379146 -0.277102
C76   C     C_R   0.214996 0.774240 0.314569 -0.283932
C77   C     C_R   0.832928 0.611635 0.621372 -0.276975
C78   C     C_R   0.285136 0.274324 0.686053 -0.283966
C79   C     C_R   0.170425 0.611655 0.383924 -0.277081
C80   C     C_R   0.713641 0.275925 0.313906 -0.290190
C81   C     C_R   0.299739 0.150890 0.641486 0.188250
C82   C     C_R   0.169175 0.418546 0.815723 -0.198156
C83   C     C_R   0.829055 0.724830 0.695725 0.192402
C84   C     C_R   0.698271 0.151820 0.356086 0.189144
C85   C     C_R   0.172780 0.723116 0.306080 0.192150
C86   C     C_R   0.802045 0.651834 0.644518 0.189108
C87   C     C_R   0.327429 0.223241 0.694562 0.192159
C88   C     C_R   0.200562 0.650848 0.359125 0.188335
C89   C     C_R   0.671169 0.224732 0.304897 0.192668
C90   C     C_R   0.358761 0.070857 0.489970 -0.121851
C91   C     C_R   0.674423 0.895934 0.594542 -0.144984
C92   C     C_R   0.639767 0.070358 0.507553 -0.123432
C93   C     C_R   0.826956 0.583995 0.184612 -0.192546
C94   C     C_R   0.325893 0.895214 0.405681 -0.145739
C95   C     C_R   0.860243 0.570485 0.492451 -0.122547
C96   C     C_R   0.174118 0.395211 0.594369 -0.144616
C97   C     C_R   0.141192 0.570677 0.509941 -0.122711
C98   C     C_R   0.825580 0.395919 0.405440 -0.146135
C99   C     C_R   0.408380 0.803675 0.495534 -0.124710
C100  C     C_R   0.557705 0.163722 0.420967 -0.136946
C101  C     C_R   0.593088 0.803719 0.507414 -0.114664
C102  C     C_R   0.437860 0.166868 0.572844 -0.144833
C103  C     C_R   0.906931 0.303746 0.492534 -0.115487
C104  C     C_R   0.814850 0.400503 0.196732 -0.203405
C105  C     C_R   0.061986 0.666579 0.426960 -0.146000
C106  C     C_R   0.091631 0.303636 0.504416 -0.123698
C107  C     C_R   0.942246 0.663912 0.579007 -0.135545
C108  C     C_R   0.595254 0.182328 0.725422 0.301717
C109  C     C_R   0.412245 0.823286 0.275076 0.337244
C110  C     C_R   0.396303 0.193728 0.288315 0.296028
C111  C     C_R   0.602568 0.808119 0.715058 0.330468
C112  C     C_R   0.103525 0.693614 0.712213 0.294805
C113  C     C_R   0.897901 0.308346 0.284369 0.329754
C114  C     C_R   0.904114 0.682517 0.274452 0.302054
C115  C     C_R   0.185886 0.601321 0.801543 -0.199544
C116  C     C_R   0.088271 0.323376 0.725341 0.336963
C117  C     C_R   0.671553 0.826543 0.808469 0.033471
C118  C     C_R   0.327217 0.176542 0.194622 0.038673
C119  C     C_R   0.355568 0.854810 0.173049 0.018739
C120  C     C_R   0.651368 0.150104 0.826804 0.024631
C121  C     C_R   0.145487 0.354539 0.827367 0.019067
C122  C     C_R   0.847268 0.650793 0.173089 0.025128
C123  C     C_R   0.829223 0.327174 0.190251 0.032973
C124  C     C_R   0.172456 0.676210 0.806248 0.038682
C125  C     C_R   0.392918 0.128428 0.569252 0.053844
C126  C     C_3   0.723821 0.308122 0.980437 0.389309
C127  C     C_R   0.663209 0.817122 0.572990 0.063004
C128  C     C_R   0.603590 0.126419 0.425593 0.052822
C129  C     C_R   0.338005 0.816495 0.428943 0.060155
C130  C     C_R   0.896437 0.626630 0.574468 0.052786
C131  C     C_R   0.162035 0.316459 0.571170 0.060542
C132  C     C_R   0.106995 0.628104 0.430628 0.053786
C133  C     C_R   0.836824 0.317136 0.427040 0.062807
C134  C     C_3   0.670486 0.251821 0.954277 -0.223557
C135  C     C_3   0.332964 0.742626 0.048746 -0.232367
C136  C     C_3   0.299548 0.295565 0.078522 -0.226272
H1    H     H_    0.736462 0.927240 0.854026 0.124283
H2    H     H_    0.214809 0.069069 0.559992 0.128984
H3    H     H_    0.702280 0.552083 0.934068 0.258889
H4    H     H_    0.222612 0.925737 0.833991 0.260205
H5    H     H_    0.231908 0.959732 0.938080 0.259894
H6    H     H_    0.309678 0.946661 0.969222 0.260413
H7    H     H_    0.802324 0.076857 0.169962 0.262009
H8    H     H_    0.718122 0.047549 0.036635 0.260677
H9    H     H_    0.796371 0.051487 0.067018 0.259832
H10   H     H_    0.828714 0.894277 0.145941 0.273193
H11   H     H_    0.820545 0.919920 0.040930 0.246067
H12   H     H_    0.743624 0.922049 0.013858 0.268989
H13   H     H_    0.084463 0.801505 0.216240 0.125542
H14   H     H_    0.195064 0.113396 0.865860 0.263383
H15   H     H_    0.277467 0.092050 0.003712 0.268971
H16   H     H_    0.194842 0.078315 0.959260 0.246208
H17   H     H_    0.782642 0.069622 0.435580 0.129567
H18   H     H_    0.415588 0.301868 0.784271 0.125463
H19   H     H_    0.717755 0.569504 0.564940 0.129606
H20   H     H_    0.583711 0.303983 0.217413 0.125453
H21   H     H_    0.285606 0.569197 0.440622 0.128975
H22   H     H_    0.319981 0.030561 0.466151 0.098764
H23   H     H_    0.725243 0.923823 0.656757 0.090154
H24   H     H_    0.679055 0.030768 0.531623 0.099526
H25   H     H_    0.262976 0.074047 0.146215 0.121478
H26   H     H_    0.274803 0.922419 0.342926 0.090202
H27   H     H_    0.820972 0.530907 0.468368 0.099353
H28   H     H_    0.225187 0.422487 0.657173 0.089975
H29   H     H_    0.179987 0.530365 0.533745 0.098950
H30   H     H_    0.774741 0.423738 0.343253 0.090362
H31   H     H_    0.432421 0.748511 0.513430 0.104451
H32   H     H_    0.521429 0.208754 0.365982 0.118113
H33   H     H_    0.571055 0.748202 0.494122 0.105489
H34   H     H_    0.468132 0.216823 0.620301 0.126243
H35   H     H_    0.928949 0.248222 0.505706 0.105124
H36   H     H_    0.284277 0.951717 0.120345 0.129391
H37   H     H_    0.031604 0.716360 0.379369 0.126187
H38   H     H_    0.067518 0.248478 0.486238 0.104620
H39   H     H_    0.978458 0.709074 0.633936 0.118219
H40   H     H_    0.239136 0.763988 0.085914 0.144357
H41   H     H_    0.755725 0.257786 0.900027 0.138127
H42   H     H_    0.778543 0.710375 0.873671 0.147193
H43   H     H_    0.206550 0.276021 0.117444 0.137993
H44   H     H_    0.721656 0.213228 0.126986 0.146974
H45   H     H_    0.293487 0.774033 0.882519 0.137942
H46   H     H_    0.261508 0.262120 0.914983 0.144520
H47   H     H_    0.719536 0.050468 0.878035 0.131684
H48   H     H_    0.743690 0.760875 0.098820 0.138283
H49   H     H_    0.614850 0.264025 0.906436 0.127121
H50   H     H_    0.387211 0.721098 0.099882 0.145962
H51   H     H_    0.352986 0.317981 0.126821 0.137987
H52   H     H_    0.639423 0.706895 0.883572 0.147178
H53   H     H_    0.147741 0.819211 0.873831 0.138291
H54   H     H_    0.859897 0.204602 0.115533 0.146924
H55   H     H_    0.885341 0.761976 0.093999 0.127261
H56   H     H_    0.112767 0.222408 0.900254 0.146169
H57   H     H_    0.805245 0.834098 0.717683 0.117691
H58   H     H_    0.216803 0.451137 0.879606 0.128697
H59   H     H_    0.304465 0.060083 0.567185 0.119010
H60   H     H_    0.195705 0.831954 0.282289 0.116311
H61   H     H_    0.692247 0.059272 0.426901 0.119373
H62   H     H_    0.304361 0.332087 0.718355 0.116262
H63   H     H_    0.808160 0.559223 0.573619 0.119343
H64   H     H_    0.694823 0.333964 0.282872 0.117739
H65   H     H_    0.195874 0.560054 0.433232 0.119023
H66   H     H_    0.642488 0.659134 0.543152 0.120778
H67   H     H_    0.465689 0.235791 0.735804 0.112048
H68   H     H_    0.360277 0.658934 0.461303 0.117686
H69   H     H_    0.779209 0.551298 0.122320 0.130794
H70   H     H_    0.532577 0.236439 0.262870 0.113250
H71   H     H_    0.139938 0.158833 0.539079 0.117664
H72   H     H_    0.967456 0.736824 0.737347 0.113300
H73   H     H_    0.857691 0.159198 0.457031 0.120729
H74   H     H_    0.034210 0.735241 0.264156 0.111923
H75   H     H_    0.568969 0.295732 0.737446 0.251809
H76   H     H_    0.628873 0.294051 0.727275 0.262898
H77   H     H_    0.537174 0.275606 0.609760 0.251731
H78   H     H_    0.391333 0.701823 0.243263 0.267516
H79   H     H_    0.475122 0.731919 0.300332 0.253985
H80   H     H_    0.763773 0.427291 0.144930 0.123812
H81   H     H_    0.459125 0.725759 0.381665 0.243620
H82   H     H_    0.441770 0.302867 0.307874 0.239110
H83   H     H_    0.382307 0.307402 0.318479 0.263325
H84   H     H_    0.469451 0.267864 0.427694 0.255433
H85   H     H_    0.617344 0.686863 0.710167 0.264602
H86   H     H_    0.544194 0.710165 0.687509 0.250413
H87   H     H_    0.538961 0.726919 0.582988 0.244274
H88   H     H_    0.058401 0.803157 0.692412 0.239206
H89   H     H_    0.118484 0.806954 0.682989 0.263252
H90   H     H_    0.031225 0.767838 0.572976 0.255469
H91   H     H_    0.236909 0.573974 0.854366 0.121191
H92   H     H_    0.881879 0.187682 0.289615 0.264529
H93   H     H_    0.955040 0.208952 0.311621 0.250341
H94   H     H_    0.960915 0.227396 0.416554 0.244135
H95   H     H_    0.931642 0.795176 0.263189 0.251297
H96   H     H_    0.871533 0.795042 0.272868 0.263057
H97   H     H_    0.963000 0.775631 0.390668 0.251863
H98   H     H_    0.108263 0.201803 0.756932 0.267370
H99   H     H_    0.024636 0.233014 0.699696 0.254036
H100  H     H_    0.040810 0.225709 0.618614 0.243651
H101  H     H_    0.672794 0.393553 0.853460 0.272824
H102  H     H_    0.916388 0.804272 0.783171 0.125450
H103  H     H_    0.680916 0.420478 0.958152 0.245850
H104  H     H_    0.758025 0.420909 0.985681 0.268513
H105  H     H_    0.304043 0.614209 0.134437 0.263248
H106  H     H_    0.221752 0.592850 0.996447 0.269054
H107  H     H_    0.304503 0.578364 0.041450 0.245931
H108  H     H_    0.278787 0.426696 0.166301 0.260281
H109  H     H_    0.269779 0.459542 0.062230 0.259374
H110  H     H_    0.191890 0.447839 0.031022 0.260481
H111  H     H_    0.695601 0.576202 0.830127 0.261794
H112  H     H_    0.779989 0.547031 0.963099 0.260704
N1    N     N_R   0.625380 0.928280 0.709340 -0.050389
N2    N     N_R   0.613900 0.929750 0.547530 -0.039496
N3    N     N_R   0.613900 0.070250 0.547530 -0.041141
N4    N     N_R   0.386100 0.929750 0.452470 -0.039903
N5    N     N_R   0.886100 0.570250 0.452470 -0.040880
N6    N     N_R   0.113900 0.429750 0.547530 -0.039724
N7    N     N_R   0.113900 0.570250 0.547530 -0.039447
N8    N     N_R   0.886100 0.429750 0.452470 -0.039725
N9    N     N_R   0.437800 0.869550 0.507970 -0.039372
N10   N     N_R   0.562200 0.130450 0.492030 -0.039765
N11   N     N_R   0.562200 0.869550 0.492030 -0.039495
N12   N     N_R   0.374620 0.071720 0.290660 -0.049220
N13   N     N_R   0.437800 0.130450 0.507970 -0.038772
N14   N     N_R   0.937800 0.369550 0.507970 -0.039315
N15   N     N_R   0.062200 0.630450 0.492030 -0.038702
N16   N     N_R   0.062200 0.369550 0.492030 -0.039604
N17   N     N_R   0.937800 0.630450 0.507970 -0.039781
N18   N     N_R   0.573690 0.128980 0.653840 -0.054409
N19   N     N_R   0.426310 0.871020 0.346160 -0.057929
N20   N     N_R   0.426310 0.128980 0.346160 -0.056074
N21   N     N_R   0.573690 0.871020 0.653840 -0.056261
N22   N     N_R   0.073690 0.628980 0.653840 -0.055986
N23   N     N_R   0.374620 0.928280 0.290660 -0.052344
N24   N     N_R   0.926310 0.371020 0.346160 -0.056266
N25   N     N_R   0.926310 0.628980 0.346160 -0.054621
N26   N     N_R   0.073690 0.371020 0.653840 -0.057986
N27   N     N_R   0.625380 0.071720 0.709340 -0.051500
N28   N     N_R   0.125380 0.428280 0.709340 -0.052215
N29   N     N_R   0.874620 0.571720 0.290660 -0.051401
N30   N     N_R   0.874620 0.428280 0.290660 -0.050459
N31   N     N_R   0.125380 0.571720 0.709340 -0.049289
N32   N     N_R   0.386100 0.070250 0.452470 -0.039176
Ni1   Ni    Ni4+2 0.616560 0.000000 0.627280 0.204753
Ni2   Ni    Ni4+2 0.383440 0.000000 0.372720 0.204819
Ni3   Ni    Ni4+2 0.116560 0.500000 0.627280 0.204737
Ni4   Ni    Ni4+2 0.883440 0.500000 0.372720 0.204900
Ni5   Ni    Ni4+2 0.497990 0.870580 0.500000 0.204171
Ni6   Ni    Ni4+2 0.502010 0.129420 0.500000 0.211156
Ni7   Ni    Ni4+2 0.997990 0.370580 0.500000 0.204053
Ni8   Ni    Ni4+2 0.002010 0.629420 0.500000 0.211229

loop_
_geom_bond_atom_site_label_1
_geom_bond_atom_site_label_2
_ccdc_geom_bond_type
C55   H18   S    
N8    N14   A    
C108  C120  A    
C134  H49   S    
C113  N24   A    
C74   C83   A    
C102  C125  A    
C110  C118  A    
C20   C118  S    
C104  C123  A    
C91   C127  A    
C40   H9    S    
C36   H105  S    
C112  C124  A    
C49   N12   A    
C6    C25   S    
C37   H109  S    
C62   C70   A    
N17   Ni8   S    
C40   C43   S    
C39   H5    S    
C79   H65   S    
C107  N17   A    
C71   N27   A    
C3    C19   S    
C115  C124  A    
N31   Ni3   S    
C34   H104  S    
C95   N5    A    
C135  H50   S    
C93   N29   A    
C20   C45   S    
C5    C43   S    
C28   H84   S    
C37   H108  S    
C6    C44   S    
C73   C81   A    
C99   H31   S    
C29   H86   S    
C11   C20   S    
C116  C121  A    
C99   C129  A    
C71   H47   S    
C53   C133  S    
C104  H80   S    
C46   C65   A    
C47   C64   A    
C51   C131  S    
N23   Ni2   S    
C94   N4    A    
C42   C45   S    
C10   H42   S    
N22   N31   A    
C21   C123  S    
C115  H91   S    
C95   H27   S    
C56   C86   A    
C54   C70   A    
N18   N27   A    
C105  N15   A    
C106  N16   A    
C108  N18   A    
C33   H100  S    
N1    Ni1   S    
N7    N15   A    
C48   C129  S    
C11   H43   S    
C52   C77   A    
C9    H41   S    
C19   C44   S    
C54   C79   A    
C16   C25   S    
C39   H4    S    
C33   C116  S    
N24   N30   A    
C36   H107  S    
C29   C111  S    
C58   C88   A    
C16   H48   S    
C54   C132  S    
C8    C17   S    
C63   C84   A    
C92   H24   S    
C28   C110  S    
C51   C78   A    
C96   N6    A    
C2    C22   S    
C11   C13   S    
N13   N32   A    
C101  N11   A    
C48   C67   A    
C58   C67   A    
C83   C86   A    
C5    C21   S    
C126  C134  S    
N7    Ni3   S    
C26   H76   S    
C51   C69   A    
C21   C126  S    
C18   C43   S    
C76   C85   A    
C114  N25   A    
C91   N2    A    
C78   C87   A    
C102  H34   S    
C32   H96   S    
C30   H90   S    
C57   C66   A    
C26   H77   S    
N3    N10   A    
C1    N1    A    
C75   C84   A    
C14   C135  S    
C15   H46   S    
C31   H93   S    
C13   C23   S    
C60   C119  A    
C90   C125  A    
C41   H10   S    
C6    H55   S    
C17   C135  S    
C27   H78   S    
N12   N20   A    
C49   H25   S    
N6    N16   A    
C105  H37   S    
C31   H92   S    
C103  H35   S    
C3    C24   S    
C57   H20   S    
C46   C127  S    
C53   C80   A    
C26   C108  S    
C15   C136  S    
C10   C24   S    
C96   H28   S    
C30   C112  S    
C5    C9    S    
C4    C22   S    
C72   H73   S    
C38   H112  S    
C1    C117  A    
C20   C136  S    
C42   H15   S    
C98   H30   S    
C96   C131  A    
C12   H44   S    
N29   Ni4   S    
C70   H74   S    
N2    Ni1   S    
N2    N11   A    
C1    H1    S    
C85   C88   A    
C16   C44   S    
C100  C128  A    
C58   H21   S    
C8    H40   S    
C78   H62   S    
C2    C135  S    
C111  C117  A    
C36   H106  S    
C14   C22   S    
C61   C81   A    
C41   H12   S    
C7    C23   S    
C101  C127  A    
C18   C134  S    
N26   N28   A    
C60   N23   A    
C55   C87   A    
N27   Ni1   S    
C74   H57   S    
C9    C18   S    
C27   C109  S    
C40   H7    S    
C31   C113  S    
C3    C16   S    
C77   H63   S    
C109  N19   A    
C110  N20   A    
C23   C121  S    
N24   Ni7   S    
C29   H85   S    
C98   C133  A    
C57   C89   A    
C59   C83   A    
C99   N9    A    
C61   C69   A    
C90   N32   A    
N3    Ni1   S    
C80   C89   A    
C48   C76   A    
C76   H60   S    
N19   N23   A    
C65   H66   S    
C68   H72   S    
C38   H3    S    
C101  H33   S    
C91   H23   S    
C33   H99   S    
C97   N7    A    
C4    C35   S    
C27   H79   S    
C107  C130  A    
C79   C88   A    
N4    N9    A    
C47   C125  S    
C105  C132  A    
C32   H97   S    
C75   H61   S    
C106  C131  A    
C100  N10   A    
C69   H71   S    
N1    N21   A    
C59   H102  S    
C93   C122  A    
C47   C73   A    
C112  N22   A    
N25   N29   A    
C37   H110  S    
C35   C39   S    
N4    Ni2   S    
N18   Ni6   S    
C113  C123  A    
C39   H6    S    
C10   C19   S    
C34   C126  S    
N9    Ni5   S    
C106  H38   S    
C102  N13   A    
C34   H103  S    
C63   H17   S    
C81   C87   A    
C64   H67   S    
C27   H81   S    
C28   H83   S    
C73   H59   S    
C41   C44   S    
C50   C128  S    
C111  N21   A    
C14   H45   S    
C109  C119  A    
N13   Ni6   S    
C115  N31   A    
C29   H87   S    
N15   Ni8   S    
C2    C8    S    
C97   C132  A    
C6    C10   S    
N10   Ni6   S    
C50   C75   A    
C107  H39   S    
C97   H29   S    
C103  N14   A    
C61   H2    S    
C82   H58   S    
C17   C119  S    
C63   C72   A    
C19   C117  S    
N25   Ni8   S    
N26   Ni7   S    
C17   C35   S    
C53   C72   A    
C62   H13   S    
C4    C8    S    
C93   H69   S    
C3    H52   S    
C98   N8    A    
C7    C11   S    
C71   C120  A    
C7    C45   S    
N21   Ni5   S    
N32   Ni2   S    
C5    H54   S    
C12   C43   S    
C66   H70   S    
C56   C65   A    
C80   H64   S    
C31   H94   S    
N11   Ni5   S    
C34   H101  S    
C67   H68   S    
C24   C38   S    
C26   H75   S    
C42   H16   S    
C25   C122  S    
C94   H26   S    
C82   C121  A    
C13   C37   S    
C52   C68   A    
N5    Ni4   S    
N6    Ni3   S    
C15   C23   S    
N14   Ni7   S    
C32   H95   S    
N30   Ni4   S    
C30   H89   S    
C56   H19   S    
C42   H14   S    
C92   C128  A    
C62   C85   A    
C94   C129  A    
N8    Ni4   S    
C60   H36   S    
C24   C25   S    
C104  N30   A    
C14   C35   S    
C30   H88   S    
N5    N17   A    
C12   C21   S    
C90   H22   S    
C82   N28   A    
C59   C68   A    
C95   C130  A    
C49   C118  A    
C41   H11   S    
C55   C64   A    
C116  N26   A    
C50   C66   A    
N19   Ni5   S    
C77   C86   A    
C40   H8    S    
C136  H51   S    
C13   C136  S    
C84   C89   A    
C15   C45   S    
C18   C120  S    
C46   C74   A    
C92   N3    A    
C2    C36   S    
C28   H82   S    
N20   Ni6   S    
N16   Ni7   S    
C4    H53   S    
N22   Ni8   S    
N12   Ni2   S    
C22   C124  S    
N28   Ni3   S    
C9    C126  S    
C100  H32   S    
C52   C130  S    
C103  C133  A    
C38   H111  S    
C7    H56   S    
C114  C122  A    
C12   C134  S    
C32   C114  S    
C33   H98   S    
