data_mof_unit_10389.cif
_audit_creation_date              2012-12-10T19:42:34-0500
_audit_creation_method            fapswitch 2.2
_symmetry_space_group_name_H-M    P1
_symmetry_Int_Tables_number       1
_space_group_crystal_system       triclinic
_cell_length_a                    10.914371
_cell_length_b                    10.906854
_cell_length_c                    9.813666
_cell_angle_alpha                 98.520596
_cell_angle_beta                  98.619002
_cell_angle_gamma                 92.977104
_cell_volume                      1139.00280566

loop_
_atom_site_label
_atom_site_type_symbol
_atom_type_description
_atom_site_fract_x
_atom_site_fract_y
_atom_site_fract_z
_atom_type_partial_charge
C1    C     C_R   0.500529 0.262057 0.499580 0.796308
C2    C     C_R   0.499467 0.737942 0.500420 0.796316
C3    C     C_R   0.872181 0.496822 0.503714 -0.077019
C4    C     C_R   0.127821 0.503196 0.496286 -0.077019
C5    C     C_R   0.958456 0.523312 0.629991 0.010131
C6    C     C_R   0.041546 0.476715 0.370008 0.010131
C7    C     C_R   0.306292 0.099681 0.018625 -0.189578
C8    C     C_R   0.693677 0.900321 0.981383 -0.189583
C9    C     C_R   0.323431 0.068108 0.153772 0.018167
C10   C     C_R   0.676541 0.931894 0.846237 0.018182
C11   C     C_R   0.445961 0.079264 0.230386 0.042137
C12   C     C_R   0.554014 0.920734 0.769615 0.042142
C13   C     C_R   0.545608 0.125311 0.171831 -0.073361
C14   C     C_R   0.454365 0.874680 0.828163 -0.073372
C15   C     C_R   0.525025 0.161714 0.040454 -0.097951
C16   C     C_R   0.474944 0.838276 0.959539 -0.097949
C17   C     C_R   0.405598 0.148170 0.963735 -0.193001
C18   C     C_R   0.594369 0.851825 0.036264 -0.192989
C19   C     C_R   0.472036 0.915601 0.375923 -0.202472
C20   C     C_R   0.527950 0.084398 0.624077 -0.202517
C21   C     C_R   0.498673 0.872140 0.503088 -0.062424
C22   C     C_R   0.501316 0.127859 0.496913 -0.062449
C23   C     C_R   0.262066 0.501503 0.499355 0.796611
C24   C     C_R   0.737935 0.498503 0.500645 0.796623
C25   C     C_R   0.526158 0.957946 0.629399 0.062111
C26   C     C_R   0.473825 0.042053 0.370602 0.062114
C27   C     C_2   0.510772 0.510201 0.078786 -0.094887
C28   C     C_2   0.489229 0.489798 0.921214 -0.094887
C29   C     C_R   0.169852 0.523412 0.041441 -0.109199
C30   C     C_R   0.830166 0.476647 0.958577 -0.109228
C31   C     C_R   0.134559 0.548053 0.173422 -0.048060
C32   C     C_R   0.865451 0.451994 0.826594 -0.048052
C33   C     C_R   0.077303 0.452465 0.229158 0.110640
C34   C     C_R   0.922701 0.547575 0.770842 0.110662
C35   C     C_R   0.050502 0.334068 0.148374 -0.130303
C36   C     C_R   0.949504 0.665978 0.851613 -0.130328
C37   C     C_R   0.083039 0.310959 0.015172 -0.123755
C38   C     C_R   0.916977 0.689099 0.984819 -0.123788
C39   C     C_R   0.144623 0.404632 0.962696 -0.175266
C40   C     C_R   0.855398 0.595432 0.037311 -0.175250
C41   C     C_R   0.915261 0.472080 0.376257 -0.250789
C42   C     C_R   0.084741 0.527945 0.623742 -0.250792
Cu1   Cu    Cu3+1 0.521120 0.521140 0.639640 0.953025
Cu2   Cu    Cu3+1 0.478880 0.478860 0.360360 0.953025
H1    H     H_    0.171359 0.385281 0.860378 0.128489
H2    H     H_    0.828670 0.614791 0.139632 0.128494
H3    H     H_    0.639370 0.134151 0.229134 0.121056
H4    H     H_    0.360605 0.865837 0.770854 0.121052
H5    H     H_    0.602044 0.198732 0.997257 0.117887
H6    H     H_    0.397924 0.801253 0.002731 0.117872
H7    H     H_    0.448750 0.850785 0.279305 0.138451
H8    H     H_    0.551234 0.149214 0.720696 0.138452
H9    H     H_    0.417961 0.419587 0.865589 0.157971
H10   H     H_    0.582041 0.580411 0.134411 0.157971
H11   H     H_    0.620015 0.618748 0.904444 0.226683
H12   H     H_    0.379984 0.381253 0.095556 0.226685
H13   H     H_    0.216082 0.596479 0.999938 0.119973
H14   H     H_    0.783940 0.403585 0.000092 0.119985
H15   H     H_    0.153556 0.640654 0.233211 0.119093
H16   H     H_    0.846454 0.359389 0.766815 0.119087
H17   H     H_    0.003883 0.260122 0.188266 0.151755
H18   H     H_    0.996119 0.739919 0.811709 0.151724
H19   H     H_    0.059272 0.220801 0.951952 0.159574
H20   H     H_    0.940748 0.779261 0.048029 0.159584
H21   H     H_    0.850042 0.449922 0.279739 0.152694
H22   H     H_    0.149960 0.550108 0.720259 0.152695
H23   H     H_    0.389478 0.174916 0.861129 0.136068
H24   H     H_    0.610487 0.825077 0.138869 0.136066
H25   H     H_    0.215517 0.087946 0.954927 0.167607
H26   H     H_    0.784451 0.912059 0.045084 0.167599
N1    N     N_2   0.447120 0.447110 0.150550 -0.279081
N2    N     N_2   0.552880 0.552890 0.849450 -0.279083
O1    O     O_R   0.517830 0.337490 0.617920 -0.591199
O2    O     O_R   0.482170 0.662510 0.382080 -0.591205
O3    O     O_R   0.482150 0.301790 0.382070 -0.567985
O4    O     O_R   0.517850 0.698210 0.617930 -0.567981
O5    O     O_R   0.337480 0.517860 0.617920 -0.589235
O6    O     O_R   0.662520 0.482140 0.382080 -0.589232
O7    O     O_R   0.301810 0.482160 0.382070 -0.569024
O8    O     O_R   0.698190 0.517840 0.617930 -0.569025
C43   C     C_2   0.211599 0.028345 0.211647 0.787231
O9    O     O_2   0.217891 0.021180 0.335608 -0.606874
O10   O     O_R   0.096825 0.002624 0.124208 -0.773121
H27   H     H_    0.027010 0.981694 0.176334 0.330970
C44   C     C_2   0.788373 0.971662 0.788366 0.787236
O11   O     O_2   0.782099 0.978750 0.664388 -0.606868
O12   O     O_R   0.903125 0.997479 0.875830 -0.773113
H28   H     H_    0.972943 0.018395 0.823702 0.330964

loop_
_geom_bond_atom_site_label_1
_geom_bond_atom_site_label_2
_ccdc_geom_bond_type
Cu1   O1    S    
C30   C32   A    
O12   H28   S    
C10   C44   S    
Cu1   N2    S    
C5    C42   A    
C43   O9    D    
C27   H10   S    
C27   N1    D    
C44   O11   D    
C40   H2    S    
C35   C37   A    
C16   H6    S    
C20   C22   A    
C20   C25   A    
C18   H24   S    
Cu2   N1    S    
C7    C9    A    
C31   H15   S    
C19   C26   A    
C37   H19   S    
C24   O8    A    
C7    C17   A    
C6    C41   A    
C31   C33   A    
H11   N2    S    
C2    O2    A    
C39   H1    S    
C1    C22   S    
Cu2   O7    S    
C3    C24   S    
C28   N2    D    
C36   H18   S    
C43   O10   S    
C38   H20   S    
C44   O12   S    
C37   C39   A    
C17   H23   S    
C1    O3    A    
C4    C6    A    
C13   H3    S    
C4    C23   S    
C41   H21   S    
C11   C26   S    
Cu1   O8    S    
C8    C18   A    
C32   C34   A    
Cu2   O3    S    
Cu1   Cu2   S    
O10   H27   S    
C29   C31   A    
H12   N1    S    
C5    C34   S    
C29   C39   A    
C2    C21   S    
C30   C40   A    
C35   H17   S    
C23   O5    A    
Cu2   O2    S    
C9    C11   A    
C10   C12   A    
C24   O6    A    
C12   C14   A    
C13   C15   A    
C14   C16   A    
C32   H16   S    
C2    O4    A    
Cu1   O4    S    
C15   C17   A    
C21   C25   A    
C3    C41   A    
C19   C21   A    
C8    C10   A    
C29   H13   S    
C3    C5    A    
C7    H25   S    
C14   H4    S    
C28   H9    S    
Cu1   O5    S    
C8    H26   S    
C6    C33   S    
C12   C25   S    
C1    O1    A    
C36   C38   A    
C20   H8    S    
C38   C40   A    
C11   C13   A    
C4    C42   A    
C30   H14   S    
Cu2   O6    S    
C33   C35   A    
C34   C36   A    
C15   H5    S    
C19   H7    S    
C16   C18   A    
C22   C26   A    
C27   C28   S    
C42   H22   S    
C23   O7    A    
C9    C43   S    
