data_mof_unit_28308.cif
_audit_creation_date              2012-12-10T18:19:56-0500
_audit_creation_method            fapswitch 2.2
_symmetry_space_group_name_H-M    P1
_symmetry_Int_Tables_number       1
_space_group_crystal_system       triclinic
_cell_length_a                    10.618564
_cell_length_b                    10.613335
_cell_length_c                    9.423028
_cell_angle_alpha                 90.520187
_cell_angle_beta                  89.876143
_cell_angle_gamma                 89.945231
_cell_volume                      1061.91320786

loop_
_atom_site_label
_atom_site_type_symbol
_atom_type_description
_atom_site_fract_x
_atom_site_fract_y
_atom_site_fract_z
_atom_type_partial_charge
C1    C     C_R   0.500134 0.259418 0.499403 0.772129
C2    C     C_R   0.499866 0.740582 0.500597 0.772129
C3    C     C_3   0.492146 0.960899 0.634977 -0.131675
C4    C     C_3   0.507853 0.039101 0.365023 -0.131675
C5    C     C_3   0.592784 0.565729 0.051088 -0.033486
C6    C     C_3   0.407216 0.434270 0.948912 -0.033486
C7    C     C_3   0.489463 0.613324 0.950756 -0.040242
C8    C     C_3   0.510536 0.386676 0.049244 -0.040242
C9    C     C_3   0.603416 0.452389 0.948830 -0.037698
C10   C     C_3   0.396584 0.547611 0.051170 -0.037698
C11   C     C_R   0.259577 0.500051 0.500245 0.782397
C12   C     C_R   0.740423 0.499948 0.499754 0.782397
C13   C     C_3   0.040754 0.486213 0.634675 -0.181756
C14   C     C_3   0.959246 0.513787 0.365325 -0.181754
C15   C     C_3   0.959108 0.391258 0.551249 0.138958
C16   C     C_3   0.040892 0.608741 0.448751 0.138958
C17   C     C_3   0.877150 0.499773 0.499058 -0.036006
C18   C     C_3   0.122850 0.500226 0.500942 -0.036006
C19   C     C_3   0.957167 0.595994 0.581758 -0.207969
C20   C     C_3   0.042833 0.404005 0.418242 -0.207966
C21   C     C_3   0.599370 0.042749 0.574031 -0.180859
C22   C     C_3   0.400629 0.957251 0.425969 -0.180859
C23   C     C_3   0.607146 0.957120 0.440658 -0.176404
C24   C     C_3   0.392853 0.042880 0.559342 -0.176405
C25   C     C_3   0.499913 0.877551 0.501517 0.031287
C26   C     C_3   0.500086 0.122449 0.498483 0.031288
Cu1   Cu    Cu3+1 0.500030 0.499990 0.643150 0.921497
Cu2   Cu    Cu3+1 0.499970 0.500010 0.356850 0.921497
H1    H     H_    0.076223 0.474216 0.744492 0.132343
H2    H     H_    0.923777 0.525783 0.255507 0.132342
H3    H     H_    0.919445 0.674732 0.647636 0.131391
H4    H     H_    0.080555 0.325268 0.352363 0.131389
H5    H     H_    0.694740 0.918984 0.392139 0.119750
H6    H     H_    0.305259 0.081017 0.607861 0.119752
H7    H     H_    0.680089 0.080992 0.635235 0.132607
H8    H     H_    0.319909 0.919008 0.364765 0.132608
H9    H     H_    0.485745 0.926306 0.745591 0.123349
H10   H     H_    0.514254 0.073694 0.254410 0.123349
H11   H     H_    0.480418 0.708983 0.905261 0.108818
H12   H     H_    0.519582 0.291017 0.094739 0.108818
H13   H     H_    0.670806 0.621138 0.098920 0.104497
H14   H     H_    0.329194 0.378862 0.901080 0.104497
H15   H     H_    0.690442 0.412045 0.901196 0.107573
H16   H     H_    0.309557 0.587955 0.098804 0.107573
N1    N     N_3   0.500090 0.499970 0.858290 -0.151709
N2    N     N_3   0.499910 0.500030 0.141710 -0.151709
O1    O     O_R   0.500060 0.316850 0.620870 -0.582341
O2    O     O_R   0.499940 0.683150 0.379130 -0.582341
O3    O     O_R   0.500000 0.316860 0.379090 -0.589435
O4    O     O_R   0.500000 0.683140 0.620910 -0.589434
O5    O     O_R   0.316880 0.499960 0.620870 -0.586048
O6    O     O_R   0.683120 0.500040 0.379130 -0.586049
O7    O     O_R   0.316830 0.499970 0.379090 -0.586049
O8    O     O_R   0.683170 0.500030 0.620910 -0.586048
C27   C     C_3   0.908673 0.266694 0.607936 -0.416841
C28   C     C_3   0.016589 0.179526 0.651870 -0.339999
C29   C     C_3   0.966934 0.052710 0.702224 -0.874327
H17   H     H_    0.905931 0.065857 0.797133 0.249463
H18   H     H_    0.911875 0.005972 0.616752 0.255570
H19   H     H_    0.047212 0.990784 0.730606 0.240482
H20   H     H_    0.080851 0.163399 0.560327 0.208982
H21   H     H_    0.071476 0.224295 0.739053 0.210534
H22   H     H_    0.846707 0.286363 0.700729 0.193324
H23   H     H_    0.851724 0.220649 0.523337 0.187890
C30   C     C_3   0.091328 0.733305 0.392063 -0.416845
C31   C     C_3   0.983413 0.820468 0.348113 -0.339998
C32   C     C_3   0.033070 0.947284 0.297760 -0.874328
H24   H     H_    0.088115 0.994028 0.383238 0.255570
H25   H     H_    0.094087 0.934134 0.202863 0.249463
H26   H     H_    0.952793 0.009204 0.269358 0.240483
H27   H     H_    0.928536 0.775695 0.260926 0.210534
H28   H     H_    0.919143 0.836596 0.439649 0.208984
H29   H     H_    0.148269 0.779354 0.476666 0.187891
H30   H     H_    0.153302 0.713634 0.299278 0.193325

loop_
_geom_bond_atom_site_label_1
_geom_bond_atom_site_label_2
_ccdc_geom_bond_type
C7    C10   S    
C27   C28   S    
C11   C18   S    
C9    N1    S    
C6    N1    S    
C21   C26   S    
C19   H3    S    
Cu1   O8    S    
Cu2   N2    S    
C13   C18   S    
C7    N1    S    
C13   H1    S    
C24   C26   S    
C29   H18   S    
C30   H29   S    
C28   C29   S    
C2    O4    A    
C31   H28   S    
C8    C9    S    
C23   H5    S    
C22   C25   S    
C27   H22   S    
C12   C17   S    
C10   N2    S    
C14   C16   S    
C11   O7    A    
Cu1   O4    S    
C28   H21   S    
Cu1   N1    S    
C31   C32   S    
C14   C17   S    
C3    C24   S    
C14   H2    S    
C12   O6    A    
Cu1   O5    S    
C15   C20   S    
C9    H15   S    
C13   C19   S    
C10   H16   S    
C32   H24   S    
C14   C20   S    
C3    C25   S    
C5    C7    S    
C4    C23   S    
C1    O1    A    
C29   H19   S    
C6    C8    S    
C2    O2    A    
C24   H6    S    
C30   H30   S    
C32   H25   S    
C15   C27   S    
C5    C9    S    
C4    C22   S    
Cu2   O3    S    
C31   H27   S    
C27   H23   S    
C4    H10   S    
C21   C23   S    
C1    C26   S    
C22   C24   S    
C3    C21   S    
C20   H4    S    
Cu1   O1    S    
C15   C17   S    
C5    H13   S    
Cu2   O2    S    
C6    C10   S    
C4    C26   S    
Cu2   O7    S    
C21   H7    S    
C22   H8    S    
C5    N2    S    
C32   H26   S    
C13   C15   S    
Cu2   O6    S    
C29   H17   S    
C16   C19   S    
C17   C19   S    
C2    C25   S    
C18   C20   S    
C23   C25   S    
C8    N2    S    
C11   O5    A    
C3    H9    S    
C16   C18   S    
C30   C31   S    
C6    H14   S    
Cu1   Cu2   S    
C7    H11   S    
C28   H20   S    
C16   C30   S    
C8    H12   S    
C1    O3    A    
C12   O8    A    
