data_mof_unit_48305.cif
_audit_creation_date              2013-03-05T16:07:19-0500
_audit_creation_method            fapswitch 2.2
_symmetry_space_group_name_H-M    P1
_symmetry_Int_Tables_number       1
_space_group_crystal_system       triclinic
_cell_length_a                    6.962501
_cell_length_b                    13.621634
_cell_length_c                    20.247163
_cell_angle_alpha                 103.226887
_cell_angle_beta                  89.934869
_cell_angle_gamma                 90.601796
_cell_volume                      1869.20802175

loop_
_atom_site_label
_atom_site_type_symbol
_atom_site_description
_atom_site_fract_x
_atom_site_fract_y
_atom_site_fract_z
_atom_type_partial_charge
O1    O     O_R   0.506770 0.599700 0.449550 -0.595329
O2    O     O_R   0.179980 0.595740 0.587960 -0.606311
O3    O     O_R   0.004580 0.400300 0.550450 -0.592366
C1    C     C_R   0.348044 0.615321 0.615843 0.931710
O4    O     O_R   0.177380 0.611700 0.452380 -0.594915
O5    O     O_R   0.001970 0.416370 0.413900 -0.602824
C2    C     C_R   0.346949 0.638007 0.435608 0.924423
O6    O     O_R   0.509390 0.583630 0.586100 -0.594620
O7    O     O_3   0.337530 0.435890 0.487530 -0.266477
V1    V     V_3+5 0.064660 0.511890 0.502310 1.163015
O8    O     O_R   0.671950 0.404260 0.412040 -0.586254
C3    C     C_R   0.840384 0.382968 0.384725 0.944010
O9    O     O_R   0.674540 0.388300 0.547620 -0.591212
C4    C     C_R   0.842784 0.362724 0.564762 0.936995
V2    V     V_3+5 0.564030 0.488110 0.497690 1.178925
O10   O     O_3   0.841030 0.564110 0.512470 -0.281158
C5    C     C_R   0.878202 0.111601 0.608298 -0.156317
H1    H     H_    0.868367 0.162725 0.515901 0.132091
H2    H     H_    0.888916 0.033740 0.580742 0.148315
C6    C     C_R   0.851117 0.285772 0.603963 -0.088165
C7    C     C_R   0.850629 0.315518 0.930597 -0.175086
C8    C     C_R   0.842989 0.391866 0.895551 -0.094120
C9    C     C_R   0.846541 0.369024 0.824883 -0.169819
C10   C     C_R   0.858033 0.267860 0.787005 0.093198
C11   C     C_R   0.866806 0.189948 0.823374 0.081910
C12   C     C_R   0.861042 0.241619 0.714459 0.057827
C13   C     C_R   0.876342 0.138433 0.679824 0.110290
C14   C     C_R   0.887540 0.063142 0.716715 0.142586
C15   C     C_R   0.880204 0.088876 0.787439 -0.314948
C16   C     C_R   0.848620 0.314351 0.674765 -0.226595
C17   C     C_R   0.865913 0.184799 0.570829 -0.159943
C18   C     C_R   0.862538 0.214885 0.895353 -0.141223
H3    H     H_    0.836656 0.393859 0.696905 0.091875
H4    H     H_    0.847456 0.334957 0.985572 0.098903
H5    H     H_    0.840765 0.432631 0.801746 0.106239
H6    H     H_    0.834240 0.469665 0.923403 0.113569
H7    H     H_    0.887580 0.028502 0.814022 0.133785
C19   C     C_R   0.719777 0.257924 0.201437 0.141380
C20   C     C_R   0.867988 0.188351 0.182579 -0.194047
C21   C     C_R   0.018959 0.191459 0.229452 -0.091051
H8    H     H_    0.138050 0.140237 0.216968 0.133973
C22   C     C_R   0.010750 0.255437 0.294867 -0.107146
H9    H     H_    0.124258 0.252127 0.330682 0.158857
C23   C     C_R   0.851013 0.317755 0.315376 -0.193326
C24   C     C_R   0.711408 0.320782 0.266093 0.153361
C25   C     C_3   0.498227 0.311507 0.268787 -0.434509
C26   C     C_3   0.507357 0.243212 0.197952 -0.421166
H10   H     H_    0.425862 0.384314 0.270169 0.161432
H11   H     H_    0.451053 0.271755 0.308233 0.243882
H12   H     H_    0.441084 0.276924 0.158488 0.170931
H13   H     H_    0.464417 0.163851 0.195966 0.216595
C27   C     C_R   0.511778 0.743981 0.707782 0.167477
C28   C     C_R   0.352427 0.682908 0.684474 -0.222746
C29   C     C_R   0.193197 0.688944 0.728249 -0.149119
H14   H     H_    0.070901 0.639556 0.713220 0.138266
C30   C     C_R   0.195476 0.753727 0.793381 -0.174653
H15   H     H_    0.075408 0.752891 0.827041 0.141113
C31   C     C_R   0.357504 0.813843 0.816675 -0.229422
C32   C     C_R   0.514620 0.807423 0.772692 0.171232
C33   C     C_3   0.714349 0.778087 0.785234 -0.479810
C34   C     C_3   0.711771 0.710320 0.714593 -0.485353
H16   H     H_    0.721750 0.735520 0.825944 0.192866
H17   H     H_    0.816312 0.842643 0.791503 0.190165
H18   H     H_    0.719342 0.628720 0.714453 0.186346
H19   H     H_    0.810664 0.735374 0.678499 0.201137
C35   C     C_R   0.444504 0.885239 0.390178 -0.078721
H20   H     H_    0.445570 0.833074 0.482328 0.109682
H21   H     H_    0.492171 0.959588 0.416772 0.163627
C36   C     C_R   0.360547 0.715597 0.396541 -0.083146
C37   C     C_R   0.304118 0.687043 0.070729 -0.175441
C38   C     C_R   0.277890 0.612432 0.106567 -0.094300
C39   C     C_R   0.296600 0.635034 0.176936 -0.167980
C40   C     C_R   0.343600 0.734091 0.213686 0.098109
C41   C     C_R   0.374689 0.809671 0.176340 0.059761
C42   C     C_R   0.361754 0.760251 0.285975 0.059799
C43   C     C_R   0.415047 0.860830 0.319339 -0.007669
C44   C     C_R   0.444136 0.934360 0.281278 0.342077
C45   C     C_R   0.424777 0.908242 0.210935 -0.353496
C46   C     C_R   0.331375 0.689321 0.326433 -0.207164
C47   C     C_R   0.418666 0.813070 0.428164 -0.194532
C48   C     C_R   0.352733 0.785312 0.104753 -0.126838
H22   H     H_    0.289047 0.612288 0.305210 0.090756
H23   H     H_    0.285501 0.668229 0.016124 0.100360
H24   H     H_    0.273656 0.572844 0.200690 0.104504
H25   H     H_    0.241090 0.536375 0.079628 0.113025
H26   H     H_    0.448180 0.966884 0.183524 0.154191
O11   O     O_R   0.203450 0.916320 0.913910 -0.598214
O12   O     O_R   0.535520 0.888300 0.047620 -0.593259
O13   O     O_R   0.710860 0.083650 0.086100 -0.591868
C49   C     C_R   0.366053 0.862433 0.064828 0.920698
O14   O     O_R   0.532860 0.904250 0.912040 -0.598054
O15   O     O_R   0.708190 0.099710 0.949550 -0.591685
C50   C     C_R   0.364254 0.881416 0.885274 0.938197
O16   O     O_R   0.206120 0.900260 0.050460 -0.590207
O17   O     O_3   0.375280 0.064080 0.012470 -0.278193
V3    V     V_3+5 0.648180 0.988110 0.997690 1.158771
O18   O     O_R   0.038220 0.111740 0.952370 -0.593329
C51   C     C_R   0.870047 0.137392 0.935028 0.923325
O19   O     O_R   0.040880 0.095790 0.087940 -0.606731
C52   C     C_R   0.872746 0.117377 0.115164 0.941692
V4    V     V_3+5 0.148800 0.011950 0.002300 1.155096
O20   O     O_3   0.871820 0.935920 0.987530 -0.278153
N1    N     N_2   0.902179 0.960187 0.682353 -0.119085
H27   H     H_    0.808783 0.913688 0.700445 0.173521
C53   C     C_3   0.096567 0.923003 0.675141 -0.924937
H28   H     H_    0.095913 0.844009 0.644830 0.250738
H29   H     H_    0.159898 0.925112 0.725776 0.259254
H30   H     H_    0.186559 0.969376 0.648294 0.256861
N2    N     N_R   0.494283 0.036558 0.313252 0.218786
O21   O     O_R   0.641004 0.079844 0.291470 -0.429905
O22   O     O_R   0.379807 0.090331 0.357788 -0.448570

loop_
_geom_bond_atom_site_label_1
_geom_bond_atom_site_label_2
_geom_bond_distance
_ccdc_geom_bond_type
C35   H21   1.081454 S    
O12   V3    2.022496 S    
V4    O20   2.167636 S    
V3    O20   1.711099 S    
C1    C28   1.481067 S    
C40   C41   1.424684 A    
C29   H14   1.079393 S    
O17   V3    2.160784 S    
C1    O6    1.304093 A    
O18   C51   1.296945 A    
O15   C51   1.294621 A    
C6    C16   1.397000 A    
C28   C29   1.409873 A    
C27   C28   1.395662 A    
C53   H29   1.110689 S    
C25   H11   1.110189 S    
C12   C13   1.425000 A    
C33   H17   1.108771 S    
C14   C15   1.395171 A    
C31   C50   1.480801 S    
C10   C12   1.430234 A    
C27   C34   1.486930 S    
N2    O22   1.301257 A    
O5    C3    1.299783 A    
C19   C20   1.401010 A    
V2    O10   2.167587 S    
O15   V3    2.024678 S    
C30   H15   1.079586 S    
C33   H16   1.112528 S    
C37   C48   1.396416 A    
C19   C24   1.392191 A    
O14   V3    2.008548 S    
C38   H25   1.082891 S    
O8    V2    1.996285 S    
O16   V4    2.029109 S    
C18   C51   1.466832 S    
C9    C10   1.418469 A    
C37   C38   1.387814 A    
O1    V2    2.027586 S    
O7    V1    2.160787 S    
C45   H26   1.082863 S    
C11   C18   1.419085 A    
C21   C22   1.410535 A    
C32   C33   1.488916 S    
O11   V4    1.996630 S    
O9    C4    1.295705 A    
C40   C42   1.430401 A    
C22   C23   1.409752 A    
C53   H30   1.111355 S    
C49   O16   1.292851 A    
C26   H12   1.111504 S    
C25   H10   1.111736 S    
C11   C15   1.406314 A    
C7    C18   1.396337 A    
C29   C30   1.408992 A    
O13   C52   1.301807 A    
C5    C13   1.410261 A    
C4    C6    1.454021 S    
C10   C11   1.425258 A    
C20   C21   1.410786 A    
O4    C2    1.297494 A    
C26   H13   1.110385 S    
C7    H4    1.083867 S    
C31   C32   1.400545 A    
C44   C45   1.393123 A    
C33   C34   1.514474 S    
C34   H18   1.112677 S    
O2    C1    1.298126 A    
C42   C43   1.427384 A    
O5    V1    2.002942 S    
C27   C32   1.398006 A    
C34   H19   1.110269 S    
O14   C50   1.298140 A    
O19   C52   1.300868 A    
C35   C43   1.410950 A    
N1    C53   1.445591 S    
C43   C44   1.409501 A    
C44   N2    1.434170 S    
C37   H23   1.083876 S    
C19   C26   1.489985 S    
C39   H24   1.076052 S    
O3    C4    1.292280 A    
C48   C49   1.466986 S    
C21   H8    1.081307 S    
O19   V4    1.996084 S    
O12   C49   1.297789 A    
C12   C16   1.414665 A    
O6    V2    1.996245 S    
C9    H5    1.076228 S    
O9    V2    2.028588 S    
C5    C17   1.387477 A    
C36   C46   1.396743 A    
C22   H9    1.081422 S    
C41   C48   1.419041 A    
O2    V1    2.008498 S    
N1    H27   1.027241 S    
C8    H6    1.082862 S    
C23   C24   1.401444 A    
C25   C26   1.522144 S    
C16   H3    1.077259 S    
O1    C2    1.292476 A    
H20   C47   1.083815 S    
C39   C40   1.418885 A    
C2    C36   1.460141 S    
C46   H22   1.077043 S    
O8    C3    1.302892 A    
C35   C47   1.390059 A    
C53   H28   1.110048 S    
O13   V3    2.003047 S    
O7    V2    1.716233 S    
O4    V1    2.022655 S    
C3    C23   1.482055 S    
O3    V1    2.024660 S    
V1    O10   1.711197 S    
N2    O21   1.300412 A    
C14   N1    1.420407 S    
C20   C52   1.481752 S    
O11   C50   1.303564 A    
C5    H2    1.082825 S    
C30   C31   1.403823 A    
C24   C25   1.490315 S    
C38   C39   1.393039 A    
C41   C45   1.405488 A    
C15   H7    1.082655 S    
C13   C14   1.402934 A    
C8    C9    1.393206 A    
C36   C47   1.391715 A    
H1    C17   1.083793 S    
C7    C8    1.388115 A    
C42   C46   1.416612 A    
O18   V4    2.028564 S    
O17   V4    1.715650 S    
C6    C17   1.390330 A    
