data_mof_unit_13431.cif
_audit_creation_date              2012-12-10T18:38:10-0500
_audit_creation_method            fapswitch 2.2
_symmetry_space_group_name_H-M    P1
_symmetry_Int_Tables_number       1
_space_group_crystal_system       triclinic
_cell_length_a                    14.965542
_cell_length_b                    15.48865
_cell_length_c                    27.726295
_cell_angle_alpha                 90.042409
_cell_angle_beta                  105.21678
_cell_angle_gamma                 81.847863
_cell_volume                      6134.37359842

loop_
_atom_site_label
_atom_site_type_symbol
_atom_type_description
_atom_site_fract_x
_atom_site_fract_y
_atom_site_fract_z
_atom_type_partial_charge
C1    C     C_R   0.441046 0.662222 0.490884 0.866049
C2    C     C_R   0.469454 0.585400 0.122636 -0.069055
C3    C     C_R   0.505074 0.499027 0.647230 -0.038956
C4    C     C_R   0.493791 0.501420 0.352627 -0.039132
C5    C     C_R   0.482064 0.581385 0.022254 0.030252
C6    C     C_R   0.485949 0.420951 0.972945 0.030400
C7    C     C_R   0.487409 0.421927 0.024247 0.057267
C8    C     C_R   0.495403 0.578233 0.973531 0.057116
C9    C     C_R   0.482431 0.502811 0.048262 0.070024
C10   C     C_R   0.493957 0.498349 0.948388 0.069889
C11   C     C_R   0.466175 0.661082 0.045343 -0.268560
C12   C     C_R   0.559042 0.337661 0.507633 0.864688
C13   C     C_R   0.474663 0.345212 0.945133 -0.267951
C14   C     C_R   0.458644 0.664163 0.094395 0.012595
C15   C     C_R   0.477405 0.343025 0.895286 0.012027
C16   C     C_R   0.501528 0.499928 0.594035 0.861646
C17   C     C_R   0.498368 0.500137 0.405949 0.858476
C18   C     C_R   0.511629 0.652338 0.949300 -0.225188
C19   C     C_R   0.495127 0.344296 0.052669 -0.224835
C20   C     C_R   0.405066 0.754392 0.476646 -0.110749
C21   C     C_R   0.596718 0.244506 0.510026 -0.111309
C22   C     C_R   0.293265 0.872204 0.427983 -0.245672
C23   C     C_R   0.500473 0.496081 0.898296 -0.065294
C24   C     C_R   0.720220 0.120429 0.532787 -0.247646
C25   C     C_R   0.315355 0.784358 0.444421 -0.009363
C26   C     C_R   0.691410 0.210315 0.533294 -0.003663
C27   C     C_R   0.469283 0.812521 0.491213 -0.268908
C28   C     C_R   0.534430 0.188646 0.486782 -0.273371
C29   C     C_R   0.451888 0.896914 0.470333 0.096341
C30   C     C_R   0.561898 0.098761 0.487156 0.095193
C31   C     C_R   0.361006 0.928242 0.440329 0.157842
C32   C     C_R   0.655871 0.064586 0.511531 0.160276
C33   C     C_R   0.522211 0.951539 0.480131 0.073672
C34   C     C_R   0.478621 0.504897 0.098803 -0.065448
C35   C     C_R   0.496236 0.041643 0.467532 0.074213
C36   C     C_R   0.405218 0.071338 0.436706 -0.224239
C37   C     C_R   0.617761 0.918750 0.501543 -0.227698
C38   C     C_R   0.339308 0.014885 0.422725 -0.225227
C39   C     C_R   0.683737 0.974697 0.516183 -0.228195
C40   C     C_R   0.518288 0.570331 0.825183 0.498838
C41   C     C_R   0.484619 0.427953 0.175910 0.498795
C42   C     C_R   0.844313 0.634741 0.575868 -0.328916
C43   C     C_R   0.155486 0.365776 0.423817 -0.327420
C44   C     C_R   0.754602 0.613023 0.563169 0.008327
C45   C     C_R   0.513216 0.572382 0.874717 -0.009996
C46   C     C_R   0.245250 0.387374 0.436598 0.011941
C47   C     C_R   0.793098 0.511634 0.504926 -0.035043
C48   C     C_R   0.207012 0.488064 0.495235 -0.034207
C49   C     C_R   0.885555 0.530525 0.516097 -0.005859
C50   C     C_R   0.114395 0.469551 0.483834 -0.007615
C51   C     C_R   0.910228 0.593567 0.552499 0.177604
C52   C     C_R   0.089618 0.406783 0.447272 0.174969
C53   C     C_R   0.953700 0.488991 0.492918 0.071563
C54   C     C_R   0.046159 0.511308 0.506880 0.072665
C55   C     C_R   0.067231 0.574724 0.543245 -0.251321
C56   C     C_R   0.484922 0.425970 0.125662 -0.010708
C57   C     C_R   0.932510 0.425866 0.456383 -0.252236
C58   C     C_R   0.000357 0.614910 0.565470 -0.220563
C59   C     C_R   0.999372 0.385722 0.434136 -0.220621
C60   C     C_R   0.504112 0.418775 0.822522 0.490304
C61   C     C_R   0.472969 0.583269 0.174041 0.489948
C62   C     C_R   0.428098 0.486085 0.712869 -0.118873
C63   C     C_R   0.566272 0.519989 0.285661 -0.105982
C64   C     C_R   0.424935 0.487717 0.662418 -0.215917
C65   C     C_R   0.571248 0.518176 0.336413 -0.218793
C66   C     C_R   0.588428 0.508618 0.683275 -0.235279
C67   C     C_R   0.520022 0.649377 0.900762 -0.148870
C68   C     C_R   0.411387 0.486675 0.317385 -0.233647
C69   C     C_R   0.591378 0.506857 0.733842 -0.098914
C70   C     C_R   0.406656 0.488583 0.266685 -0.112319
C71   C     C_R   0.511174 0.495585 0.748597 0.327725
C72   C     C_R   0.484052 0.505164 0.250860 0.330327
C73   C     C_R   0.760702 0.264807 0.560687 0.138261
C74   C     C_R   0.842466 0.269932 0.545621 -0.173575
C75   C     C_R   0.907852 0.321345 0.571397 -0.142466
C76   C     C_R   0.891976 0.368189 0.612194 -0.111096
C77   C     C_R   0.811284 0.362755 0.627741 -0.123188
C78   C     C_R   0.493566 0.346484 0.102344 -0.149389
C79   C     C_R   0.746239 0.310605 0.602457 -0.091454
C80   C     C_R   0.244858 0.726113 0.425318 0.135583
C81   C     C_R   0.256290 0.666722 0.388317 -0.086639
C82   C     C_R   0.188950 0.612320 0.369967 -0.124406
C83   C     C_R   0.109443 0.617676 0.387936 -0.108429
C84   C     C_R   0.097303 0.677200 0.424432 -0.146139
C85   C     C_R   0.164727 0.731390 0.443094 -0.167479
C86   C     C_R   0.435118 0.751564 0.113301 0.189178
C87   C     C_R   0.346405 0.777029 0.121299 -0.085484
C88   C     C_R   0.323701 0.860155 0.138326 -0.130627
C89   C     C_R   0.494022 0.418040 0.871740 -0.068915
C90   C     C_R   0.388990 0.918454 0.147041 -0.102282
C91   C     C_R   0.477018 0.893808 0.138619 -0.131510
C92   C     C_R   0.500042 0.810723 0.121620 -0.141169
C93   C     C_R   0.457067 0.261983 0.868960 0.190135
C94   C     C_R   0.371642 0.260825 0.832808 -0.090625
C95   C     C_R   0.351810 0.183810 0.808631 -0.130147
C96   C     C_R   0.416651 0.107525 0.820689 -0.101517
C97   C     C_R   0.501343 0.108072 0.857037 -0.132303
C98   C     C_R   0.521490 0.184964 0.881286 -0.137837
H1    H     H_    0.651233 0.517106 0.672484 0.155114
H2    H     H_    0.980074 0.337786 0.406232 0.146623
H3    H     H_    0.232914 0.534818 0.522033 0.127372
H4    H     H_    0.767382 0.464425 0.478388 0.129259
H5    H     H_    0.296923 0.356705 0.418608 0.127540
H6    H     H_    0.702842 0.643940 0.581028 0.132558
H7    H     H_    0.862092 0.682992 0.603754 0.144830
H8    H     H_    0.137593 0.317840 0.395751 0.143176
H9    H     H_    0.134997 0.595311 0.555625 0.141379
H10   H     H_    0.864620 0.405576 0.443840 0.142810
H11   H     H_    0.655737 0.514090 0.761552 0.138120
H12   H     H_    0.350646 0.473703 0.328888 0.153390
H13   H     H_    0.343074 0.477081 0.239642 0.132825
H14   H     H_    0.531896 0.708125 0.883693 0.185511
H15   H     H_    0.500192 0.285091 0.122598 0.185675
H16   H     H_    0.635566 0.529721 0.362818 0.160499
H17   H     H_    0.359743 0.480363 0.635417 0.159275
H18   H     H_    0.626270 0.532487 0.273279 0.135932
H19   H     H_    0.365928 0.477741 0.724344 0.130397
H20   H     H_    0.454784 0.722830 0.025037 0.143126
H21   H     H_    0.458622 0.287249 0.960628 0.142734
H22   H     H_    0.520956 0.713238 0.967460 0.140956
H23   H     H_    0.462613 0.216363 0.470496 0.162885
H24   H     H_    0.505891 0.280243 0.038098 0.140799
H25   H     H_    0.270502 0.039653 0.398900 0.144384
H26   H     H_    0.756010 0.947460 0.533382 0.145691
H27   H     H_    0.855103 0.234757 0.513714 0.131904
H28   H     H_    0.970512 0.325428 0.559501 0.147777
H29   H     H_    0.942186 0.408714 0.631723 0.132524
H30   H     H_    0.799154 0.398891 0.659412 0.122547
H31   H     H_    0.684128 0.306702 0.614977 0.113328
H32   H     H_    0.317477 0.662317 0.374004 0.118993
H33   H     H_    0.198312 0.566092 0.341788 0.120169
H34   H     H_    0.533927 0.790323 0.519080 0.158886
H35   H     H_    0.057451 0.575429 0.373765 0.136480
H36   H     H_    0.035823 0.681069 0.438402 0.146332
H37   H     H_    0.154739 0.777167 0.471429 0.131421
H38   H     H_    0.295224 0.732436 0.114467 0.117930
H39   H     H_    0.255450 0.879432 0.144682 0.128992
H40   H     H_    0.371288 0.982792 0.160191 0.132118
H41   H     H_    0.527368 0.939129 0.145208 0.133654
H42   H     H_    0.568366 0.792311 0.115124 0.126231
H43   H     H_    0.320825 0.319529 0.823352 0.115299
H44   H     H_    0.286124 0.183222 0.780617 0.129029
H45   H     H_    0.224256 0.895969 0.403960 0.142024
H46   H     H_    0.401171 0.047947 0.801968 0.132578
H47   H     H_    0.551321 0.048882 0.866464 0.133704
H48   H     H_    0.587207 0.184679 0.909470 0.126724
H49   H     H_    0.792045 0.093494 0.551383 0.140205
H50   H     H_    0.383803 0.137349 0.421470 0.142181
H51   H     H_    0.643685 0.849767 0.506495 0.152628
H52   H     H_    0.019550 0.663114 0.593221 0.145397
N1    N     N_R   0.513008 0.494569 0.800295 -0.353466
N2    N     N_R   0.479719 0.505569 0.198893 -0.354724
N3    N     N_R   0.731710 0.552720 0.528410 -0.097551
N4    N     N_R   0.268290 0.447280 0.471590 -0.095997
O1    O     O_R   0.383110 0.605620 0.485680 -0.605084
O2    O     O_2   0.490836 0.352801 0.202045 -0.570783
O3    O     O_2   0.471606 0.657349 0.199595 -0.555508
O4    O     O_2   0.506623 0.344739 0.796969 -0.553725
O5    O     O_R   0.616890 0.394380 0.514320 -0.603927
O6    O     O_R   0.531900 0.639510 0.503910 -0.616789
O7    O     O_R   0.468100 0.360490 0.496090 -0.616162
O8    O     O_R   0.425620 0.483050 0.562130 -0.621746
O9    O     O_R   0.574380 0.516950 0.437870 -0.621353
O10   O     O_R   0.574410 0.516930 0.580360 -0.623956
O11   O     O_R   0.425590 0.483070 0.419640 -0.627683
O12   O     O_2   0.527193 0.643713 0.801693 -0.572834
Zn1   Zn    Zn3+2 0.400660 0.477380 0.487830 0.947233
Zn2   Zn    Zn3+2 0.599340 0.522620 0.512170 0.948248

loop_
_geom_bond_atom_site_label_1
_geom_bond_atom_site_label_2
_ccdc_geom_bond_type
C87   C88   A    
C63   C65   A    
C19   H24   S    
C34   C56   A    
C93   C94   A    
C23   C45   A    
C27   C29   A    
C25   C80   S    
C65   H16   S    
C95   C96   A    
C21   C26   A    
C66   C69   A    
C97   C98   A    
C44   H6    S    
C47   C49   A    
C41   N2    A    
C3    C64   A    
C16   O10   A    
C84   H36   S    
C50   C54   A    
C30   C35   A    
C44   N3    A    
C60   O4    S    
C5    C11   A    
C59   H2    S    
C4    C65   A    
C11   C14   A    
C43   C52   A    
C57   C59   A    
C74   H27   S    
C96   H46   S    
C20   C25   A    
C70   H13   S    
C79   H31   S    
C29   C33   A    
C26   C73   S    
C56   C78   A    
O5    Zn2   S    
C69   C71   A    
C73   C74   A    
C32   C39   A    
C1    O1    A    
C62   H19   S    
C62   C64   A    
C17   O9    A    
C13   H21   S    
C12   O7    A    
C69   H11   S    
C36   H50   S    
C71   N1    S    
C35   C36   A    
O1    Zn1   S    
C72   N2    S    
C22   C25   A    
C22   H45   S    
C45   C67   A    
C50   C52   A    
C23   C89   A    
C40   O12   S    
C38   H25   S    
C2    C61   A    
C42   C51   A    
C41   O2    S    
C2    C34   A    
C48   C50   A    
O11   Zn1   S    
C64   H17   S    
C27   H34   S    
C42   C44   A    
C42   H7    S    
C81   C82   A    
C77   C79   A    
C40   C45   A    
C46   N4    A    
C22   C31   A    
O10   Zn2   S    
C84   C85   A    
C14   C86   S    
C74   C75   A    
C91   C92   A    
C4    C68   A    
C53   C57   A    
C28   H23   S    
C47   N3    A    
C49   C51   A    
C18   C67   A    
C53   C54   A    
C12   C21   S    
C33   C37   A    
C39   H26   S    
C40   N1    A    
C55   H9    S    
C43   H8    S    
C66   H1    S    
C90   H40   S    
C19   C78   A    
C75   C76   A    
C24   C32   A    
C41   C56   A    
C5    C9    A    
C80   C85   A    
C52   C59   A    
C61   O3    S    
C15   C89   A    
C83   C84   A    
C96   C97   A    
C73   C79   A    
C51   C58   A    
C68   H12   S    
C76   C77   A    
C61   N2    A    
O7    Zn1   S    
C77   H30   S    
C85   H37   S    
C91   H41   S    
C63   H18   S    
C8    C10   A    
C21   C28   A    
C88   C90   A    
C7    C19   A    
C13   C15   A    
N3    Zn2   S    
C9    C34   A    
N4    Zn1   S    
C78   H15   S    
C4    C17   S    
C92   H42   S    
C18   H22   S    
C17   O11   A    
C7    C9    A    
C48   N4    A    
C54   C55   A    
C1    C20   S    
C86   C87   A    
C94   H43   S    
C97   H47   S    
C87   H38   S    
C1    O6    A    
C24   C26   A    
C37   H51   S    
C80   C81   A    
C24   H49   S    
C15   C93   S    
C5    C8    A    
C6    C7    A    
C20   C27   A    
C10   C23   A    
C98   H48   S    
C46   H5    S    
C31   C38   A    
C75   H28   S    
C16   O8    A    
C28   C30   A    
O9    Zn2   S    
C29   C31   A    
C86   C92   A    
C6    C13   A    
C30   C32   A    
C90   C91   A    
C49   C53   A    
C48   H3    S    
C60   C89   A    
C36   C38   A    
C33   C35   A    
C62   C71   A    
O6    Zn2   S    
C12   O5    A    
C94   C95   A    
C2    C14   A    
C43   C46   A    
C8    C18   A    
C88   H39   S    
C83   H35   S    
C6    C10   A    
C81   H32   S    
O8    Zn1   S    
C3    C66   A    
C67   H14   S    
C37   C39   A    
C57   H10   S    
C63   C72   A    
C95   H44   S    
C68   C70   A    
C82   C83   A    
C55   C58   A    
C47   H4    S    
C76   H29   S    
C70   C72   A    
C82   H33   S    
C11   H20   S    
C93   C98   A    
C60   N1    A    
C3    C16   S    
C58   H52   S    
