data_mof_unit_37379.cif
_audit_creation_date              2012-12-10T18:49:54-0500
_audit_creation_method            fapswitch 2.2
_symmetry_space_group_name_H-M    P1
_symmetry_Int_Tables_number       1
_space_group_crystal_system       triclinic
_cell_length_a                    10.733772
_cell_length_b                    9.814096
_cell_length_c                    10.713543
_cell_angle_alpha                 90.033657
_cell_angle_beta                  90.809288
_cell_angle_gamma                 89.922789
_cell_volume                      1128.47514052

loop_
_atom_site_label
_atom_site_type_symbol
_atom_type_description
_atom_site_fract_x
_atom_site_fract_y
_atom_site_fract_z
_atom_type_partial_charge
C1    C     C_R   0.259961 0.500077 0.499654 0.946643
C2    C     C_3   0.639357 0.428809 0.929905 0.860910
C3    C     C_R   0.065171 0.379094 0.522879 -0.255893
C4    C     C_R   0.064377 0.620626 0.470642 -0.272352
C5    C     C_R   0.937743 0.378099 0.520954 0.570748
C6    C     C_R   0.936818 0.620845 0.468762 0.553082
C7    C     C_R   0.873023 0.499427 0.494411 -0.341207
C8    C     C_R   0.127932 0.500085 0.498032 -0.214087
C9    C     C_R   0.575146 0.071987 0.580871 -0.010763
C10   C     C_R   0.575086 0.927891 0.580944 -0.015431
C11   C     C_R   0.425147 0.928017 0.418741 -0.040547
C12   C     C_R   0.425096 0.072112 0.418794 -0.091449
C13   C     C_R   0.502835 0.499799 0.257719 0.928785
C14   C     C_R   0.740173 0.499843 0.495518 0.889365
C15   C     C_R   0.505827 0.500129 0.742617 0.936476
C16   C     C_3   0.513702 0.649253 0.070537 0.335011
C17   C     C_3   0.384773 0.441098 0.068702 0.415419
C18   C     C_3   0.510166 0.648975 0.928759 -0.505464
C19   C     C_3   0.396910 0.423851 0.927014 -0.500606
C20   C     C_3   0.622225 0.402430 0.074856 0.811602
C21   C     C_3   0.510600 0.498818 0.122021 -0.310774
C22   C     C_3   0.514699 0.500071 0.879563 -0.214018
H1    H     H_    0.365429 0.873261 0.353882 0.135552
H2    H     H_    0.365413 0.126975 0.353922 0.188228
H3    H     H_    0.428800 0.704214 0.102156 0.123929
H4    H     H_    0.307271 0.513504 0.087719 0.071053
H5    H     H_    0.422570 0.699447 0.895905 0.177653
H6    H     H_    0.310948 0.464088 0.880520 0.154636
H7    H     H_    0.588399 0.710887 0.892667 0.258487
H8    H     H_    0.403267 0.313663 0.903253 0.275591
H9    H     H_    0.114400 0.285433 0.544802 0.201211
H10   H     H_    0.113073 0.714366 0.449706 0.199380
H11   H     H_    0.635224 0.126727 0.645349 0.185481
H12   H     H_    0.635024 0.873040 0.645610 0.133451
N1    N     N_R   0.499970 0.857200 0.499970 -0.084227
N2    N     N_R   0.499970 0.142800 0.499970 -0.108560
O1    O     O_R   0.316750 0.614620 0.499990 -0.638843
O2    O     O_R   0.316750 0.385380 0.499990 -0.623935
O3    O     O_R   0.499970 0.614670 0.314790 -0.613670
O4    O     O_R   0.499970 0.385330 0.314790 -0.573744
O5    O     O_R   0.683220 0.614710 0.500010 -0.573698
O6    O     O_R   0.683220 0.385290 0.500010 -0.571689
O7    O     O_R   0.500010 0.614660 0.685200 -0.650767
O8    O     O_R   0.500010 0.385340 0.685200 -0.590661
Zn1   Zn    Zn3+2 0.499980 0.653120 0.500000 0.979384
Zn2   Zn    Zn3+2 0.499980 0.346880 0.500000 1.000992
F1    F     F_    0.611858 0.727553 0.113856 -0.662382
F2    F     F_    0.350438 0.318284 0.122456 -0.613016
O9    O     O_3   0.740230 0.411879 0.141236 -0.696732
C23   C     C_3   0.785127 0.540602 0.178814 -0.138294
H13   H     H_    0.799969 0.612133 0.101214 0.262302
H14   H     H_    0.879069 0.524718 0.220526 0.159556
H15   H     H_    0.728733 0.585756 0.253225 0.212129
O10   O     O_3   0.577492 0.264426 0.084810 -0.586970
C24   C     C_3   0.645367 0.177132 0.166603 -0.002998
H16   H     H_    0.655154 0.219585 0.262116 0.194951
H17   H     H_    0.739024 0.154026 0.129772 0.142337
H18   H     H_    0.594331 0.079335 0.174007 0.173819
O11   O     O_3   0.744809 0.516143 0.915088 -0.662980
C25   C     C_3   0.781673 0.537864 0.791030 -0.307403
H19   H     H_    0.740367 0.633693 0.754648 0.179843
H20   H     H_    0.758540 0.452282 0.728448 0.193003
H21   H     H_    0.884358 0.550116 0.790264 0.188785
O12   O     O_3   0.654840 0.301535 0.865923 -0.629529
C26   C     C_3   0.772783 0.239197 0.885860 -0.220066
H22   H     H_    0.830798 0.285986 0.960986 0.205471
H23   H     H_    0.826137 0.241515 0.798039 0.201631
H24   H     H_    0.758132 0.130359 0.909113 0.175692
F3    F     F_    0.879071 0.259178 0.547350 -0.661727
F4    F     F_    0.876890 0.738904 0.439613 -0.638105

loop_
_geom_bond_atom_site_label_1
_geom_bond_atom_site_label_2
_ccdc_geom_bond_type
C2    C22   S    
C9    N2    A    
C23   H14   S    
C11   C12   A    
N2    Zn2   S    
C16   C21   S    
C1    O1    A    
C12   N2    A    
C1    C8    S    
C9    C10   A    
C12   H2    S    
C17   F2    S    
C14   O6    A    
O3    Zn1   S    
C26   H24   S    
O12   C26   S    
C17   C21   S    
C24   H16   S    
C18   C22   S    
C23   H13   S    
C13   C21   S    
O11   C25   S    
C10   H12   S    
C18   H7    S    
C4    H10   S    
C3    H9    S    
O4    Zn2   S    
C19   H6    S    
O7    Zn1   S    
C20   O10   S    
C6    F4    S    
C20   O9    S    
C1    O2    A    
C9    H11   S    
C14   O5    A    
C17   H4    S    
C16   F1    S    
C25   H20   S    
C17   C19   S    
C2    O12   S    
C15   O8    A    
C26   H22   S    
C6    C7    A    
C24   H17   S    
C3    C8    A    
C10   N1    A    
C25   H21   S    
O2    Zn2   S    
C4    C6    A    
C13   O3    A    
C15   O7    A    
C23   H15   S    
C16   H3    S    
C19   C22   S    
C20   C21   S    
C16   C18   S    
O9    C23   S    
O6    Zn2   S    
C24   H18   S    
C11   H1    S    
C4    C8    A    
C5    C7    A    
C2    C20   S    
O5    Zn1   S    
C2    O11   S    
C13   O4    A    
C5    F3    S    
C26   H23   S    
O10   C24   S    
C19   H8    S    
O1    Zn1   S    
C11   N1    A    
C15   C22   S    
C7    C14   S    
C18   H5    S    
O8    Zn2   S    
C25   H19   S    
C3    C5    A    
N1    Zn1   S    
