data_mof_unit_33449.cif
_audit_creation_date              2013-03-05T15:55:36-0500
_audit_creation_method            fapswitch 2.2
_symmetry_space_group_name_H-M    P1
_symmetry_Int_Tables_number       1
_space_group_crystal_system       triclinic
_cell_length_a                    12.380272
_cell_length_b                    13.094392
_cell_length_c                    15.835351
_cell_angle_alpha                 77.314296
_cell_angle_beta                  100.974448
_cell_angle_gamma                 116.938234
_cell_volume                      2220.47138617

loop_
_atom_site_label
_atom_site_type_symbol
_atom_site_description
_atom_site_fract_x
_atom_site_fract_y
_atom_site_fract_z
_atom_type_partial_charge
O1    O     O_R   0.972520 0.318130 0.524690 -0.582830
O2    O     O_R   0.806530 0.359650 0.491530 -0.605962
C1    C     C_R   0.854936 0.286104 0.508119 0.751628
O3    O     O_R   0.083030 0.479240 0.637150 -0.587745
O4    O     O_R   0.917040 0.520750 0.603990 -0.572238
C2    C     C_R   0.999659 0.499937 0.659412 0.796310
Cu1   Cu    Cu3+1 0.098280 0.475420 0.519630 1.011809
Cu2   Cu    Cu3+1 0.901720 0.524580 0.480370 0.929303
O5    O     O_R   0.193470 0.640350 0.508470 -0.499016
O6    O     O_R   0.027480 0.681870 0.475310 -0.601079
O7    O     O_R   0.082960 0.479250 0.396010 -0.505350
O8    O     O_R   0.916970 0.520760 0.362850 -0.604102
C3    C     C_R   0.144967 0.713791 0.487598 0.844442
C4    C     C_R   0.000097 0.499796 0.340531 0.833392
C5    C     C_3   0.929273 0.372068 0.963184 0.364545
C6    C     C_3   0.937012 0.577544 0.928648 0.237615
C7    C     C_3   0.936862 0.575585 0.027301 -0.445779
H1    H     H_    0.827145 0.339924 0.073408 0.203345
H2    H     H_    0.996490 0.668277 0.901270 0.086208
H3    H     H_    0.843120 0.544039 0.045123 0.207241
H4    H     H_    0.988271 0.665552 0.042712 0.145830
C8    C     C_1   0.999655 0.498528 0.250951 -0.129475
C9    C     C_3   0.995824 0.498800 0.916523 0.149946
C10   C     C_3   0.923484 0.373459 0.060159 -0.419782
C11   C     C_3   0.997118 0.498117 0.082731 0.201337
C12   C     C_3   0.129110 0.546073 0.059107 -0.366844
C13   C     C_3   0.128742 0.548924 0.960740 -0.574958
C14   C     C_1   0.998544 0.497816 0.175251 -0.045179
C15   C     C_1   0.997690 0.499953 0.824305 -0.016556
C16   C     C_1   0.998826 0.500123 0.748862 -0.153240
H5    H     H_    0.176569 0.498087 0.952152 0.194934
H6    H     H_    0.180777 0.639756 0.929782 0.191617
H7    H     H_    0.173481 0.490698 0.097682 0.199097
H8    H     H_    0.986539 0.326861 0.961009 0.052815
H9    H     H_    0.960835 0.314426 0.102514 0.132361
H10   H     H_    0.183900 0.635109 0.075754 0.191632
C17   C     C_R   0.284235 0.015605 0.367746 -0.181792
H11   H     H_    0.103824 0.878361 0.366686 0.162106
H12   H     H_    0.470207 0.211866 0.314407 0.150681
H13   H     H_    0.257813 0.070531 0.314613 0.150363
C18   C     C_R   0.227967 0.836100 0.467917 -0.133681
C19   C     C_R   0.811977 0.081897 0.567393 -0.188861
C20   C     C_R   0.732326 0.965186 0.581937 -0.178280
C21   C     C_R   0.610641 0.927969 0.548270 -0.115200
C22   C     C_R   0.566454 0.007502 0.498124 0.079869
C23   C     C_R   0.652085 0.122158 0.471696 0.072961
C24   C     C_R   0.440778 0.975755 0.470058 -0.017170
C25   C     C_R   0.406535 0.049504 0.401799 0.102140
C26   C     C_R   0.494831 0.155849 0.367664 -0.200930
C27   C     C_R   0.615552 0.192576 0.402835 -0.189517
C28   C     C_R   0.347211 0.875599 0.509653 0.407996
C29   C     C_R   0.195953 0.907587 0.398680 -0.255683
C30   C     C_R   0.772816 0.161775 0.513372 -0.093820
H14   H     H_    0.904249 0.109775 0.599003 0.156079
H15   H     H_    0.553940 0.835899 0.559254 0.199304
H16   H     H_    0.764330 0.903505 0.621258 0.166182
H17   H     H_    0.680371 0.274675 0.372587 0.171045
C31   C     C_R   0.352404 0.339582 0.646876 -0.281819
H18   H     H_    0.177149 0.323591 0.663204 0.140416
H19   H     H_    0.548973 0.300671 0.674198 0.155618
H20   H     H_    0.353273 0.277168 0.704399 0.154455
N1    N     N_R   0.246300 0.438200 0.549400 -0.226836
C32   C     C_R   0.766226 0.652595 0.387377 -0.042209
C33   C     C_R   0.678704 0.696238 0.368923 0.380048
C34   C     C_R   0.578782 0.643747 0.417036 -0.169623
C35   C     C_R   0.557802 0.541362 0.477248 -0.065547
C36   C     C_R   0.653829 0.505799 0.497657 0.264453
C37   C     C_R   0.450205 0.478752 0.522739 -0.092251
C38   C     C_R   0.450830 0.395216 0.596517 0.134389
C39   C     C_R   0.548727 0.365979 0.618613 -0.212246
C40   C     C_R   0.646300 0.417636 0.568773 -0.129911
C41   C     C_R   0.339842 0.491766 0.496631 0.483617
C42   C     C_R   0.252128 0.364812 0.623384 0.003725
N2    N     N_R   0.754300 0.561180 0.451130 -0.227303
H21   H     H_    0.847873 0.695847 0.354351 0.139214
H22   H     H_    0.522858 0.688841 0.409305 0.214652
H23   H     H_    0.715880 0.388269 0.590205 0.195037
O9    O     O_3   0.370731 0.815930 0.589389 -0.626651
C43   C     C_3   0.335136 0.846531 0.656470 0.048642
H24   H     H_    0.317319 0.774038 0.711733 0.175587
H25   H     H_    0.248446 0.856446 0.637354 0.120600
C44   C     C_3   0.437267 0.956925 0.687962 -0.352388
H26   H     H_    0.523060 0.945965 0.705771 0.238532
H27   H     H_    0.452503 0.031928 0.635022 0.214276
C45   C     C_3   0.405716 0.983452 0.766709 -0.931870
H28   H     H_    0.320816 0.996053 0.750010 0.259605
H29   H     H_    0.480929 0.064207 0.787183 0.259251
H30   H     H_    0.393338 0.911457 0.821890 0.254647
O10   O     O_3   0.810173 0.316696 0.920868 -0.550966
C46   C     C_3   0.774131 0.196935 0.923567 0.068480
H31   H     H_    0.674148 0.151525 0.927198 0.172858
H32   H     H_    0.816213 0.158070 0.982416 0.115398
C47   C     C_3   0.801376 0.176288 0.839996 -0.366577
H33   H     H_    0.752159 0.209567 0.782881 0.227513
H34   H     H_    0.900590 0.224088 0.833446 0.206620
C48   C     C_3   0.761956 0.047699 0.840103 -0.914031
H35   H     H_    0.814656 0.014157 0.894195 0.260561
H36   H     H_    0.779016 0.035330 0.777543 0.262178
H37   H     H_    0.663272 0.997559 0.847743 0.262066
N3    N     N_R   0.317110 0.541686 0.408975 0.111158
O11   O     O_R   0.313521 0.492450 0.344844 -0.389595
O12   O     O_R   0.313214 0.641833 0.392020 -0.382864
O13   O     O_3   0.696166 0.798451 0.312562 -0.603498
C49   C     C_3   0.711323 0.791416 0.227828 0.073415
H38   H     H_    0.637458 0.805553 0.182242 0.174197
H39   H     H_    0.703890 0.705760 0.219694 0.119713
C50   C     C_3   0.834040 0.887453 0.201656 -0.345898
H40   H     H_    0.839127 0.972890 0.206766 0.231642
H41   H     H_    0.909037 0.874687 0.246668 0.205843
C51   C     C_3   0.851243 0.888079 0.108583 -0.931853
H42   H     H_    0.849106 0.804310 0.102292 0.262108
H43   H     H_    0.940725 0.958936 0.091594 0.254960
H44   H     H_    0.778354 0.902826 0.062192 0.255712
N4    N     N_R   0.814966 0.547510 0.881085 0.157597
O14   O     O_R   0.718094 0.465891 0.914637 -0.324593
O15   O     O_R   0.801918 0.610020 0.807168 -0.369313

loop_
_geom_bond_atom_site_label_1
_geom_bond_atom_site_label_2
_geom_bond_distance
_ccdc_geom_bond_type
C33   O13   1.386104 S    
C35   C37   1.442911 A    
C47   H33   1.112124 S    
C43   C44   1.535403 S    
C49   H39   1.117371 S    
N4    O14   1.301810 A    
Cu1   Cu2   2.718486 S    
C45   H28   1.110899 S    
C11   C14   1.460990 S    
Cu1   O7    1.922158 S    
C12   C13   1.549099 S    
C34   H22   1.072101 S    
H1    C10   1.113391 S    
C9    C15   1.461537 S    
C17   H13   1.083878 S    
C19   C30   1.403357 A    
O4    C2    1.302484 A    
O7    C4    1.303724 A    
H11   C29   1.083390 S    
C48   H37   1.110382 S    
C7    H3    1.111888 S    
O5    C3    1.304862 A    
C51   H42   1.111087 S    
C37   C38   1.415787 A    
C48   H36   1.110582 S    
C50   H40   1.111792 S    
N1    C42   1.355505 A    
C39   C40   1.388461 A    
C9    C13   1.553540 S    
H18   C42   1.081680 S    
C18   C29   1.398339 A    
C37   C41   1.425388 A    
C31   H20   1.083998 S    
C45   H29   1.110775 S    
C35   C36   1.422631 A    
C47   H34   1.111140 S    
C8    C14   1.198234 T    
C50   H41   1.111042 S    
O3    Cu1   1.919524 S    
Cu2   N2    2.036755 S    
C49   H38   1.111289 S    
C22   C24   1.422321 A    
C10   H9    1.113233 S    
C13   H5    1.113440 S    
C10   C11   1.551515 S    
O3    C2    1.302687 A    
C43   H25   1.116080 S    
C17   C29   1.390673 A    
O9    C43   1.417143 S    
C6    C7    1.557128 S    
C24   C28   1.412045 A    
C11   C12   1.550606 S    
C22   C23   1.415598 A    
C7    H4    1.113661 S    
C43   H24   1.111076 S    
O1    C1    1.309055 A    
C20   C21   1.390809 A    
Cu1   N1    2.048737 S    
C15   C16   1.196935 T    
C5    O10   1.420348 S    
C12   H7    1.113221 S    
C46   H32   1.116214 S    
C24   C25   1.420795 A    
H19   C39   1.084808 S    
Cu2   O8    1.919524 S    
C48   H35   1.110816 S    
N3    O12   1.300706 A    
N1    C41   1.380728 A    
C36   N2    1.383069 A    
C17   C25   1.402019 A    
C51   H44   1.111047 S    
C12   H10   1.113205 S    
C5    C10   1.555319 S    
C2    C16   1.419018 S    
O8    C4    1.302481 A    
C44   H26   1.111105 S    
C6    C9    1.565431 S    
C44   H27   1.110706 S    
C50   C51   1.526526 S    
C19   C20   1.388329 A    
C40   H23   1.066114 S    
C21   C22   1.414921 A    
C46   C47   1.532298 S    
C41   N3    1.432705 S    
C45   H30   1.110874 S    
Cu1   O5    1.920888 S    
C25   C26   1.393346 A    
C5    H8    1.119257 S    
H12   C26   1.084075 S    
C13   H6    1.113512 S    
O1    Cu1   1.934440 S    
C27   H17   1.080572 S    
O2    Cu2   1.920888 S    
O6    C3    1.305877 A    
C6    N4    1.470833 S    
O4    Cu2   1.922157 S    
N4    O15   1.301209 A    
C31   C38   1.400701 A    
C3    C18   1.459317 S    
C32   N2    1.356355 A    
C47   C48   1.525727 S    
C44   C45   1.525398 S    
C23   C27   1.411505 A    
C7    C11   1.549578 S    
C33   C34   1.393433 A    
C4    C8    1.421213 S    
O2    C1    1.306696 A    
C28   O9    1.386512 S    
C19   H14   1.083278 S    
C1    C30   1.471061 S    
C21   H15   1.078927 S    
C46   H31   1.110967 S    
C32   H21   1.080967 S    
C6    H2    1.115516 S    
C23   C30   1.418078 A    
C5    C9    1.559831 S    
N3    O11   1.301297 A    
C36   C40   1.407518 A    
C34   C35   1.411138 A    
C38   C39   1.392142 A    
C51   H43   1.110413 S    
C32   C33   1.397584 A    
C20   H16   1.082671 S    
Cu2   O6    1.934440 S    
C26   C27   1.387323 A    
O13   C49   1.417711 S    
O10   C46   1.415623 S    
C18   C28   1.403752 A    
C49   C50   1.530070 S    
C31   C42   1.389424 A    
