data_mof_unit_39481.cif
_audit_creation_date              2012-12-10T20:54:02-0500
_audit_creation_method            fapswitch 2.2
_symmetry_space_group_name_H-M    P1
_symmetry_Int_Tables_number       1
_space_group_crystal_system       triclinic
_cell_length_a                    26.285502
_cell_length_b                    34.293551
_cell_length_c                    21.951309
_cell_angle_alpha                 89.720596
_cell_angle_beta                  128.035388
_cell_angle_gamma                 90.13836
_cell_volume                      15584.9822499

loop_
_atom_site_label
_atom_site_type_symbol
_atom_type_description
_atom_site_fract_x
_atom_site_fract_y
_atom_site_fract_z
_atom_type_partial_charge
C1    C     C_R   0.998385 0.644709 0.498466 0.470649
C2    C     C_R   0.173081 0.773780 0.920194 0.013844
C3    C     C_R   0.694500 0.176331 0.256403 0.261502
C4    C     C_R   0.208079 0.335253 0.282375 0.290531
C5    C     C_R   0.803567 0.673730 0.738812 0.295735
C6    C     C_R   0.799160 0.328397 0.726239 0.302925
C7    C     C_R   0.209907 0.658651 0.282876 0.260250
C8    C     C_R   0.761069 0.860400 0.316859 0.365322
C9    C     C_R   0.236924 0.131973 0.675842 0.326280
C10   C     C_R   0.261760 0.845744 0.715436 0.348739
C11   C     C_R   0.742599 0.147201 0.290036 0.314547
C12   C     C_R   0.260255 0.361449 0.318481 0.357113
C13   C     C_R   0.173003 0.226099 0.920145 0.014542
C14   C     C_R   0.754381 0.645348 0.705881 0.322773
C15   C     C_R   0.748216 0.355189 0.695569 0.353675
C16   C     C_R   0.263150 0.632997 0.323881 0.321058
C17   C     C_R   0.703292 0.782736 0.462283 0.264431
C18   C     C_R   0.299271 0.218822 0.545018 0.249162
C19   C     C_R   0.298357 0.779571 0.540707 0.269132
C20   C     C_R   0.696824 0.222836 0.448435 0.250104
C21   C     C_R   0.205926 0.282982 0.467175 0.259852
C22   C     C_R   0.799231 0.720393 0.544635 0.248913
C23   C     C_R   0.794394 0.284218 0.533261 0.265790
C24   C     C_R   0.824951 0.778135 0.079113 0.017040
C25   C     C_R   0.203348 0.716731 0.461150 0.251268
C26   C     C_R   0.699691 0.753846 0.507225 -0.024683
C27   C     C_R   0.303576 0.248243 0.500697 -0.043726
C28   C     C_R   0.301600 0.751128 0.495791 -0.016533
C29   C     C_R   0.695289 0.250019 0.497223 -0.041600
C30   C     C_R   0.200288 0.253085 0.508317 -0.020043
C31   C     C_R   0.803177 0.749134 0.499936 -0.041608
C32   C     C_R   0.798183 0.255559 0.488528 -0.028660
C33   C     C_R   0.198585 0.746461 0.503911 -0.050394
C34   C     C_R   0.750929 0.725604 0.552895 0.059887
C35   C     C_R   0.204451 0.798721 0.044838 0.267483
C36   C     C_R   0.256293 0.279004 0.462230 0.028527
C37   C     C_R   0.252175 0.721687 0.453211 0.055970
C38   C     C_R   0.744039 0.279893 0.538202 0.029856
C39   C     C_R   0.249302 0.223495 0.550924 0.059935
C40   C     C_R   0.755444 0.779480 0.460350 0.029015
C41   C     C_R   0.745838 0.228142 0.441078 0.056937
C42   C     C_R   0.247270 0.776073 0.544627 0.039947
C43   C     C_R   0.441588 0.915945 0.445620 0.236980
C44   C     C_R   0.558075 0.082395 0.540690 0.229283
C45   C     C_R   0.559499 0.917075 0.554119 0.246764
C46   C     C_R   0.793427 0.197628 0.961662 0.296283
C47   C     C_R   0.437723 0.082658 0.446543 0.247107
C48   C     C_R   0.940372 0.416009 0.447331 0.235548
C49   C     C_R   0.056538 0.582600 0.542437 0.227508
C50   C     C_R   0.058877 0.417468 0.552180 0.242689
C51   C     C_R   0.936475 0.582958 0.447118 0.246016
C52   C     C_R   0.500994 0.896831 0.500448 0.007304
C53   C     C_R   0.498172 0.102537 0.496976 -0.002741
C54   C     C_R   0.000392 0.397078 0.500066 0.003861
C55   C     C_R   0.996915 0.602659 0.496878 -0.002201
C56   C     C_R   0.558589 0.958366 0.550346 0.008609
C57   C     C_R   0.798505 0.797484 0.953779 0.256561
C58   C     C_R   0.437480 0.040869 0.447583 0.011227
C59   C     C_R   0.439619 0.957336 0.450120 0.001955
C60   C     C_R   0.556769 0.041158 0.546282 -0.001193
C61   C     C_R   0.057899 0.458817 0.550930 0.008178
C62   C     C_R   0.936005 0.541091 0.448580 0.012158
C63   C     C_R   0.938438 0.457511 0.451524 0.002588
C64   C     C_R   0.055098 0.541481 0.548322 -0.000633
C65   C     C_R   0.141558 0.748366 0.502851 0.509226
C66   C     C_R   0.857894 0.252017 0.495679 0.519981
C67   C     C_R   0.858839 0.749097 0.498318 0.521235
C68   C     C_R   0.209865 0.200135 0.046270 0.247832
C69   C     C_R   0.141634 0.251364 0.503317 0.531425
C70   C     C_R   0.640853 0.249365 0.501132 0.516620
C71   C     C_R   0.358820 0.750778 0.497687 0.535095
C72   C     C_R   0.358871 0.248795 0.498324 0.520410
C73   C     C_R   0.641581 0.751537 0.503184 0.528917
C74   C     C_R   0.498305 0.978705 0.500841 -0.134600
C75   C     C_R   0.497247 0.020266 0.499328 -0.135789
C76   C     C_R   0.997232 0.478976 0.501709 -0.135624
C77   C     C_R   0.995817 0.520498 0.500345 -0.136829
C78   C     C_R   0.617887 0.979179 0.595646 0.305494
C79   C     C_R   0.703971 0.298297 0.045319 0.266935
C80   C     C_R   0.378199 0.019413 0.397356 0.298686
C81   C     C_R   0.379691 0.977729 0.402010 0.269695
C82   C     C_R   0.615908 0.020510 0.597073 0.283355
C83   C     C_R   0.117142 0.479933 0.598936 0.301603
C84   C     C_R   0.876582 0.519682 0.399090 0.296280
C85   C     C_R   0.878287 0.477863 0.404353 0.264444
C86   C     C_R   0.113955 0.521256 0.601735 0.274582
C87   C     C_R   0.896387 0.751982 0.288299 0.570176
C88   C     C_R   0.104071 0.248096 0.711427 0.584018
C89   C     C_R   0.105249 0.750715 0.711952 0.607702
C90   C     C_R   0.297537 0.700252 0.962175 0.299126
C91   C     C_R   0.895688 0.249063 0.289010 0.598386
C92   C     C_R   0.396444 0.252106 0.288200 0.570652
C93   C     C_R   0.604461 0.748367 0.711622 0.581354
C94   C     C_R   0.605004 0.250841 0.711960 0.608475
C95   C     C_R   0.395561 0.749200 0.289021 0.599157
C96   C     C_R   0.366222 0.723963 0.165834 0.310846
C97   C     C_R   0.633205 0.274433 0.838078 0.334127
C98   C     C_R   0.629123 0.729958 0.838969 0.339762
C99   C     C_R   0.358721 0.282397 0.159837 0.354577
C100  C     C_R   0.865008 0.223188 0.165422 0.309807
C101  C     C_R   0.295413 0.297582 0.951816 0.250460
C102  C     C_R   0.133219 0.774075 0.837836 0.330632
C103  C     C_R   0.127812 0.229109 0.837995 0.346121
C104  C     C_R   0.859721 0.782185 0.160748 0.361320
C105  C     C_R   0.354227 0.749176 0.204917 0.057054
C106  C     C_R   0.647258 0.250782 0.797876 0.042927
C107  C     C_R   0.647738 0.747214 0.797132 0.058782
C108  C     C_R   0.354617 0.253170 0.202134 0.059403
C109  C     C_R   0.854109 0.248951 0.204848 0.059662
C110  C     C_R   0.147834 0.750817 0.797817 0.044720
C111  C     C_R   0.146784 0.246464 0.796665 0.061183
C112  C     C_R   0.002189 0.355193 0.501828 0.479208
C113  C     C_R   0.712622 0.699283 0.046717 0.246094
C114  C     C_R   0.854961 0.752988 0.202481 0.056820
C115  C     C_R   0.306806 0.777254 0.164572 0.315590
C116  C     C_R   0.699156 0.224860 0.838854 0.329222
C117  C     C_R   0.710480 0.761007 0.837033 0.322477
C118  C     C_R   0.318059 0.220370 0.162356 0.291044
C119  C     C_R   0.806550 0.276928 0.164648 0.317792
C120  C     C_R   0.201522 0.726181 0.839027 0.332139
C121  C     C_R   0.209832 0.259360 0.836959 0.306627
C122  C     C_R   0.820090 0.719755 0.162671 0.290185
C123  C     C_R   0.259293 0.774320 0.083918 -0.000840
C124  C     C_R   0.160850 0.799381 0.961455 0.302809
C125  C     C_R   0.738790 0.222602 0.920404 -0.005106
C126  C     C_R   0.748457 0.768722 0.916735 0.013251
C127  C     C_R   0.267101 0.222823 0.082651 0.012611
C128  C     C_R   0.758544 0.273764 0.084110 -0.000515
C129  C     C_R   0.241650 0.724270 0.920637 -0.001619
C130  C     C_R   0.246725 0.268048 0.915998 0.009849
C131  C     C_R   0.769490 0.722136 0.082972 0.013461
C132  C     C_R   0.268537 0.747274 0.042857 -0.140329
C133  C     C_R   0.725034 0.246822 0.961183 -0.151117
C134  C     C_R   0.733078 0.748197 0.959359 -0.136792
C135  C     C_R   0.831787 0.194685 0.043097 0.285601
C136  C     C_R   0.273472 0.249891 0.039516 -0.129582
C137  C     C_R   0.766911 0.246315 0.042850 -0.139051
C138  C     C_R   0.226847 0.747783 0.961205 -0.149952
C139  C     C_R   0.231134 0.248105 0.958744 -0.133218
C140  C     C_R   0.775634 0.749520 0.040132 -0.130226
C141  C     C_3   0.657721 0.744151 0.295174 -0.049901
C142  C     C_3   0.590739 0.725470 0.249662 -0.345294
C143  C     C_3   0.401594 0.206358 0.776817 0.018216
C144  C     C_3   0.453732 0.231504 0.785094 -0.369116
C145  C     C_3   0.334625 0.727374 0.706167 -0.030162
C146  C     C_R   0.836569 0.802355 0.036312 0.315501
C147  C     C_3   0.393359 0.702548 0.733336 -0.347889
C148  C     C_3   0.588673 0.226755 0.217050 0.012370
C149  C     C_3   0.542622 0.252418 0.219933 -0.380382
C150  C     C_3   0.152810 0.246847 0.293080 -0.045895
C151  C     C_3   0.085826 0.228961 0.253213 -0.338820
C152  C     C_3   0.910621 0.723498 0.780377 0.005698
C153  C     C_3   0.959484 0.746815 0.778533 -0.365125
C154  C     C_3   0.848270 0.241885 0.703312 -0.056046
C155  C     C_3   0.914164 0.223301 0.740182 -0.335303
C156  C     C_3   0.094045 0.701919 0.227210 0.016104
C157  C     C_R   0.160832 0.202973 0.963786 0.319542
C158  C     C_3   0.039483 0.723576 0.219760 -0.383969
C159  C     C_3   0.611397 0.812823 0.164819 0.026839
C160  C     C_3   0.564573 0.822386 0.081289 -0.386194
C161  C     C_3   0.366223 0.119500 0.817696 0.006790
C162  C     C_3   0.429045 0.122109 0.898902 -0.399380
C163  C     C_3   0.413602 0.799083 0.841123 0.032525
C164  C     C_3   0.465166 0.821839 0.910811 -0.389103
C165  C     C_3   0.609459 0.142918 0.153565 0.008435
C166  C     C_3   0.547011 0.147890 0.072455 -0.394697
C167  C     C_3   0.101406 0.325476 0.170742 0.032500
C168  C     C_R   0.660515 0.299275 0.961945 0.305406
C169  C     C_3   0.052497 0.341595 0.090566 -0.378979
C170  C     C_3   0.886778 0.640087 0.844210 0.006253
C171  C     C_3   0.950348 0.645655 0.924108 -0.396157
C172  C     C_3   0.904408 0.311641 0.835546 0.030642
C173  C     C_3   0.952632 0.321128 0.919424 -0.388950
C174  C     C_3   0.134206 0.619315 0.181905 0.010152
C175  C     C_3   0.071423 0.621758 0.100388 -0.403215
C176  C     C_3   0.603411 0.821230 0.377820 0.073601
C177  C     C_3   0.578592 0.854368 0.318739 -0.361852
C178  C     C_3   0.391537 0.172590 0.607949 0.042416
C179  C     C_R   0.335480 0.697005 0.043555 0.283413
C180  C     C_3   0.414521 0.134380 0.654620 -0.410453
C181  C     C_3   0.396968 0.817549 0.629182 0.057787
C182  C     C_3   0.416226 0.851221 0.685402 -0.384686
C183  C     C_3   0.602801 0.178684 0.376375 0.052526
C184  C     C_3   0.581802 0.144028 0.320784 -0.374557
C185  C     C_3   0.110761 0.324846 0.388913 0.067049
C186  C     C_3   0.091084 0.359688 0.334375 -0.359097
C187  C     C_3   0.890857 0.675784 0.615544 0.040662
C188  C     C_3   0.909476 0.640220 0.668889 -0.401255
C189  C     C_3   0.891320 0.325479 0.610638 0.065171
C190  C     C_R   0.333529 0.303127 0.034261 0.318792
C191  C     C_3   0.915098 0.360079 0.665953 -0.380349
C192  C     C_3   0.113780 0.669645 0.402812 0.052064
C193  C     C_3   0.092309 0.630894 0.358522 -0.373318
C194  C     C_3   0.371263 0.859781 0.393525 0.024381
C195  C     C_3   0.301100 0.849730 0.331379 -0.352492
C196  C     C_3   0.631061 0.137877 0.595505 0.019730
C197  C     C_3   0.703079 0.145388 0.652559 -0.353294
C198  C     C_3   0.633733 0.863824 0.600393 0.044413
C199  C     C_3   0.705144 0.855719 0.659389 -0.363592
C200  C     C_3   0.366958 0.137562 0.406864 0.035773
C201  C     C_R   0.662593 0.703220 0.964672 0.318501
C202  C     C_3   0.295638 0.147211 0.355554 -0.371810
C203  C     C_3   0.870882 0.359664 0.400346 0.027684
C204  C     C_3   0.800707 0.348599 0.341138 -0.357594
C205  C     C_3   0.129978 0.637021 0.604000 0.031442
C206  C     C_3   0.202169 0.644770 0.659850 -0.357058
C207  C     C_3   0.134322 0.367038 0.587432 0.047920
C208  C     C_3   0.206963 0.362832 0.638800 -0.346102
C209  C     C_3   0.865227 0.637349 0.408287 0.041399
C210  C     C_3   0.793980 0.647270 0.353282 -0.362993
C211  C     C_3   0.730527 0.972004 0.697511 0.046712
C212  C     C_R   0.504544 0.583880 0.447182 0.247134
C213  C     C_3   0.782836 0.941211 0.739098 -0.395208
C214  C     C_3   0.262499 0.024389 0.311214 0.030694
C215  C     C_3   0.207200 0.053010 0.265229 -0.406924
C216  C     C_3   0.296037 0.942651 0.385133 0.003501
C217  C     C_3   0.225234 0.931798 0.321117 -0.388704
C218  C     C_3   0.680365 0.052835 0.712129 -0.009965
C219  C     C_3   0.751181 0.061626 0.775922 -0.388603
C220  C     C_3   0.232262 0.476916 0.696878 0.042328
C221  C     C_3   0.289132 0.448977 0.741319 -0.396923
C222  C     C_3   0.760330 0.522895 0.304494 0.030782
C223  C     C_R   0.499257 0.144658 0.499088 0.466031
C224  C     C_R   0.489509 0.416862 0.546220 0.232913
C225  C     C_3   0.703670 0.550206 0.253469 -0.409060
C226  C     C_3   0.795495 0.443350 0.390720 0.004169
C227  C     C_3   0.725195 0.431025 0.327657 -0.385815
C228  C     C_3   0.169809 0.552534 0.718149 -0.013726
C229  C     C_3   0.237824 0.564918 0.785634 -0.384526
C230  C     C_3   0.177166 0.806735 0.126817 0.018958
C231  C     C_3   0.154408 0.838069 0.154533 -0.388220
C232  C     C_3   0.816743 0.144202 0.918790 0.039713
C233  C     C_3   0.852251 0.132774 0.887055 -0.364132
C234  C     C_3   0.817681 0.818051 0.867337 0.013434
C235  C     C_R   0.498490 0.582638 0.556560 0.256681
C236  C     C_3   0.850670 0.852716 0.861316 -0.446979
C237  C     C_3   0.237044 0.151649 0.135947 0.007721
C238  C     C_3   0.204186 0.119943 0.148045 -0.438952
C239  C     C_3   0.677278 0.306149 0.127913 0.024854
C240  C     C_3   0.655071 0.337437 0.156305 -0.387358
C241  C     C_3   0.322837 0.647540 0.920114 0.037788
C242  C     C_3   0.352327 0.636500 0.880935 -0.369072
C243  C     C_3   0.306224 0.316657 0.857360 0.015326
C244  C     C_3   0.338972 0.349600 0.847291 -0.441471
C245  C     C_3   0.741661 0.648891 0.133504 0.004537
C246  C     C_R   0.514016 0.417790 0.452717 0.257615
C247  C     C_3   0.710150 0.617181 0.147478 -0.434820
C248  C     C_3   0.091333 0.846615 0.956006 0.023878
C249  C     C_3   0.026863 0.866444 0.900064 -0.404094
C250  C     C_3   0.878085 0.137455 0.111449 0.021770
C251  C     C_3   0.934250 0.109538 0.140697 -0.378381
C252  C     C_3   0.911616 0.845708 0.045841 0.032868
C253  C     C_3   0.977274 0.862917 0.108995 -0.387619
C254  C     C_3   0.097879 0.151356 0.957745 0.036202
C255  C     C_3   0.043133 0.125337 0.897620 -0.395843
C256  C     C_3   0.591173 0.346196 0.957288 0.027068
C257  C     C_R   0.004185 0.083693 0.446034 0.235950
C258  C     C_3   0.527176 0.366468 0.901718 -0.402420
C259  C     C_3   0.383370 0.639683 0.110558 0.022676
C260  C     C_3   0.441306 0.613148 0.141198 -0.377400
C261  C     C_3   0.405162 0.348068 0.039789 0.029845
C262  C     C_3   0.468032 0.368807 0.099287 -0.395412
C263  C     C_3   0.597851 0.652443 0.957592 0.034423
C264  C     C_3   0.538145 0.629630 0.897246 -0.394598
C265  C     C_3   0.518480 0.641036 0.392985 0.012900
C266  C     C_3   0.531149 0.651845 0.336512 -0.342532
C267  C     C_3   0.485881 0.360503 0.611243 0.033253
C268  C     C_R   0.990741 0.917010 0.546581 0.230600
C269  C     C_3   0.475380 0.351025 0.670567 -0.296932
C270  C     C_3   0.489788 0.638837 0.617025 0.036121
C271  C     C_3   0.478720 0.647293 0.675698 -0.311129
C272  C     C_3   0.516767 0.361687 0.387028 0.062708
C273  C     C_3   0.527433 0.352811 0.327865 -0.291619
C274  C     C_3   0.014110 0.141133 0.388665 0.006721
C275  C     C_3   0.025864 0.152209 0.331536 -0.334335
C276  C     C_3   0.983974 0.860824 0.609490 0.035038
C277  C     C_3   0.973021 0.851622 0.668552 -0.297062
C278  C     C_3   0.967967 0.137192 0.597498 0.051804
C279  C     C_R   0.995993 0.082568 0.553473 0.260543
C280  C     C_3   0.948227 0.143704 0.648771 -0.312052
C281  C     C_3   0.021374 0.861261 0.390767 0.059777
C282  C     C_3   0.032870 0.852454 0.332381 -0.301479
C283  C     C_3   0.470264 0.526398 0.698660 0.042598
C284  C     C_3   0.455169 0.557252 0.734605 -0.391660
C285  C     C_3   0.536026 0.474384 0.305922 0.045567
C286  C     C_3   0.541100 0.442576 0.262395 -0.396527
C287  C     C_3   0.590167 0.555621 0.390085 0.004786
C288  C     C_3   0.596291 0.566948 0.327192 -0.384241
C289  C     C_3   0.540292 0.447918 0.719742 0.001582
C290  C     C_R   0.016889 0.917686 0.454660 0.262532
C291  C     C_3   0.528128 0.437666 0.777154 -0.383357
C292  C     C_3   0.981853 0.025752 0.707741 0.041839
C293  C     C_3   0.968764 0.056499 0.745703 -0.400145
C294  C     C_3   0.046266 0.974406 0.314015 0.045060
C295  C     C_3   0.054255 0.942900 0.272408 -0.395692
C296  C     C_3   0.091330 0.057255 0.391068 0.006077
C297  C     C_3   0.097312 0.068361 0.328022 -0.383047
C298  C     C_3   0.048831 0.946559 0.722355 -0.003602
C299  C     C_3   0.039590 0.935468 0.781938 -0.385708
C300  C     C_R   0.500410 0.602951 0.501342 0.001280
C301  C     C_R   0.500624 0.397328 0.498372 -0.003525
C302  C     C_R   0.999461 0.102880 0.499569 0.003796
C303  C     C_R   0.501683 0.855128 0.501355 0.469535
C304  C     C_R   0.001359 0.897324 0.498472 -0.002912
C305  C     C_R   0.496087 0.541131 0.553382 0.022989
C306  C     C_R   0.512653 0.459309 0.452452 0.025553
C307  C     C_R   0.511502 0.542500 0.452705 0.007381
C308  C     C_R   0.495388 0.458284 0.551393 0.008434
C309  C     C_R   0.997418 0.041169 0.553900 0.023797
C310  C     C_R   0.016017 0.959220 0.454495 0.024755
C311  C     C_R   0.012752 0.042396 0.452991 0.008100
C312  C     C_R   0.998453 0.958298 0.553018 0.006661
C313  C     C_R   0.504831 0.521002 0.503554 -0.128542
C314  C     C_R   0.323087 0.721931 0.084203 -0.006384
C315  C     C_R   0.504954 0.479599 0.502970 -0.129243
C316  C     C_R   0.006761 0.021008 0.504501 -0.127327
C317  C     C_R   0.007745 0.979537 0.504456 -0.130526
C318  C     C_R   0.485614 0.520093 0.601038 0.312986
C319  C     C_R   0.518805 0.480738 0.401170 0.314297
C320  C     C_R   0.522152 0.522095 0.405156 0.272613
C321  C     C_R   0.489425 0.478816 0.602894 0.277667
C322  C     C_R   0.990211 0.019920 0.604402 0.315902
C323  C     C_R   0.023388 0.980622 0.404146 0.313472
C324  C     C_R   0.024917 0.022062 0.406728 0.272728
C325  C     C_R   0.672354 0.273572 0.920394 0.014543
C326  C     C_R   0.994713 0.978684 0.606365 0.280966
C327  C     C_R   0.804917 0.863247 0.396966 -0.069491
C328  C     C_R   0.196123 0.132564 0.595535 -0.095692
C329  C     C_R   0.216938 0.855503 0.637318 -0.091964
C330  C     C_R   0.783672 0.141528 0.369632 -0.079844
C331  C     C_R   0.304931 0.363644 0.398701 -0.074150
C332  C     C_R   0.712018 0.639998 0.626297 -0.093555
C333  C     C_R   0.702293 0.360462 0.616074 -0.083539
C334  C     C_R   0.305404 0.633108 0.404176 -0.072918
C335  C     C_R   0.799800 0.838325 0.442764 0.344829
C336  C     C_R   0.674652 0.726518 0.920908 0.014863
C337  C     C_R   0.202977 0.161358 0.556385 0.310520
C338  C     C_R   0.214881 0.834501 0.581838 0.344692
C339  C     C_R   0.781024 0.166605 0.417166 0.335439
C340  C     C_R   0.300538 0.338134 0.444546 0.345664
C341  C     C_R   0.714429 0.664752 0.577888 0.320761
C342  C     C_R   0.704185 0.337556 0.565682 0.343490
C343  C     C_R   0.298781 0.660742 0.444835 0.325909
C344  C     C_R   0.000365 0.855393 0.498296 0.454526
C345  C     C_R   0.999825 0.144679 0.500724 0.460324
C346  C     C_R   0.500253 0.355403 0.498403 0.454088
C347  C     C_R   0.322952 0.278577 0.077962 0.015962
C348  C     C_R   0.499876 0.644746 0.501272 0.453080
C349  C     C_R   0.754859 0.807850 0.409195 0.080357
C350  C     C_R   0.246787 0.192120 0.596820 0.096942
C351  C     C_R   0.253479 0.801070 0.603537 0.068051
C352  C     C_R   0.742705 0.200409 0.386566 0.077745
C353  C     C_R   0.254881 0.308077 0.410802 0.072965
C354  C     C_R   0.754730 0.697651 0.607994 0.080836
C355  C     C_R   0.747979 0.306526 0.593980 0.077322
C356  C     C_R   0.253177 0.690861 0.405719 0.087336
C357  C     C_R   0.707005 0.805701 0.327996 0.162671
C358  C     C_R   0.820894 0.220586 0.083951 -0.003807
C359  C     C_R   0.292917 0.190198 0.678698 0.238816
C360  C     C_R   0.300606 0.791686 0.682268 0.158884
C361  C     C_R   0.695577 0.204541 0.305115 0.199722
C362  C     C_R   0.205577 0.307229 0.329405 0.159099
C363  C     C_R   0.803329 0.701304 0.689329 0.222456
C364  C     C_R   0.798701 0.302794 0.674411 0.169288
C365  C     C_R   0.204600 0.688644 0.324085 0.213970
C366  C     C_R   0.709438 0.833831 0.280818 0.292726
C367  C     C_R   0.288299 0.158770 0.718355 0.292064
C368  C     C_R   0.306692 0.815633 0.739325 0.304764
F1    F     F_    0.424052 0.705431 0.208091 -0.668804
F2    F     F_    0.709313 0.201031 0.797921 -0.640660
F3    F     F_    0.738292 0.756188 0.802422 -0.647164
F4    F     F_    0.349313 0.186061 0.192936 -0.665618
F5    F     F_    0.811252 0.308707 0.204700 -0.619259
F6    F     F_    0.212909 0.703168 0.798336 -0.646366
F7    F     F_    0.239307 0.251333 0.805111 -0.647249
F8    F     F_    0.853935 0.686107 0.191876 -0.664485
F9    F     F_    0.766421 0.885602 0.273217 -0.562444
F10   F     F_    0.226843 0.104778 0.712498 -0.617411
F11   F     F_    0.263980 0.866994 0.768904 -0.584480
F12   F     F_    0.580712 0.297893 0.795770 -0.643948
F13   F     F_    0.748363 0.123576 0.245235 -0.617466
F14   F     F_    0.265541 0.386734 0.274943 -0.564973
F15   F     F_    0.748144 0.622274 0.751334 -0.615126
F16   F     F_    0.745534 0.377997 0.743818 -0.585064
F17   F     F_    0.274022 0.607591 0.285830 -0.613555
F18   F     F_    0.840244 0.842531 0.520560 -0.647783
F19   F     F_    0.165713 0.160327 0.478256 -0.694105
F20   F     F_    0.172819 0.845011 0.506368 -0.639901
F21   F     F_    0.817794 0.159192 0.494059 -0.663449
F22   F     F_    0.342527 0.341479 0.522459 -0.646681
F23   F     F_    0.569163 0.714271 0.799107 -0.640617
F24   F     F_    0.675004 0.658133 0.500672 -0.680753
F25   F     F_    0.661707 0.344292 0.488662 -0.653884
F26   F     F_    0.338227 0.659373 0.523141 -0.670863
F27   F     F_    0.400275 0.312359 0.199221 -0.628564
F28   F     F_    0.922796 0.204741 0.206801 -0.673523
F29   F     F_    0.079596 0.796690 0.795249 -0.647734
F30   F     F_    0.068189 0.212742 0.797474 -0.633478
F31   F     F_    0.900866 0.812278 0.200599 -0.621796
F32   F     F_    0.311334 0.808968 0.204602 -0.625421
H1    H     H_    0.842730 0.885013 0.423735 0.195039
H2    H     H_    0.679510 0.737388 0.266228 0.129161
H3    H     H_    0.415495 0.789137 0.661157 0.190456
H4    H     H_    0.451015 0.840711 0.745851 0.106955
H5    H     H_    0.445310 0.873680 0.681794 0.119091
H6    H     H_    0.373706 0.865197 0.674957 0.177045
H7    H     H_    0.576639 0.205303 0.341649 0.152430
H8    H     H_    0.586619 0.168662 0.410700 0.214212
H9    H     H_    0.624161 0.130131 0.326681 0.166862
H10   H     H_    0.556192 0.120605 0.330829 0.153771
H11   H     H_    0.542870 0.154071 0.259430 0.101499
H12   H     H_    0.088139 0.332678 0.416260 0.189065
H13   H     H_    0.564209 0.729639 0.186599 0.153546
H14   H     H_    0.088895 0.298060 0.353067 0.191589
H15   H     H_    0.055281 0.349764 0.273575 0.118125
H16   H     H_    0.063300 0.381700 0.340928 0.126381
H17   H     H_    0.133077 0.373843 0.343238 0.181632
H18   H     H_    0.916245 0.701730 0.652027 0.163205
H19   H     H_    0.909132 0.667125 0.583598 0.196780
H20   H     H_    0.866308 0.625203 0.657078 0.169536
H21   H     H_    0.938589 0.618714 0.662773 0.112911
H22   H     H_    0.943965 0.649106 0.731106 0.088744
H23   H     H_    0.909370 0.333521 0.578026 0.188837
H24   H     H_    0.595497 0.693770 0.263096 0.114061
H25   H     H_    0.914575 0.298711 0.646950 0.201015
H26   H     H_    0.930620 0.350566 0.723679 0.139354
H27   H     H_    0.960085 0.372129 0.677358 0.108579
H28   H     H_    0.878969 0.384002 0.641732 0.170153
H29   H     H_    0.084582 0.692920 0.359469 0.172153
H30   H     H_    0.102887 0.664469 0.443431 0.210319
H31   H     H_    0.132193 0.609568 0.384463 0.184492
H32   H     H_    0.053423 0.617698 0.358722 0.147448
H33   H     H_    0.068579 0.634980 0.296368 0.099943
H34   H     H_    0.380792 0.858282 0.450438 0.126021
H35   H     H_    0.561367 0.738717 0.264926 0.194795
H36   H     H_    0.396052 0.836302 0.386591 0.190258
H37   H     H_    0.285231 0.863269 0.276443 0.238407
H38   H     H_    0.295340 0.817541 0.323738 0.129152
H39   H     H_    0.271287 0.859119 0.348414 0.111604
H40   H     H_    0.610376 0.144274 0.625810 0.141462
H41   H     H_    0.615129 0.158693 0.548231 0.175026
H42   H     H_    0.729721 0.128962 0.636826 0.190915
H43   H     H_    0.712317 0.177131 0.652682 0.117834
H44   H     H_    0.720065 0.137767 0.711290 0.155205
H45   H     H_    0.621858 0.864810 0.542196 0.152491
H46   H     H_    0.408981 0.176109 0.766866 0.122837
H47   H     H_    0.611424 0.838404 0.607217 0.148683
H48   H     H_    0.719865 0.861418 0.717842 0.166072
H49   H     H_    0.715066 0.824544 0.656494 0.119953
H50   H     H_    0.732610 0.873767 0.646888 0.169564
H51   H     H_    0.388165 0.162186 0.396215 0.161404
H52   H     H_    0.383124 0.136367 0.466650 0.129301
H53   H     H_    0.270163 0.129303 0.371145 0.149718
H54   H     H_    0.289542 0.178357 0.364042 0.092786
H55   H     H_    0.274845 0.143228 0.294591 0.155746
H56   H     H_    0.882151 0.359123 0.458179 0.118611
H57   H     H_    0.409335 0.207526 0.832502 0.191040
H58   H     H_    0.895348 0.336095 0.393037 0.186084
H59   H     H_    0.782898 0.360882 0.284599 0.227614
H60   H     H_    0.795825 0.316292 0.336075 0.124576
H61   H     H_    0.772111 0.358540 0.359558 0.122180
H62   H     H_    0.109404 0.640564 0.635391 0.139448
H63   H     H_    0.112583 0.660039 0.560064 0.157639
H64   H     H_    0.229863 0.622622 0.654451 0.193415
H65   H     H_    0.213238 0.674007 0.648578 0.106254
H66   H     H_    0.217120 0.645473 0.719280 0.164594
H67   H     H_    0.116757 0.370845 0.526895 0.142170
H68   H     H_    0.468856 0.255461 0.827000 0.152573
H69   H     H_    0.117101 0.339062 0.594650 0.140498
H70   H     H_    0.227265 0.368122 0.699587 0.166377
H71   H     H_    0.219778 0.332714 0.633992 0.118023
H72   H     H_    0.227120 0.383449 0.619780 0.175150
H73   H     H_    0.887593 0.662714 0.401405 0.153680
H74   H     H_    0.879303 0.635136 0.467325 0.136926
H75   H     H_    0.765253 0.625973 0.358175 0.156874
H76   H     H_    0.786392 0.676490 0.368321 0.093640
H77   H     H_    0.778029 0.648914 0.293645 0.148593
H78   H     H_    0.719153 0.979440 0.737002 0.136061
H79   H     H_    0.497174 0.213276 0.807460 0.104344
H80   H     H_    0.752470 0.996264 0.687329 0.198814
H81   H     H_    0.790808 0.928185 0.699531 0.171951
H82   H     H_    0.828796 0.954652 0.788413 0.083309
H83   H     H_    0.768804 0.919094 0.762784 0.153264
H84   H     H_    0.262385 0.015719 0.359503 0.126422
H85   H     H_    0.249646 0.001050 0.269026 0.203687
H86   H     H_    0.192487 0.056037 0.206348 0.136514
H87   H     H_    0.164617 0.041176 0.258530 0.082026
H88   H     H_    0.219982 0.081213 0.294893 0.167599
H89   H     H_    0.298327 0.963969 0.424565 0.085113
H90   H     H_    0.436287 0.244296 0.728753 0.187452
H91   H     H_    0.321968 0.916726 0.421310 0.167300
H92   H     H_    0.220723 0.916280 0.273729 0.168773
H93   H     H_    0.206737 0.912612 0.344352 0.115328
H94   H     H_    0.193960 0.958022 0.295467 0.108140
H95   H     H_    0.664911 0.030255 0.734356 0.091224
H96   H     H_    0.651821 0.079625 0.699789 0.161666
H97   H     H_    0.770935 0.080458 0.753785 0.165608
H98   H     H_    0.755081 0.076114 0.823363 0.093565
H99   H     H_    0.781079 0.034812 0.799693 0.115481
H100  H     H_    0.225671 0.486577 0.739466 0.154890
H101  H     H_    0.293059 0.716889 0.648357 0.147059
H102  H     H_    0.246598 0.500484 0.675294 0.196101
H103  H     H_    0.291126 0.430260 0.702075 0.168842
H104  H     H_    0.334726 0.465956 0.777041 0.088743
H105  H     H_    0.286213 0.431582 0.781462 0.136302
H106  H     H_    0.753382 0.512143 0.346061 0.140889
H107  H     H_    0.755510 0.500782 0.264401 0.203583
H108  H     H_    0.692937 0.553014 0.196589 0.132384
H109  H     H_    0.659822 0.537319 0.242371 0.084495
H110  H     H_    0.712525 0.578682 0.281212 0.166500
H111  H     H_    0.796577 0.465923 0.427584 0.090088
H112  H     H_    0.158974 0.110614 0.563610 0.138918
H113  H     H_    0.324147 0.724163 0.747916 0.173502
H114  H     H_    0.822739 0.418245 0.429234 0.165520
H115  H     H_    0.721549 0.414092 0.282162 0.169129
H116  H     H_    0.707254 0.412800 0.352703 0.119790
H117  H     H_    0.692681 0.456544 0.298563 0.109061
H118  H     H_    0.156067 0.527671 0.738229 0.103630
H119  H     H_    0.136441 0.577266 0.702125 0.151254
H120  H     H_    0.256376 0.585999 0.765456 0.164568
H121  H     H_    0.236742 0.578099 0.830647 0.094232
H122  H     H_    0.272044 0.540030 0.811914 0.118540
H123  H     H_    0.216092 0.789946 0.178222 0.198296
H124  H     H_    0.428932 0.703148 0.797530 0.150132
H125  H     H_    0.137075 0.785836 0.089060 0.086912
H126  H     H_    0.103174 0.845639 0.108288 0.106621
H127  H     H_    0.159565 0.827651 0.206081 0.115404
H128  H     H_    0.183098 0.865172 0.169968 0.176465
H129  H     H_    0.765996 0.133795 0.880347 0.143153
H130  H     H_    0.842310 0.129156 0.974792 0.141616
H131  H     H_    0.899841 0.147571 0.920232 0.173813
H132  H     H_    0.861193 0.100839 0.893181 0.075592
H133  H     H_    0.823763 0.141528 0.825495 0.154010
H134  H     H_    0.775463 0.813122 0.806788 0.232376
H135  H     H_    0.378416 0.671989 0.713006 0.114363
H136  H     H_    0.850744 0.792311 0.891287 0.166345
H137  H     H_    0.902670 0.853647 0.910974 0.112732
H138  H     H_    0.845797 0.850776 0.807335 0.121637
H139  H     H_    0.827393 0.879932 0.859788 0.168689
H140  H     H_    0.273840 0.162420 0.195178 0.231715
H141  H     H_    0.258786 0.138016 0.110647 0.182924
H142  H     H_    0.167822 0.104106 0.094138 0.124706
H143  H     H_    0.242879 0.099175 0.190161 0.166908
H144  H     H_    0.181471 0.132324 0.172785 0.150309
H145  H     H_    0.716314 0.289260 0.179083 0.204885
H146  H     H_    0.417970 0.714464 0.710239 0.209247
H147  H     H_    0.636999 0.285353 0.090198 0.095035
H148  H     H_    0.604044 0.345467 0.110088 0.105279
H149  H     H_    0.659805 0.326735 0.207432 0.128319
H150  H     H_    0.684451 0.364309 0.172597 0.177611
H151  H     H_    0.272939 0.636180 0.887301 0.134916
H152  H     H_    0.353569 0.633123 0.976829 0.147813
H153  H     H_    0.401235 0.649407 0.912726 0.163399
H154  H     H_    0.357213 0.604306 0.881566 0.074149
H155  H     H_    0.322254 0.647540 0.820775 0.158407
H156  H     H_    0.260198 0.312859 0.798314 0.225193
H157  H     H_    0.578301 0.196162 0.221973 0.131083
H158  H     H_    0.337693 0.290280 0.878109 0.186313
H159  H     H_    0.389255 0.353774 0.899836 0.120373
H160  H     H_    0.339276 0.343194 0.797914 0.121660
H161  H     H_    0.310863 0.376332 0.834598 0.164637
H162  H     H_    0.780545 0.658559 0.192785 0.235552
H163  H     H_    0.760578 0.635766 0.104533 0.175294
H164  H     H_    0.672695 0.601672 0.093549 0.123622
H165  H     H_    0.749131 0.596327 0.188955 0.168319
H166  H     H_    0.688887 0.629524 0.173988 0.152124
H167  H     H_    0.127635 0.870013 0.990989 0.197046
H168  H     H_    0.577146 0.231013 0.159382 0.179212
H169  H     H_    0.083802 0.827018 0.989675 0.143974
H170  H     H_    0.987550 0.844501 0.869851 0.150284
H171  H     H_    0.018574 0.886958 0.932297 0.088605
H172  H     H_    0.027246 0.882932 0.857594 0.162616
H173  H     H_    0.832029 0.122258 0.066879 0.084645
H174  H     H_    0.876632 0.143968 0.159757 0.206867
H175  H     H_    0.980170 0.126100 0.169960 0.168295
H176  H     H_    0.939163 0.088217 0.182393 0.145924
H177  H     H_    0.926606 0.093373 0.092094 0.119717
H178  H     H_    0.881321 0.869897 0.005203 0.195411
H179  H     H_    0.528945 0.278764 0.183399 0.142057
H180  H     H_    0.919473 0.822168 0.017823 0.119697
H181  H     H_    0.014192 0.839057 0.139821 0.139515
H182  H     H_    0.991294 0.883972 0.082484 0.083165
H183  H     H_    0.974730 0.878620 0.151639 0.180723
H184  H     H_    0.088314 0.159376 0.998747 0.191983
H185  H     H_    0.142668 0.133703 0.985291 0.143238
H186  H     H_    0.058539 0.110821 0.866740 0.152557
H187  H     H_    0.034427 0.102746 0.926808 0.084228
H188  H     H_    0.998198 0.142444 0.856907 0.170870
H189  H     H_    0.627439 0.369424 0.993477 0.197036
H190  H     H_    0.497532 0.235894 0.196941 0.125609
H191  H     H_    0.583087 0.325997 0.989768 0.142275
H192  H     H_    0.487722 0.344800 0.868351 0.157017
H193  H     H_    0.517931 0.385702 0.934640 0.085740
H194  H     H_    0.529425 0.384438 0.862230 0.161357
H195  H     H_    0.338508 0.623932 0.064584 0.078039
H196  H     H_    0.380056 0.644925 0.157793 0.207159
H197  H     H_    0.486653 0.630508 0.173779 0.168912
H198  H     H_    0.445000 0.590438 0.180088 0.138108
H199  H     H_    0.436684 0.598571 0.093065 0.118293
H200  H     H_    0.372130 0.370739 0.996882 0.200367
H201  H     H_    0.564946 0.261460 0.280038 0.173064
H202  H     H_    0.415354 0.324581 0.013752 0.122311
H203  H     H_    0.505232 0.347870 0.142767 0.149371
H204  H     H_    0.485440 0.383714 0.070053 0.081439
H205  H     H_    0.459220 0.391133 0.127985 0.167357
H206  H     H_    0.593095 0.659529 0.003115 0.193202
H207  H     H_    0.640016 0.633201 0.979070 0.142080
H208  H     H_    0.541794 0.621556 0.851567 0.159387
H209  H     H_    0.535750 0.602807 0.924216 0.085307
H210  H     H_    0.494032 0.647413 0.872403 0.152877
H211  H     H_    0.565064 0.644583 0.451220 0.192198
H212  H     H_    0.185937 0.232619 0.350253 0.143262
H213  H     H_    0.481353 0.662519 0.379099 0.184674
H214  H     H_    0.490905 0.641551 0.278565 0.202934
H215  H     H_    0.534171 0.684141 0.334584 0.164201
H216  H     H_    0.578187 0.640469 0.355621 0.163889
H217  H     H_    0.538149 0.357021 0.640115 0.147506
H218  H     H_    0.455799 0.338474 0.565860 0.204620
H219  H     H_    0.431944 0.365961 0.656486 0.222641
H220  H     H_    0.468371 0.319012 0.671001 0.171513
H221  H     H_    0.518731 0.359119 0.728978 0.182203
H222  H     H_    0.444002 0.646283 0.559840 0.191956
H223  H     H_    0.183707 0.879483 0.619658 0.173605
H224  H     H_    0.169284 0.240744 0.257976 0.143537
H225  H     H_    0.530993 0.658049 0.634923 0.170399
H226  H     H_    0.521233 0.637913 0.733837 0.185101
H227  H     H_    0.473052 0.679291 0.677241 0.162435
H228  H     H_    0.434216 0.632658 0.659442 0.193090
H229  H     H_    0.464692 0.357606 0.358494 0.174331
H230  H     H_    0.547818 0.340347 0.433859 0.193835
H231  H     H_    0.575789 0.362849 0.348399 0.200584
H232  H     H_    0.525123 0.320825 0.319270 0.137164
H233  H     H_    0.489475 0.366875 0.271837 0.199729
H234  H     H_    0.060508 0.146017 0.446431 0.181145
H235  H     H_    0.054865 0.234066 0.189791 0.155847
H236  H     H_    0.975399 0.161542 0.373731 0.186605
H237  H     H_    0.985010 0.142406 0.273690 0.203022
H238  H     H_    0.029767 0.184481 0.330896 0.171552
H239  H     H_    0.071945 0.140442 0.348605 0.177352
H240  H     H_    0.035996 0.856254 0.638275 0.143389
H241  H     H_    0.952676 0.839461 0.563172 0.205699
H242  H     H_    0.930897 0.867781 0.655649 0.222728
H243  H     H_    0.963687 0.819831 0.667238 0.162779
H244  H     H_    0.017041 0.858423 0.727363 0.180930
H245  H     H_    0.922447 0.137668 0.536616 0.196424
H246  H     H_    0.090180 0.197125 0.264867 0.121732
H247  H     H_    0.001672 0.161987 0.612121 0.155288
H248  H     H_    0.991480 0.141641 0.710741 0.181837
H249  H     H_    0.928191 0.173959 0.638320 0.146843
H250  H     H_    0.909857 0.122354 0.634318 0.193395
H251  H     H_    0.969026 0.857223 0.361187 0.172859
H252  H     H_    0.052372 0.839902 0.437850 0.195479
H253  H     H_    0.083156 0.860249 0.356225 0.192626
H254  H     H_    0.026420 0.820656 0.319905 0.142514
H255  H     H_    0.997624 0.868690 0.277652 0.193433
H256  H     H_    0.521498 0.518491 0.744597 0.139148
H257  H     H_    0.060857 0.242042 0.274701 0.190571
H258  H     H_    0.434835 0.502730 0.681029 0.196172
H259  H     H_    0.407776 0.571142 0.690181 0.179083
H260  H     H_    0.453952 0.543993 0.780058 0.082992
H261  H     H_    0.493879 0.579253 0.761676 0.145646
H262  H     H_    0.585917 0.484513 0.349580 0.135830
H263  H     H_    0.502949 0.496742 0.261937 0.191353
H264  H     H_    0.495434 0.426146 0.228548 0.176526
H265  H     H_    0.549096 0.455636 0.222404 0.079128
H266  H     H_    0.582178 0.422902 0.303409 0.153052
H267  H     H_    0.627034 0.533067 0.428102 0.092144
H268  H     H_    0.921652 0.692346 0.781463 0.126499
H269  H     H_    0.602046 0.581245 0.427293 0.190944
H270  H     H_    0.557751 0.587670 0.285854 0.152987
H271  H     H_    0.643743 0.580855 0.353294 0.121125
H272  H     H_    0.590565 0.541346 0.292809 0.111856
H273  H     H_    0.576626 0.471765 0.744181 0.109546
H274  H     H_    0.561821 0.422207 0.712704 0.177227
H275  H     H_    0.491344 0.414341 0.752730 0.159336
H276  H     H_    0.574310 0.428577 0.832929 0.127581
H277  H     H_    0.507084 0.462407 0.787228 0.116345
H278  H     H_    0.033812 0.018335 0.750925 0.139996
H279  H     H_    0.918573 0.730515 0.835012 0.187476
H280  H     H_    0.947818 0.001655 0.693661 0.198678
H281  H     H_    0.917607 0.066141 0.706015 0.161649
H282  H     H_    0.978954 0.044715 0.799541 0.085625
H283  H     H_    0.000931 0.081340 0.759974 0.168264
H284  H     H_    0.095597 0.984859 0.359771 0.133703
H285  H     H_    0.013805 0.996479 0.268886 0.191597
H286  H     H_    0.006833 0.928457 0.231043 0.166225
H287  H     H_    0.069585 0.956208 0.239280 0.078572
H288  H     H_    0.091706 0.921583 0.314981 0.162404
H289  H     H_    0.129831 0.035894 0.431119 0.090573
H290  H     H_    0.979773 0.771248 0.820388 0.164988
H291  H     H_    0.100935 0.083350 0.426279 0.188977
H292  H     H_    0.056181 0.086983 0.283687 0.154534
H293  H     H_    0.142996 0.084486 0.353340 0.125764
H294  H     H_    0.095606 0.042264 0.297191 0.108721
H295  H     H_    0.085804 0.970004 0.746553 0.112569
H296  H     H_    0.067910 0.920866 0.711634 0.174722
H297  H     H_    0.997271 0.915899 0.754636 0.164590
H298  H     H_    0.084016 0.921224 0.832454 0.139012
H299  H     H_    0.027783 0.961192 0.801357 0.113169
H300  H     H_    0.000518 0.727625 0.795424 0.117238
H301  H     H_    0.937167 0.758639 0.719924 0.191277
H302  H     H_    0.813663 0.228927 0.645311 0.145466
H303  H     H_    0.817457 0.117465 0.394442 0.171179
H304  H     H_    0.832891 0.234828 0.739335 0.150315
H305  H     H_    0.948093 0.229508 0.803239 0.171638
H306  H     H_    0.908563 0.191211 0.731407 0.108500
H307  H     H_    0.936036 0.234951 0.713603 0.204966
H308  H     H_    0.089562 0.670677 0.235738 0.132551
H309  H     H_    0.086253 0.705435 0.171733 0.184792
H310  H     H_    0.012920 0.742811 0.167879 0.130757
H311  H     H_    0.003988 0.702237 0.212428 0.135973
H312  H     H_    0.058197 0.741505 0.271560 0.184047
H313  H     H_    0.582738 0.816758 0.186007 0.182022
H314  H     H_    0.343253 0.385113 0.425739 0.197121
H315  H     H_    0.627472 0.782086 0.168887 0.158772
H316  H     H_    0.590183 0.824035 0.055647 0.187106
H317  H     H_    0.528835 0.797956 0.055468 0.101787
H318  H     H_    0.539687 0.850653 0.072462 0.166334
H319  H     H_    0.378363 0.112367 0.778406 0.090053
H320  H     H_    0.338050 0.095089 0.817012 0.223651
H321  H     H_    0.418423 0.127781 0.939760 0.178525
H322  H     H_    0.456183 0.094239 0.914894 0.112936
H323  H     H_    0.459170 0.146010 0.902274 0.126993
H324  H     H_    0.422004 0.805802 0.799071 0.170317
H325  H     H_    0.676906 0.616674 0.602026 0.156176
H326  H     H_    0.420718 0.767411 0.854970 0.177546
H327  H     H_    0.450780 0.825607 0.948585 0.200299
H328  H     H_    0.510702 0.804865 0.938352 0.105841
H329  H     H_    0.472409 0.851202 0.895276 0.149693
H330  H     H_    0.596619 0.135637 0.192270 0.093193
H331  H     H_    0.635188 0.117563 0.152503 0.221059
H332  H     H_    0.557578 0.151331 0.030877 0.160227
H333  H     H_    0.517749 0.121148 0.058209 0.108391
H334  H     H_    0.519166 0.173503 0.068278 0.143094
H335  H     H_    0.085897 0.336522 0.204480 0.165533
H336  H     H_    0.665004 0.382491 0.593249 0.176006
H337  H     H_    0.098965 0.293103 0.165648 0.175126
H338  H     H_    0.068060 0.334069 0.054886 0.177230
H339  H     H_    0.005881 0.326917 0.069129 0.098125
H340  H     H_    0.045291 0.373787 0.089826 0.171320
H341  H     H_    0.898146 0.630552 0.805205 0.083590
H342  H     H_    0.860624 0.616199 0.848581 0.221888
H343  H     H_    0.941375 0.652660 0.966066 0.171336
H344  H     H_    0.977681 0.617847 0.941317 0.102715
H345  H     H_    0.979569 0.669181 0.924418 0.132790
H346  H     H_    0.924045 0.323350 0.806802 0.168311
H347  H     H_    0.343977 0.611841 0.434962 0.173565
H348  H     H_    0.900188 0.279516 0.833208 0.175398
H349  H     H_    0.930165 0.313637 0.947560 0.190078
H350  H     H_    0.996215 0.302688 0.943969 0.102887
H351  H     H_    0.966006 0.352753 0.927260 0.164259
H352  H     H_    0.122342 0.609960 0.220627 0.103811
H353  H     H_    0.164161 0.596472 0.182174 0.227259
H354  H     H_    0.081784 0.629703 0.059953 0.166531
H355  H     H_    0.046466 0.593059 0.083319 0.117646
H356  H     H_    0.039244 0.643973 0.097150 0.133479
H357  H     H_    0.582037 0.830540 0.406007 0.196353
H358  H     H_    0.687370 0.730599 0.353249 0.143909
H359  H     H_    0.582946 0.793310 0.345683 0.185151
H360  H     H_    0.582812 0.847413 0.271747 0.168061
H361  H     H_    0.524738 0.857736 0.288758 0.123836
H362  H     H_    0.602804 0.883154 0.348029 0.173884
H363  H     H_    0.421066 0.196554 0.648824 0.169448
H364  H     H_    0.400867 0.166119 0.566570 0.196859
H365  H     H_    0.375829 0.112123 0.628081 0.169318
H366  H     H_    0.455091 0.122123 0.656741 0.108808
H367  H     H_    0.436496 0.138786 0.716076 0.103451
H368  H     H_    0.424290 0.825983 0.607863 0.202397
O1    O     O_3   0.000000 0.750000 0.500000 -0.455323
O2    O     O_R   0.507420 0.837440 0.454120 -0.575746
O3    O     O_3   0.699227 0.680618 0.092020 -0.600076
O4    O     O_3   0.108330 0.825183 0.916185 -0.498628
O5    O     O_3   0.886957 0.171747 0.082344 -0.501024
O6    O     O_3   0.882764 0.831722 0.078586 -0.482434
O7    O     O_3   0.099711 0.185509 0.922947 -0.493542
O8    O     O_3   0.608717 0.325585 0.917183 -0.493809
O9    O     O_3   0.391589 0.674930 0.083200 -0.500331
O10   O     O_3   0.378993 0.333083 0.075210 -0.482844
O11   O     O_3   0.600506 0.687250 0.924886 -0.492735
O12   O     O_3   0.492939 0.602687 0.381847 -0.505956
O13   O     O_R   0.507420 0.162560 0.454120 -0.548690
O14   O     O_3   0.462905 0.398435 0.578877 -0.503015
O15   O     O_3   0.507810 0.599510 0.621344 -0.512115
O16   O     O_3   0.537896 0.400174 0.416546 -0.501752
O17   O     O_3   0.991590 0.102105 0.379810 -0.512353
O18   O     O_3   0.963180 0.899201 0.578626 -0.502127
O19   O     O_3   0.002437 0.100733 0.615545 -0.502124
O20   O     O_3   0.042229 0.899950 0.420229 -0.495171
O21   O     O_3   0.461532 0.541801 0.633101 -0.497459
O22   O     O_3   0.509230 0.459120 0.340349 -0.493205
O23   O     O_3   0.526118 0.542888 0.353673 -0.529699
O24   O     O_R   0.492580 0.837440 0.545880 -0.578053
O25   O     O_3   0.480028 0.458031 0.649263 -0.526281
O26   O     O_3   0.968169 0.041032 0.639218 -0.500205
O27   O     O_3   0.016688 0.958909 0.345005 -0.492136
O28   O     O_3   0.028142 0.042822 0.354680 -0.530098
O29   O     O_3   0.987649 0.957808 0.654552 -0.528633
O30   O     O_R   0.053270 0.837440 0.545830 -0.565110
O31   O     O_R   0.946730 0.162560 0.454170 -0.567473
O32   O     O_R   0.946730 0.837440 0.454170 -0.559728
O33   O     O_R   0.053270 0.162560 0.545830 -0.550694
O34   O     O_R   0.553270 0.337440 0.545830 -0.569207
O35   O     O_R   0.446730 0.662560 0.454170 -0.552992
O36   O     O_R   0.446730 0.337440 0.454170 -0.558069
O37   O     O_3   0.000000 0.250000 0.500000 -0.463076
O38   O     O_R   0.553270 0.662560 0.545830 -0.569547
O39   O     O_R   0.092900 0.727070 0.454160 -0.592914
O40   O     O_R   0.907100 0.272930 0.545840 -0.587417
O41   O     O_R   0.907100 0.727070 0.545840 -0.575536
O42   O     O_R   0.092900 0.272930 0.454160 -0.588985
O43   O     O_R   0.592900 0.227070 0.454160 -0.586517
O44   O     O_R   0.407100 0.772930 0.545840 -0.570735
O45   O     O_R   0.407100 0.227070 0.545840 -0.583066
O46   O     O_R   0.592900 0.772930 0.454160 -0.589086
O47   O     O_R   0.861280 0.772920 0.454160 -0.556690
O48   O     O_3   0.500000 0.250000 0.500000 -0.455466
O49   O     O_R   0.138720 0.227080 0.545840 -0.535687
O50   O     O_R   0.138720 0.772920 0.545840 -0.538065
O51   O     O_R   0.861280 0.227080 0.454160 -0.538567
O52   O     O_R   0.361280 0.272920 0.454160 -0.549481
O53   O     O_R   0.638720 0.727080 0.545840 -0.527292
O54   O     O_R   0.638720 0.272920 0.545840 -0.545801
O55   O     O_R   0.361280 0.727080 0.454160 -0.547512
O56   O     O_R   0.942960 0.727070 0.325140 -0.497522
O57   O     O_R   0.057040 0.272930 0.674860 -0.548055
O58   O     O_R   0.057040 0.727070 0.674860 -0.547284
O59   O     O_3   0.500000 0.750000 0.500000 -0.463248
O60   O     O_R   0.942960 0.272930 0.325140 -0.510762
O61   O     O_R   0.442960 0.227070 0.325140 -0.503496
O62   O     O_R   0.557040 0.772930 0.674860 -0.549627
O63   O     O_R   0.557040 0.227070 0.674860 -0.542251
O64   O     O_R   0.442960 0.772930 0.325140 -0.514795
O65   O     O_R   0.882220 0.772920 0.325130 -0.539617
O66   O     O_R   0.117780 0.227080 0.674870 -0.479263
O67   O     O_R   0.117780 0.772920 0.674870 -0.515783
O68   O     O_R   0.882220 0.227080 0.325130 -0.547652
O69   O     O_R   0.382220 0.272920 0.325130 -0.537408
O70   O     O_R   0.992580 0.662560 0.545880 -0.606761
O71   O     O_R   0.617780 0.727080 0.674870 -0.489947
O72   O     O_R   0.617780 0.272920 0.674870 -0.516764
O73   O     O_R   0.382220 0.727080 0.325130 -0.544963
O74   O     O_3   0.650975 0.784681 0.299230 -0.608674
O75   O     O_3   0.338782 0.220231 0.716273 -0.541222
O76   O     O_3   0.349406 0.766118 0.701872 -0.613694
O77   O     O_3   0.654247 0.236917 0.276569 -0.563902
O78   O     O_3   0.148517 0.287349 0.300369 -0.610548
O79   O     O_3   0.846139 0.732950 0.716276 -0.551132
O80   O     O_3   0.854028 0.282486 0.698321 -0.609075
O81   O     O_R   0.007420 0.337440 0.454120 -0.576879
O82   O     O_3   0.155598 0.717025 0.288367 -0.561925
O83   O     O_3   0.664414 0.838882 0.200736 -0.496032
O84   O     O_3   0.332075 0.155225 0.798122 -0.518154
O85   O     O_3   0.352384 0.810054 0.818608 -0.494773
O86   O     O_3   0.647233 0.177344 0.176787 -0.546074
O87   O     O_3   0.164381 0.338224 0.201724 -0.495632
O88   O     O_3   0.850283 0.675145 0.818538 -0.517652
O89   O     O_3   0.844729 0.328763 0.806637 -0.499823
O90   O     O_3   0.165811 0.656031 0.202950 -0.548817
O91   O     O_3   0.671662 0.819970 0.438549 -0.537658
O92   O     O_R   0.007420 0.662560 0.454120 -0.550612
O93   O     O_3   0.323803 0.179465 0.561272 -0.564712
O94   O     O_3   0.330196 0.816599 0.562522 -0.550250
O95   O     O_3   0.672006 0.183785 0.432847 -0.539282
O96   O     O_3   0.178356 0.321180 0.451047 -0.548581
O97   O     O_3   0.823081 0.681475 0.557632 -0.555823
O98   O     O_3   0.822963 0.322182 0.553315 -0.552482
O99   O     O_3   0.181388 0.677090 0.450260 -0.554317
O100  O     O_3   0.387907 0.896729 0.379871 -0.495762
O101  O     O_3   0.617362 0.099300 0.565761 -0.506123
O102  O     O_3   0.615880 0.898729 0.617923 -0.518487
O103  O     O_R   0.992580 0.337440 0.545880 -0.580438
O104  O     O_3   0.380337 0.102012 0.386248 -0.492063
O105  O     O_3   0.885567 0.396430 0.383610 -0.494551
O106  O     O_3   0.115849 0.599762 0.568519 -0.511277
O107  O     O_3   0.115640 0.398213 0.612513 -0.511240
O108  O     O_3   0.879797 0.602635 0.386544 -0.494028
O109  O     O_3   0.675014 0.958159 0.625999 -0.503333
O110  O     O_3   0.322761 0.040950 0.339261 -0.491385
O111  O     O_3   0.323801 0.956376 0.350327 -0.522295
O112  O     O_3   0.672947 0.041023 0.645336 -0.523691
O113  O     O_3   0.175194 0.458660 0.634120 -0.511181
O114  O     O_R   0.492580 0.162560 0.545880 -0.606404
O115  O     O_3   0.820627 0.541947 0.344513 -0.502840
O116  O     O_3   0.822391 0.456170 0.354469 -0.529634
O117  O     O_3   0.169053 0.542576 0.655066 -0.541496
O118  O     O_3   0.198848 0.825180 0.088243 -0.526355
O119  O     O_3   0.818717 0.185143 0.925245 -0.476688
O120  O     O_3   0.795466 0.828236 0.909864 -0.579252
O121  O     O_3   0.194672 0.182828 0.090956 -0.595146
O122  O     O_3   0.698638 0.324670 0.089054 -0.528604
O123  O     O_3   0.323413 0.688480 0.925933 -0.472196
O124  O     O_3   0.291485 0.328028 0.906815 -0.586708
Zn1   Zn    Zn3+2 0.076130 0.782750 0.565500 0.938652
Zn2   Zn    Zn3+2 0.989350 0.282750 0.565490 0.887230
Zn3   Zn    Zn3+2 0.989350 0.717250 0.565490 0.875973
Zn4   Zn    Zn3+2 0.010650 0.282750 0.434510 0.903274
Zn5   Zn    Zn3+2 0.510650 0.217250 0.434510 0.909363
Zn6   Zn    Zn3+2 0.489350 0.782750 0.565490 0.889729
Zn7   Zn    Zn3+2 0.489350 0.217250 0.565490 0.877778
Zn8   Zn    Zn3+2 0.510650 0.782750 0.434510 0.900191
Zn9   Zn    Zn3+2 0.923870 0.217250 0.434500 0.926556
Zn10  Zn    Zn3+2 0.923870 0.782750 0.434500 0.925094
Zn11  Zn    Zn3+2 0.076130 0.217250 0.565500 0.967667
Zn12  Zn    Zn3+2 0.576130 0.282750 0.565500 0.936191
Zn13  Zn    Zn3+2 0.423870 0.717250 0.434500 0.932491
Zn14  Zn    Zn3+2 0.423870 0.282750 0.434500 0.928966
Zn15  Zn    Zn3+2 0.576130 0.717250 0.565500 0.953088
Zn16  Zn    Zn3+2 0.010650 0.717250 0.434510 0.908926

loop_
_geom_bond_atom_site_label_1
_geom_bond_atom_site_label_2
_ccdc_geom_bond_type
C164  H329  S    
C264  H209  S    
C133  C137  A    
C213  H83   S    
C163  H324  S    
C285  H263  S    
C94   O63   A    
C64   C77   A    
C7    O90   S    
C62   C77   A    
C156  H309  S    
C206  H65   S    
C240  H150  S    
C248  H169  S    
C9    F10   S    
C104  F31   S    
C182  H5    S    
C149  H179  S    
C31   C67   S    
C163  O85   S    
C153  H300  S    
C340  F22   S    
C141  H2    S    
C340  C353  A    
C13   C139  A    
C226  H111  S    
C143  H57   S    
C201  C336  A    
C198  H47   S    
C345  O31   A    
C84   O115  S    
C241  H151  S    
C185  H12   S    
C262  H204  S    
C167  H337  S    
C177  H360  S    
C63   C76   A    
C143  C144  S    
C245  H162  S    
C166  H333  S    
C250  H173  S    
C359  C367  A    
C274  C275  S    
C132  C314  A    
O41   Zn3   S    
C115  F32   S    
C205  O106  S    
C208  H70   S    
C131  C140  A    
C342  F25   S    
C160  H317  S    
C171  H344  S    
C44   C53   A    
C188  H22   S    
C172  O89   S    
C48   O105  S    
C45   C56   A    
C295  H288  S    
C189  H23   S    
C196  H41   S    
C70   O43   A    
C169  H339  S    
C294  H284  S    
C49   O106  S    
C113  C201  A    
C298  H295  S    
C4    C12   A    
C263  H207  S    
C117  C126  A    
C144  H90   S    
C47   C53   A    
C101  C130  A    
C266  H216  S    
O49   Zn11  S    
C100  C109  A    
C61   C76   A    
C244  H161  S    
C63   C85   A    
C249  H172  S    
C261  H200  S    
C15   C333  A    
C348  O38   A    
C234  C236  S    
C346  O34   A    
C197  H42   S    
C275  H239  S    
C228  C229  S    
C291  H277  S    
C99   C347  A    
C78   O109  S    
C175  H356  S    
C277  H242  S    
C298  O29   S    
C115  C123  A    
C224  C301  A    
C365  O82   S    
C2    C138  A    
C59   C81   A    
C127  C136  A    
C74   C75   A    
O57   Zn2   S    
C173  H350  S    
C243  H156  S    
C35   O118  S    
C321  O25   S    
C310  C323  A    
C212  C300  A    
C282  H254  S    
C142  H24   S    
O47   Zn10  S    
C37   C356  S    
C24   C140  A    
C318  O21   S    
C316  C317  A    
C288  H272  S    
C135  C358  A    
C9    C367  A    
C183  C184  S    
C250  O5    S    
C155  H305  S    
C181  H368  S    
C108  C118  A    
C207  O107  S    
C90   O123  S    
C78   C82   A    
C297  H292  S    
C178  C180  S    
O34   Zn12  S    
C276  H241  S    
C185  H14   S    
C237  H141  S    
C226  H114  S    
C241  H152  S    
C141  H358  S    
C209  O108  S    
C54   C112  S    
C186  H16   S    
C205  H62   S    
C148  C149  S    
C168  O8    S    
C352  C361  A    
C154  C155  S    
C268  C312  A    
C193  H33   S    
C215  H87   S    
C209  H74   S    
C294  O27   S    
C296  C297  S    
C281  H251  S    
C350  C359  A    
C135  O5    S    
C281  O20   S    
C94   O72   A    
C129  C138  A    
O37   Zn9   S    
C28   C71   S    
C53   C223  S    
C298  C299  S    
C251  H175  S    
C233  H131  S    
C97   C325  A    
C207  H69   S    
C30   C69   S    
C287  O23   S    
C237  H140  S    
C154  H304  S    
C153  H290  S    
C35   C124  A    
C144  H79   S    
C100  F28   S    
C318  C321  A    
C259  H196  S    
C271  H228  S    
C186  H17   S    
C257  O17   S    
C332  H325  S    
C198  H45   S    
C225  H110  S    
C231  H127  S    
C91   O60   A    
C335  C349  A    
C225  H108  S    
C214  H84   S    
C152  O79   S    
C134  C336  A    
C45   C52   A    
C190  C347  A    
C156  C158  S    
C208  H72   S    
C72   O45   A    
C235  C305  A    
C3    O86   S    
C335  F18   S    
O72   Zn12  S    
C236  H139  S    
C218  H95   S    
C295  H286  S    
C170  H342  S    
C217  H92   S    
C267  O14   S    
C228  H118  S    
C51   C55   A    
C243  H158  S    
C187  O97   S    
C289  O25   S    
C339  F21   S    
C3    C11   A    
C165  H331  S    
C145  H113  S    
C143  O75   S    
C232  H130  S    
C181  H3    S    
C83   C86   A    
C178  H364  S    
C92   O69   A    
C126  C134  A    
C200  C202  S    
C252  H178  S    
C179  C314  A    
O13   Zn5   S    
C251  H177  S    
C24   C146  A    
C255  H187  S    
C275  H237  S    
C291  H275  S    
C14   F15   S    
C243  C244  S    
C252  C253  S    
C175  H354  S    
C289  H273  S    
C308  C321  A    
C178  O93   S    
C362  O78   S    
C174  O90   S    
C344  O30   A    
C123  C132  A    
C212  C307  A    
C296  H291  S    
C333  H336  S    
C121  C130  A    
C262  H205  S    
C234  H134  S    
C267  H218  S    
C100  C358  A    
C283  H256  S    
C167  C169  S    
C303  O24   A    
C361  O77   S    
C99   C108  A    
C79   C128  A    
C33   C42   A    
C345  O33   A    
O68   Zn9   S    
C156  H308  S    
O1    Zn1   S    
C253  H182  S    
C1    O92   A    
C246  O16   S    
C15   F16   S    
C259  H195  S    
C261  C262  S    
C334  H347  S    
C113  O3    S    
C96   F1    S    
C258  H194  S    
C150  H212  S    
C193  H32   S    
C2    C102  A    
C142  H13   S    
C235  O15   S    
C103  F30   S    
C360  O76   S    
C144  H68   S    
C56   C78   A    
C241  C242  S    
C220  O113  S    
C229  H120  S    
C242  H154  S    
C65   O39   A    
C174  C175  S    
C284  H259  S    
C341  C354  A    
C21   O96   S    
C31   C40   A    
C88   C111  S    
C194  H36   S    
C92   C108  S    
C313  C315  A    
C246  C301  A    
C38   C355  S    
C191  H26   S    
C230  O118  S    
C29   C38   A    
C147  H135  S    
O38   Zn15  S    
O37   Zn11  S    
C47   O104  S    
C221  H104  S    
O63   Zn7   S    
C233  H133  S    
C151  H235  S    
C189  O98   S    
C19   C42   A    
C167  O87   S    
C230  H123  S    
C154  H302  S    
O58   Zn3   S    
C49   C64   A    
C272  H229  S    
C52   C303  S    
C230  C231  S    
C51   C62   A    
C95   O64   A    
C283  H258  S    
C311  C324  A    
C211  H80   S    
C348  O35   A    
C13   C157  A    
C220  C221  S    
C265  O12   S    
C46   O119  S    
C209  C210  S    
C86   O117  S    
C16   C334  A    
C164  H327  S    
C22   C34   A    
C276  O18   S    
C269  H219  S    
C199  H49   S    
C45   O102  S    
C244  H160  S    
C120  C129  A    
O43   Zn5   S    
C239  H147  S    
C80   O110  S    
C330  H303  S    
C285  O22   S    
C367  O84   S    
C272  C273  S    
C133  C325  A    
C162  H322  S    
C222  C225  S    
C49   C55   A    
C216  O111  S    
C224  O14   S    
C89   C110  S    
C312  C317  A    
C3    C361  A    
C238  H143  S    
C215  H88   S    
C67   O47   A    
C184  H9    S    
C324  O28   S    
C176  O91   S    
C197  H44   S    
C200  H52   S    
C204  H60   S    
C183  H7    S    
C309  C322  A    
C308  C315  A    
C174  H352  S    
C95   O73   A    
C66   O51   A    
C83   O113  S    
C363  O79   S    
C266  H214  S    
C229  H122  S    
C232  O119  S    
C177  H361  S    
C252  H180  S    
C158  H311  S    
O48   Zn7   S    
O50   Zn1   S    
C190  O10   S    
C239  O122  S    
C19   C28   A    
C220  H100  S    
C191  H28   S    
O37   Zn2   S    
C122  F8    S    
C195  H38   S    
C333  C342  A    
C276  H240  S    
C116  C125  A    
C344  O32   A    
C293  H281  S    
O48   Zn5   S    
C290  C310  A    
C13   C103  A    
C118  C127  A    
C262  H203  S    
C96   C314  A    
C122  C131  A    
C210  H76   S    
C196  O101  S    
C183  O95   S    
C329  H223  S    
C87   O56   A    
C62   C84   A    
O39   Zn16  S    
C305  C318  A    
C273  H232  S    
C211  C213  S    
C192  H29   S    
C5    O88   S    
C105  C115  A    
C7    C16   A    
O1    Zn3   S    
C51   O108  S    
C207  H67   S    
C155  H306  S    
C180  H365  S    
C36   C353  S    
C310  C317  A    
C252  O6    S    
O55   Zn13  S    
O48   Zn14  S    
C69   O42   A    
C280  H248  S    
C35   C123  A    
C1    C55   S    
C284  H261  S    
C265  H211  S    
C210  H77   S    
C203  H56   S    
C119  C128  A    
C216  H89   S    
O51   Zn9   S    
C322  C326  A    
O73   Zn13  S    
C28   C37   A    
C88   O57   A    
C272  O16   S    
C107  C117  A    
C30   C39   A    
C250  H174  S    
C278  C280  S    
C235  C300  A    
C188  H21   S    
C8    F9    S    
C248  H167  S    
C72   O52   A    
C160  H318  S    
C42   C351  S    
C163  H326  S    
C236  H138  S    
C152  C153  S    
C212  O12   S    
C323  O27   S    
C226  C227  S    
C268  O18   S    
C283  C284  S    
C50   C61   A    
C229  H121  S    
C150  C151  S    
C294  H285  S    
C243  O124  S    
C201  O11   S    
C299  H298  S    
C298  H296  S    
C57   C146  A    
C211  H78   S    
C156  O82   S    
C70   O54   A    
C364  O80   S    
O1    Zn10  S    
C25   C33   A    
O70   Zn3   S    
C149  H190  S    
C96   C105  A    
C88   O66   A    
C249  H171  S    
C151  H257  S    
O62   Zn6   S    
C46   C125  A    
C286  H264  S    
C142  H35   S    
C239  H145  S    
O31   Zn9   S    
C327  C335  A    
C161  C162  S    
C271  H226  S    
C263  C264  S    
C277  H244  S    
C302  C345  S    
C153  H301  S    
C181  C182  S    
C351  C360  A    
O59   Zn6   S    
C175  H355  S    
C16   F17   S    
C98   C336  A    
C50   C54   A    
C120  F6    S    
C227  H116  S    
C322  O26   S    
C184  H11   S    
C306  C315  A    
C203  H58   S    
C43   C52   A    
C223  O13   A    
C8    C366  A    
O67   Zn1   S    
O46   Zn8   S    
C294  C295  S    
C199  H48   S    
C161  O84   S    
C359  O75   S    
C257  C302  A    
C337  F19   S    
C240  H149  S    
O44   Zn6   S    
C282  H255  S    
C121  F7    S    
C26   C73   S    
C305  C313  A    
C278  O19   S    
C246  C306  A    
C285  C286  S    
C103  C111  A    
C247  H165  S    
C254  H184  S    
C270  H222  S    
O103  Zn2   S    
C220  H102  S    
C71   O44   A    
C8    C327  A    
C264  H210  S    
C228  O117  S    
C214  O110  S    
C46   C135  A    
C180  H367  S    
C148  H157  S    
C11   C330  A    
C293  H283  S    
O52   Zn14  S    
C161  H320  S    
C307  C313  A    
C230  H125  S    
C280  H249  S    
C176  H359  S    
C89   O58   A    
C330  C339  A    
C300  C348  S    
C202  H53   S    
C58   C80   A    
C209  H73   S    
O42   Zn4   S    
C326  O29   S    
C194  C195  S    
C285  H262  S    
O30   Zn1   S    
C292  O26   S    
C356  C365  A    
C226  O116  S    
C368  O85   S    
C231  H128  S    
C245  O3    S    
C148  O77   S    
C136  C139  A    
C130  C139  A    
C64   C86   A    
C145  C147  S    
C143  H46   S    
C219  H99   S    
C279  C309  A    
C150  H224  S    
C171  H343  S    
O59   Zn8   S    
C189  H25   S    
C223  O114  A    
C207  C208  S    
O60   Zn4   S    
C56   C74   A    
C84   C85   A    
C319  O22   S    
C265  H213  S    
C101  C190  A    
C61   C83   A    
C194  O100  S    
C360  C368  A    
C216  H91   S    
C6    C364  A    
C196  H40   S    
O2    Zn8   S    
C357  C366  A    
C214  H85   S    
C264  H208  S    
C192  O99   S    
C164  H328  S    
C98   C107  A    
C323  C324  A    
C106  C116  A    
C137  C358  A    
C17   C40   A    
C225  H109  S    
C263  O11   S    
C18   C39   A    
C211  O109  S    
C254  C255  S    
C213  H82   S    
O33   Zn11  S    
C159  H315  S    
C159  C160  S    
C9    C328  A    
C218  H96   S    
C40   C349  S    
O40   Zn2   S    
C119  F5    S    
C169  H340  S    
C159  O83   S    
C296  H289  S    
C43   C59   A    
C260  H199  S    
C204  H61   S    
C342  C355  A    
C59   C74   A    
C5    C14   A    
C34   C354  S    
O1    Zn16  S    
C165  H330  S    
C97   C106  A    
C179  O9    S    
C182  H4    S    
C266  H215  S    
C102  F29   S    
C254  O7    S    
O45   Zn7   S    
C97   F12   S    
C2    C124  A    
C245  C247  S    
C102  C110  A    
C12   F14   S    
C256  H189  S    
C303  O2    A    
C349  C357  A    
C68   C157  A    
C71   O55   A    
C292  H280  S    
C218  O112  S    
C109  C119  A    
C32   C66   S    
C29   C70   S    
C171  H345  S    
C18   O93   S    
C136  C347  A    
C277  H243  S    
C338  C351  A    
C200  O104  S    
O53   Zn15  S    
C25   O99   S    
C307  C320  A    
C81   O111  S    
C221  H105  S    
C48   C63   A    
C267  H217  S    
O71   Zn15  S    
C173  H351  S    
C172  H346  S    
C27   C36   A    
C23   C38   A    
C21   C30   A    
C147  H146  S    
C60   C75   A    
C241  O123  S    
C288  H271  S    
C23   C32   A    
C250  C251  S    
C253  H181  S    
C187  C188  S    
C22   O97   S    
C149  H201  S    
C237  O121  S    
O32   Zn10  S    
C337  C350  A    
C267  C269  S    
C297  H293  S    
C185  C186  S    
C50   O107  S    
C44   C60   A    
C339  C352  A    
C117  F3    S    
C232  C233  S    
C331  H314  S    
C357  O74   S    
C205  H63   S    
C242  H155  S    
C297  H294  S    
C286  H266  S    
C284  H260  S    
C170  O88   S    
C65   O50   A    
C292  H278  S    
C68   C127  A    
C319  C320  A    
C282  H253  S    
C245  H163  S    
C261  O10   S    
C281  H252  S    
C43   O100  S    
C182  H6    S    
C170  C171  S    
C274  H236  S    
C73   O46   A    
C270  C271  S    
C289  C291  S    
C221  H103  S    
C151  H246  S    
C251  H176  S    
C233  H132  S    
O36   Zn14  S    
C332  C341  A    
C247  H166  S    
C27   C72   S    
C219  H97   S    
C14   C332  A    
C334  C343  A    
C222  O115  S    
C198  O102  S    
C39   C350  S    
C69   O49   A    
C165  C166  S    
C272  H230  S    
C111  C121  A    
C194  H34   S    
O114  Zn7   S    
C197  H43   S    
C163  C164  S    
C299  H299  S    
C268  C304  A    
C165  O86   S    
C112  O81   A    
C166  H334  S    
C20   C41   A    
C33   C65   S    
C21   C36   A    
C205  C206  S    
C193  H31   S    
C48   C54   A    
C202  H55   S    
C177  H362  S    
C287  H269  S    
C19   O94   S    
C274  H234  S    
C57   O120  S    
C259  O9    S    
C17   C26   A    
C222  H106  S    
C273  H233  S    
C292  C293  S    
C20   O95   S    
C208  H71   S    
C134  C140  A    
O56   Zn16  S    
C271  H227  S    
C331  C340  A    
C159  H313  S    
C162  H323  S    
O59   Zn13  S    
C170  H341  S    
C217  H93   S    
C196  C197  S    
C238  H144  S    
C141  O74   S    
C227  H117  S    
C189  C191  S    
C5    C363  A    
C263  H206  S    
C296  O28   S    
C87   C114  S    
C95   C105  S    
C174  H353  S    
C25   C37   A    
C6    C15   A    
C248  O4    S    
C60   C82   A    
C232  H129  S    
C217  H94   S    
C85   O116  S    
C178  H363  S    
C152  H268  S    
C187  H19   S    
C147  H124  S    
C199  H50   S    
C222  H107  S    
C158  H312  S    
C44   O101  S    
C304  C344  S    
C203  O105  S    
C198  C199  S    
C256  H191  S    
O59   Zn15  S    
C79   C168  A    
C270  H225  S    
C255  H188  S    
C275  H238  S    
C191  H27   S    
C328  C337  A    
C145  H101  S    
C278  H247  S    
O37   Zn4   S    
C289  H274  S    
O54   Zn12  S    
C87   O65   A    
C311  C316  A    
C67   O41   A    
C306  C319  A    
C90   C129  A    
C112  O103  A    
C195  H39   S    
C328  H112  S    
C240  H148  S    
C186  H15   S    
C93   O71   A    
C309  C316  A    
C26   C34   A    
C58   C75   A    
O35   Zn13  S    
C20   C29   A    
C172  H348  S    
C239  C240  S    
C343  C356  A    
C213  H81   S    
C22   C31   A    
C273  H231  S    
C192  H30   S    
C89   O67   A    
C216  C217  S    
O64   Zn8   S    
C23   O98   S    
C155  H307  S    
C76   C77   A    
C253  H183  S    
C12   C331  A    
C110  C120  A    
C57   C126  A    
C187  H18   S    
C180  H366  S    
C214  C215  S    
C258  H193  S    
C278  H245  S    
C281  C282  S    
C224  C308  A    
C354  C363  A    
C256  C258  S    
C24   C104  A    
C185  O96   S    
C68   O121  S    
C145  O76   S    
C128  C137  A    
C157  O7    S    
C301  C346  S    
O24   Zn6   S    
C215  H86   S    
C355  C364  A    
C287  H267  S    
C17   O91   S    
C66   O40   A    
C32   C41   A    
C283  O21   S    
C4    O87   S    
O48   Zn12  S    
C276  C277  S    
C91   O68   A    
C258  H192  S    
C167  H335  S    
C1    O70   A    
C79   O122  S    
C173  H349  S    
C116  F2    S    
C104  C114  A    
C353  C362  A    
C242  H153  S    
C295  H287  S    
C176  C177  S    
C188  H20   S    
C118  F4    S    
C203  C204  S    
C256  O8    S    
O81   Zn4   S    
C10   C329  A    
C206  H64   S    
C41   C352  S    
C260  H198  S    
C168  C325  A    
C299  H297  S    
C320  O23   S    
C338  F20   S    
C259  C260  S    
C6    O89   S    
C231  H126  S    
C166  H332  S    
C329  C338  A    
C293  H282  S    
C152  H279  S    
C73   O53   A    
C172  C173  S    
C150  O78   S    
C265  C266  S    
C132  C138  A    
C125  C133  A    
O69   Zn14  S    
C11   F13   S    
C90   C179  A    
C94   C106  S    
C269  H221  S    
C113  C131  A    
C244  H159  S    
C327  H1    S    
C249  H170  S    
C169  H338  S    
C279  O19   S    
C286  H265  S    
C154  O80   S    
C18   C27   A    
C291  H276  S    
C346  O36   A    
C80   C81   A    
C160  H316  S    
C219  H98   S    
C10   C368  A    
C176  H357  S    
C260  H197  S    
C162  H321  S    
O61   Zn5   S    
C195  H37   S    
C312  C326  A    
C366  O83   S    
C238  H142  S    
C228  H119  S    
C227  H115  S    
C148  H168  S    
C274  O17   S    
C280  H250  S    
C192  C193  S    
C91   C109  S    
C200  H51   S    
C257  C311  A    
C204  H59   S    
C183  H8    S    
C141  C142  S    
C93   C107  S    
C47   C58   A    
C99   F27   S    
C218  C219  S    
C290  O20   S    
C269  H220  S    
C184  H10   S    
C98   F23   S    
C158  H310  S    
C146  O6    S    
C288  H270  S    
C254  H185  S    
C255  H186  S    
C93   O62   A    
C101  O124  S    
C234  H136  S    
C341  F24   S    
O66   Zn11  S    
C114  C122  A    
C287  C288  S    
C7    C365  A    
C261  H202  S    
C290  C304  A    
C92   O61   A    
C124  O4    S    
C10   F11   S    
C247  H164  S    
C236  H137  S    
C279  C302  A    
C270  O15   S    
C161  H319  S    
C343  F26   S    
C248  C249  S    
C234  O120  S    
C181  O94   S    
C237  C238  S    
O65   Zn10  S    
C4    C362  A    
C206  H66   S    
C210  H75   S    
C202  H54   S    
C82   O112  S    
O92   Zn16  S    
