data_mof_unit_45095.cif
_audit_creation_date              2013-03-05T15:59:16-0500
_audit_creation_method            fapswitch 2.2
_symmetry_space_group_name_H-M    P1
_symmetry_Int_Tables_number       1
_space_group_crystal_system       triclinic
_cell_length_a                    7.014619
_cell_length_b                    21.327177
_cell_length_c                    23.641372
_cell_angle_alpha                 90.05603
_cell_angle_beta                  88.946161
_cell_angle_gamma                 90.704054
_cell_volume                      3535.93082294

loop_
_atom_site_label
_atom_site_type_symbol
_atom_site_description
_atom_site_fract_x
_atom_site_fract_y
_atom_site_fract_z
_atom_type_partial_charge
O1    O     O_R   0.494270 0.443530 0.442350 -0.569437
O2    O     O_R   0.824060 0.436290 0.557250 -0.584069
O3    O     O_R   0.994370 0.556470 0.557650 -0.594663
C1    C     C_R   0.652645 0.421179 0.576303 0.976868
O4    O     O_R   0.823990 0.436120 0.442760 -0.579890
O5    O     O_R   0.994300 0.556300 0.442340 -0.591524
C2    C     C_R   0.655736 0.421039 0.423525 0.978768
O6    O     O_R   0.494350 0.443700 0.557660 -0.585496
O7    O     O_3   0.660800 0.539430 0.500000 -0.285219
V1    V     V_3+5 0.935650 0.492690 0.500000 1.220616
O8    O     O_R   0.324020 0.563710 0.442750 -0.591986
C3    C     C_R   0.156994 0.578843 0.423405 0.982979
O9    O     O_R   0.324090 0.563880 0.557240 -0.592900
C4    C     C_R   0.155009 0.578982 0.576476 0.973210
V2    V     V_3+5 0.435660 0.507310 0.500000 1.213859
O10   O     O_3   0.160640 0.460570 0.500000 -0.254621
C5    C     C_3   0.001448 0.725507 0.791122 -0.109675
C6    C     C_3   0.190729 0.697427 0.767690 -0.256717
H1    H     H_    0.260357 0.654378 0.783094 0.176527
H2    H     H_    0.914943 0.704702 0.826248 0.192870
C7    C     C_1   0.145025 0.624866 0.621768 -0.279554
C8    C     C_1   0.074372 0.874874 0.877090 -0.209106
C9    C     C_3   0.933828 0.736328 0.729498 -0.118342
C10   C     C_3   0.123498 0.709171 0.706700 0.129057
C11   C     C_3   0.028607 0.802260 0.730095 -0.100705
C12   C     C_3   0.093998 0.791731 0.791148 0.033789
C13   C     C_3   0.217540 0.775202 0.706095 -0.347352
C14   C     C_3   0.278744 0.763900 0.767481 0.392294
C15   C     C_1   0.136090 0.662967 0.659939 0.041721
C16   C     C_1   0.082756 0.837248 0.838552 0.176770
H3    H     H_    0.308575 0.795709 0.671764 0.169314
H4    H     H_    0.789810 0.725023 0.713326 0.147388
C17   C     C_3   0.158537 0.826434 0.263626 -0.326530
C18   C     C_3   0.906327 0.758283 0.220717 -0.358621
C19   C     C_3   0.924408 0.710301 0.269826 -0.376015
H5    H     H_    0.072409 0.790120 0.346786 0.178657
H6    H     H_    0.037414 0.857386 0.275812 0.185560
H7    H     H_    0.852476 0.734135 0.182437 0.202821
H8    H     H_    0.796980 0.793555 0.232589 0.143571
H9    H     H_    0.821764 0.722280 0.304486 0.154869
H10   H     H_    0.884098 0.662712 0.254405 0.191295
C20   C     C_1   0.150761 0.624801 0.378033 -0.236750
C21   C     C_3   0.100671 0.791783 0.207794 0.233811
C22   C     C_3   0.180375 0.777765 0.313513 -0.289322
C23   C     C_3   0.130467 0.709779 0.292932 0.257421
C24   C     C_3   0.265552 0.691872 0.242821 -0.393843
C25   C     C_3   0.254042 0.740772 0.193733 -0.188697
C26   C     C_1   0.142506 0.662962 0.339888 -0.032556
C27   C     C_1   0.080763 0.837425 0.160063 -0.074195
C28   C     C_1   0.069313 0.874937 0.121509 -0.233705
H11   H     H_    0.395667 0.764469 0.189991 0.055358
H12   H     H_    0.415172 0.688988 0.257227 0.128942
H13   H     H_    0.227326 0.643839 0.228067 0.212477
C29   C     C_3   0.425035 0.245532 0.705031 0.018430
C30   C     C_3   0.790071 0.242596 0.697043 0.130774
C31   C     C_3   0.797127 0.196565 0.750471 -0.470471
H14   H     H_    0.455633 0.147943 0.732491 0.208814
H15   H     H_    0.916455 0.211239 0.776507 0.245843
C32   C     C_1   0.586342 0.123208 0.877386 -0.132453
C33   C     C_3   0.611384 0.286568 0.703256 0.013996
C34   C     C_3   0.438685 0.194558 0.752818 0.056485
C35   C     C_3   0.617544 0.205401 0.790112 -0.081882
C36   C     C_3   0.623225 0.275252 0.812520 0.229925
C37   C     C_3   0.610859 0.321622 0.761579 -0.529672
C38   C     C_1   0.605913 0.160266 0.838672 0.252906
C39   C     C_1   0.616313 0.335312 0.657633 0.140120
C40   C     C_1   0.633397 0.374579 0.620644 -0.205507
H16   H     H_    0.476861 0.348721 0.766597 0.194646
H17   H     H_    0.721720 0.358957 0.762501 0.261202
H18   H     H_    0.498601 0.283356 0.840822 0.160662
H19   H     H_    0.313062 0.277944 0.717174 0.148452
C41   C     C_3   0.498235 0.318991 0.241574 0.076653
C42   C     C_3   0.818556 0.278552 0.267232 -0.658265
C43   C     C_3   0.811981 0.234668 0.213174 -0.174694
H20   H     H_    0.590373 0.356530 0.222686 0.140218
H21   H     H_    0.903473 0.257581 0.301409 0.203828
H22   H     H_    0.893007 0.323801 0.257943 0.227482
C44   C     C_1   0.572115 0.124056 0.121038 -0.106854
C45   C     C_3   0.615868 0.291844 0.291971 0.113232
C46   C     C_3   0.461783 0.266300 0.196301 0.042098
C47   C     C_3   0.598941 0.209151 0.206170 0.002384
C48   C     C_3   0.523948 0.178567 0.263156 -0.396687
C49   C     C_3   0.536103 0.226793 0.313272 -0.322437
C50   C     C_1   0.582441 0.162275 0.159087 0.206837
C51   C     C_1   0.634899 0.337711 0.339593 0.144997
C52   C     C_1   0.646670 0.375387 0.378049 -0.185290
H23   H     H_    0.638801 0.209331 0.344940 0.174460
H24   H     H_    0.371567 0.165537 0.256657 0.155693
H25   H     H_    0.312495 0.249259 0.203305 0.090663
O11   O     O_R   0.724990 0.055630 0.941600 -0.578056
O12   O     O_R   0.395220 0.063160 0.056480 -0.574753
O13   O     O_R   0.225040 0.942970 0.056870 -0.595216
C53   C     C_R   0.563399 0.078182 0.075776 0.965418
O14   O     O_R   0.395270 0.063000 0.941990 -0.567214
O15   O     O_R   0.225080 0.942800 0.941570 -0.588318
C54   C     C_R   0.566708 0.078046 0.922893 0.981418
O16   O     O_R   0.724940 0.055790 0.056910 -0.571637
O17   O     O_3   0.558580 0.959880 0.999250 -0.289590
V3    V     V_3+5 0.283680 0.006590 0.999220 1.265941
O18   O     O_R   0.895380 0.935350 0.941950 -0.581862
C55   C     C_R   0.064472 0.920358 0.922673 0.970585
O19   O     O_R   0.895330 0.935520 0.056440 -0.599051
C56   C     C_R   0.062394 0.920469 0.075830 0.975019
V4    V     V_3+5 0.783690 0.991900 0.999180 1.248881
O20   O     O_3   0.058660 0.038680 0.999200 -0.246903
C57   C     C_2   0.224155 0.709339 0.137070 0.570978
H26   H     H_    0.311117 0.723801 0.100829 0.009762
O21   O     O_2   0.100738 0.669161 0.130853 -0.557655
C58   C     C_2   0.330113 0.869708 0.254786 0.619814
H27   H     H_    0.467955 0.851089 0.242537 -0.039575
O22   O     O_2   0.314822 0.926215 0.261438 -0.510156
C59   C     C_2   0.373200 0.780648 0.341500 0.591027
H28   H     H_    0.502380 0.770976 0.317343 -0.037269
O23   O     O_2   0.385098 0.794100 0.391528 -0.551018
N1    N     N_R   0.370575 0.218489 0.650012 0.270444
O24   O     O_R   0.280951 0.164732 0.648055 -0.340521
O25   O     O_R   0.368275 0.253718 0.605139 -0.325616
C60   C     C_2   0.968071 0.284214 0.695433 0.413948
H29   H     H_    0.052689 0.288895 0.656892 0.118433
O26   O     O_2   0.013050 0.316199 0.736024 -0.560312
N2    N     N_R   0.781838 0.208415 0.642039 0.238564
O27   O     O_R   0.698192 0.153852 0.637627 -0.313906
O28   O     O_R   0.827839 0.237339 0.595126 -0.335378
C61   C     C_2   0.848591 0.129216 0.736151 0.775862
H30   H     H_    0.980033 0.120467 0.712748 0.092508
O29   O     O_2   0.746927 0.084630 0.749693 -0.545305
N3    N     N_R   0.265172 0.191326 0.788241 0.204742
O30   O     O_R   0.207623 0.240462 0.815989 -0.355711
O31   O     O_R   0.196341 0.136601 0.802745 -0.421342
N4    N     N_R   0.466076 0.779559 0.789167 0.222666
O32   O     O_R   0.558145 0.738476 0.818239 -0.436719
O33   O     O_R   0.532757 0.836512 0.784593 -0.378457
N5    N     N_R   0.790907 0.289907 0.847266 0.284535
O34   O     O_R   0.832526 0.348261 0.858256 -0.297289
O35   O     O_R   0.860035 0.247515 0.880426 -0.319397
N6    N     N_R   0.469971 0.290009 0.137642 0.262551
O36   O     O_R   0.386239 0.258059 0.098074 -0.318319
O37   O     O_R   0.532666 0.346232 0.125628 -0.330039
C62   C     C_2   0.877594 0.272158 0.161244 0.676096
H31   H     H_    0.908271 0.322020 0.164145 0.073058
O38   O     O_2   0.893623 0.247191 0.114882 -0.481145
C63   C     C_2   0.953775 0.181535 0.219870 0.516533
H32   H     H_    0.027012 0.174766 0.259304 -0.018657
O39   O     O_2   0.986390 0.144697 0.181374 -0.541351
C64   C     C_2   0.346559 0.231379 0.344044 0.684256
H33   H     H_    0.218931 0.240815 0.320779 -0.004738
O40   O     O_2   0.334766 0.223395 0.395126 -0.518291
N7    N     N_R   0.317543 0.349577 0.257381 0.219351
O41   O     O_R   0.263194 0.357616 0.309761 -0.438650
O42   O     O_R   0.221249 0.376752 0.218005 -0.373994
C65   C     C_2   0.619232 0.117540 0.277957 0.663975
H34   H     H_    0.756431 0.117547 0.298301 0.009275
O43   O     O_2   0.540543 0.067394 0.268212 -0.525324
C66   C     C_2   0.936753 0.859596 0.707072 0.694854
H35   H     H_    0.893565 0.860442 0.663275 -0.007658
O44   O     O_2   0.910182 0.905354 0.737073 -0.510009

loop_
_geom_bond_atom_site_label_1
_geom_bond_atom_site_label_2
_geom_bond_distance
_ccdc_geom_bond_type
C49   H23   1.115862 S    
C30   C31   1.602362 S    
C30   N2    1.491827 S    
C53   O16   1.305878 A    
C42   C43   1.584344 S    
O2    C1    1.312777 A    
C10   C13   1.547696 S    
C1    O6    1.299775 A    
C59   O23   1.220849 D    
C47   C48   1.576199 S    
C29   C33   1.564076 S    
C23   C24   1.553683 S    
C5    C9    1.558682 S    
C8    C55   1.450513 S    
C6    C10   1.546874 S    
C5    C12   1.547160 S    
C31   C61   1.521631 S    
C4    C7    1.451174 S    
N7    O42   1.300974 A    
C6    H1    1.110095 S    
C41   C45   1.576350 S    
C58   O22   1.220975 D    
O5    C3    1.304649 A    
O19   V4    1.989201 S    
O15   V3    1.969928 S    
C2    C52   1.451483 S    
C57   H26   1.085361 S    
C44   C53   1.450801 S    
V2    O10   2.160573 S    
O17   V3    2.181301 S    
C24   H12   1.111788 S    
O18   V4    1.969774 S    
C5    H2    1.109174 S    
C18   C19   1.556322 S    
C46   H25   1.113784 S    
C60   H29   1.082281 S    
V4    O20   2.160653 S    
C3    C20   1.455339 S    
O13   C56   1.304234 A    
O1    C2    1.305900 A    
C10   C15   1.482352 S    
O8    V2    1.989302 S    
C29   H19   1.087129 S    
N1    O25   1.301038 A    
C65   H34   1.083769 S    
O1    V2    1.966310 S    
O7    V1    2.181276 S    
C66   O44   1.219997 D    
C48   C65   1.514601 S    
C48   H24   1.114464 S    
C9    C11   1.548149 S    
C39   C40   1.214688 T    
C43   C63   1.527178 S    
C33   C39   1.498404 S    
C28   C56   1.454881 S    
C49   C64   1.508003 S    
C30   C33   1.579235 S    
O19   C56   1.309892 A    
C41   H20   1.111495 S    
C59   H28   1.084044 S    
C64   O40   1.220903 D    
C64   H33   1.080400 S    
V3    O20   1.728123 S    
C62   H31   1.084727 S    
C13   H3    1.110212 S    
C18   H8    1.113030 S    
C17   C21   1.569573 S    
C6    C14   1.539283 S    
N7    O41   1.300784 A    
N6    O37   1.301920 A    
O4    C2    1.308938 A    
C21   C27   1.500557 S    
C25   H11   1.111177 S    
C11   C12   1.540041 S    
C51   C52   1.216027 T    
C7    C15   1.215029 T    
O11   C54   1.299384 A    
C17   H6    1.115826 S    
N4    O33   1.300091 A    
N3    O31   1.301436 A    
C35   C36   1.580914 S    
O12   C53   1.308696 A    
C36   H18   1.106231 S    
C9    C10   1.545327 S    
C25   C57   1.514239 S    
C29   N1    1.477105 S    
C5    C6    1.555712 S    
C42   C45   1.556557 S    
C34   N3    1.465610 S    
C20   C26   1.217993 T    
C37   H17   1.106627 S    
O14   C54   1.312940 A    
O11   V4    1.976856 S    
N2    O27   1.301738 A    
O3    C4    1.305019 A    
C22   C59   1.517196 S    
C48   C49   1.571026 S    
O6    V2    1.976385 S    
O9    V2    1.969867 S    
N5    O34   1.301845 A    
C42   H21   1.110256 S    
C31   C35   1.569306 S    
H5    C22   1.115513 S    
C17   C58   1.519134 S    
C32   C54   1.448250 S    
C43   C47   1.595530 S    
N3    O30   1.300318 A    
O2    V1    1.957682 S    
C37   H16   1.113873 S    
C36   N5    1.477146 S    
C45   C51   1.497493 S    
C47   C50   1.500536 S    
C22   C23   1.566555 S    
C61   O29   1.220977 D    
C23   C26   1.498040 S    
C24   C25   1.564866 S    
C8    C16   1.214587 T    
C35   C38   1.499329 S    
C11   C66   1.496738 S    
C18   H7    1.110779 S    
C17   C22   1.582636 S    
C18   C21   1.556730 S    
C46   C47   1.582176 S    
O5    V1    1.958867 S    
C1    C40   1.448586 S    
O8    C3    1.309704 A    
H14   C34   1.110536 S    
C29   C34   1.573646 S    
C11   C13   1.549790 S    
C43   C62   1.526586 S    
C12   C14   1.528520 S    
C46   N6    1.476438 S    
C33   C37   1.567794 S    
C9    H4    1.110368 S    
N4    O32   1.299452 A    
O7    V2    1.713704 S    
O4    V1    1.978104 S    
C41   C46   1.573028 S    
O3    V1    1.969961 S    
C41   N7    1.474478 S    
C58   H27   1.084130 S    
C32   C38   1.214637 T    
C45   C49   1.569501 S    
C62   O38   1.222011 D    
N1    O24   1.301929 A    
C57   O21   1.221289 D    
O14   V3    1.957488 S    
O17   V4    1.712655 S    
C24   H13   1.113092 S    
O18   C55   1.306123 A    
C31   H15   1.090684 S    
C19   H9    1.112459 S    
C14   N4    1.454245 S    
C65   O43   1.221155 D    
C34   C35   1.561436 S    
C19   H10   1.113104 S    
C60   O26   1.220805 D    
N2    O28   1.303089 A    
O16   V4    1.969437 S    
C36   C37   1.563390 S    
C44   C50   1.215856 T    
C66   H35   1.084387 S    
C27   C28   1.217757 T    
C13   C14   1.541004 S    
N5    O35   1.301262 A    
C42   H22   1.111777 S    
C63   H32   1.083334 S    
N6    O36   1.301327 A    
V1    O10   1.728182 S    
O12   V3    1.978093 S    
O9    C4    1.306338 A    
C21   C25   1.570491 S    
C30   C60   1.522939 S    
C63   O39   1.221977 D    
O15   C55   1.304896 A    
O13   V3    1.958837 S    
C61   H30   1.084583 S    
C12   C16   1.483588 S    
C19   C23   1.554740 S    
