data_mof_unit_35302.cif
_audit_creation_date              2012-10-26T21:10:40-0400
_audit_creation_method            fapswitch 2.2
_symmetry_space_group_name_H-M    P1
_symmetry_Int_Tables_number       1
_space_group_crystal_system       triclinic
_cell_length_a                    10.913247
_cell_length_b                    14.743356
_cell_length_c                    14.668889
_cell_angle_alpha                 65.050931
_cell_angle_beta                  103.563469
_cell_angle_gamma                 102.820739
_cell_volume                      2059.91765925

loop_
_atom_site_label
_atom_site_type_symbol
_atom_type_description
_atom_site_fract_x
_atom_site_fract_y
_atom_site_fract_z
_atom_type_partial_charge
C1    C     C_R   0.478401 0.119364 0.311728 0.604380
C2    C     C_R   0.493677 0.776922 0.967928 -0.076927
C3    C     C_R   0.497408 0.154147 0.131190 0.189228
C4    C     C_R   0.502611 0.845850 0.868813 0.189253
C5    C     C_R   0.447885 0.285327 0.170049 0.172859
C6    C     C_R   0.552164 0.714682 0.829951 0.172852
C7    C     C_R   0.480355 0.359380 0.075837 0.005313
C8    C     C_R   0.519721 0.640626 0.924169 0.005318
C9    C     C_R   0.499996 0.325656 0.003588 -0.006926
C10   C     C_R   0.500084 0.674348 0.996421 -0.006930
C11   C     C_R   0.493377 0.465336 0.050546 0.005975
C12   C     C_R   0.521600 0.880636 0.688272 0.604391
C13   C     C_R   0.506713 0.534671 0.949460 0.005976
C14   C     C_R   0.500437 0.495742 0.875715 -0.026194
C15   C     C_R   0.499663 0.504264 0.124293 -0.026190
C16   C     C_R   0.263532 0.995009 0.508283 0.574553
C17   C     C_R   0.736467 0.004990 0.491719 0.574538
C18   C     C_R   0.507451 0.394606 0.903116 0.232899
C19   C     C_R   0.492651 0.605399 0.096895 0.232898
C20   C     C_R   0.725251 0.293543 0.657266 -0.064913
C21   C     C_R   0.274758 0.706460 0.342728 -0.064935
C22   C     C_R   0.685010 0.207278 0.635998 0.444508
C23   C     C_R   0.870818 0.009982 0.485071 -0.029551
C24   C     C_R   0.314986 0.792721 0.364005 0.444513
C25   C     C_R   0.517675 0.284750 0.509369 -0.000030
C26   C     C_R   0.482346 0.715261 0.490613 0.000014
C27   C     C_R   0.550526 0.373148 0.532005 -0.013081
C28   C     C_R   0.449501 0.626866 0.467974 -0.013023
C29   C     C_R   0.659408 0.376596 0.605509 0.025031
C30   C     C_R   0.340615 0.623414 0.394475 0.025035
C31   C     C_R   0.479533 0.457060 0.486009 0.034587
C32   C     C_R   0.520497 0.542955 0.513968 0.034602
C33   C     C_R   0.632280 0.542847 0.585341 -0.096303
C34   C     C_R   0.129180 0.990013 0.514938 -0.029534
C35   C     C_R   0.367749 0.457166 0.414639 -0.096268
C36   C     C_R   0.700622 0.461730 0.629272 -0.045394
C37   C     C_R   0.299406 0.538282 0.370709 -0.045388
C38   C     C_R   0.232814 0.071233 0.796252 -0.030467
C39   C     C_R   0.767152 0.928796 0.203762 -0.030446
C40   C     C_R   0.178772 0.033529 0.720864 -0.038457
C41   C     C_R   0.821138 0.966497 0.279157 -0.038482
C42   C     C_R   0.176491 0.097305 0.617566 0.086850
C43   C     C_R   0.823502 0.902688 0.382449 0.086835
C44   C     C_R   0.232144 0.198545 0.590724 -0.031019
C45   C     C_R   0.906456 0.938803 0.459256 -0.044834
C46   C     C_R   0.767947 0.801427 0.409279 -0.031048
C47   C     C_R   0.287642 0.235756 0.666518 -0.072016
C48   C     C_R   0.712512 0.764216 0.333478 -0.071990
C49   C     C_R   0.286887 0.172236 0.769153 -0.026396
C50   C     C_R   0.713214 0.827762 0.230849 -0.026411
C51   C     C_R   0.966587 0.077406 0.516963 0.223693
C52   C     C_R   0.033410 0.922585 0.483052 0.223708
C53   C     C_R   0.093539 0.061189 0.540756 -0.044843
C54   C     C_R   0.472450 0.185868 0.202582 0.048383
C55   C     C_R   0.527569 0.814133 0.797418 0.048380
C56   C     C_R   0.506379 0.223078 0.032081 -0.076944
Cl1   Cl    Cl    0.232824 0.896654 0.289277 -0.452383
Cl2   Cl    Cl    0.512193 0.028320 0.158857 -0.561712
Cl3   Cl    Cl    0.767159 0.103339 0.710736 -0.452411
Cl4   Cl    Cl    0.934677 0.189504 0.519116 -0.548850
Cl5   Cl    Cl    0.065328 0.810491 0.480894 -0.548875
Cl6   Cl    Cl    0.524187 0.358367 0.807370 -0.687616
Cl7   Cl    Cl    0.475936 0.641638 0.192646 -0.687589
Cl8   Cl    Cl    0.659490 0.695310 0.767648 -0.626931
Cl9   Cl    Cl    0.340563 0.304721 0.232339 -0.626928
Cl10  Cl    Cl    0.487771 0.971668 0.841140 -0.561700
Cu1   Cu    Cu3+1 0.466270 0.918260 0.475690 1.120113
Cu2   Cu    Cu3+1 0.533730 0.081740 0.524310 1.120096
H1    H     H_    0.326125 0.201092 0.828020 0.176135
H2    H     H_    0.439142 0.277443 0.451862 0.160311
H3    H     H_    0.806678 0.294773 0.715840 0.147367
H4    H     H_    0.193329 0.705229 0.284157 0.147351
H5    H     H_    0.669290 0.604191 0.609980 0.142271
H6    H     H_    0.330740 0.395821 0.390004 0.142278
H7    H     H_    0.231650 0.022363 0.875692 0.167004
H8    H     H_    0.768266 0.977690 0.124326 0.167022
H9    H     H_    0.133352 0.955819 0.742733 0.132928
H10   H     H_    0.866464 0.044232 0.257295 0.132891
H11   H     H_    0.226845 0.249153 0.511423 0.130044
H12   H     H_    0.674035 0.798903 0.171977 0.176111
H13   H     H_    0.773294 0.750800 0.488574 0.130097
H14   H     H_    0.327639 0.314470 0.645564 0.164343
H15   H     H_    0.672612 0.685481 0.354422 0.164351
H16   H     H_    0.521510 0.195616 0.978398 0.216211
H17   H     H_    0.478551 0.804382 0.021614 0.216227
H18   H     H_    0.489922 0.542943 0.795529 0.198442
H19   H     H_    0.510184 0.457061 0.204479 0.198433
H20   H     H_    0.785007 0.464506 0.684972 0.154012
H21   H     H_    0.215020 0.535505 0.315013 0.153992
H22   H     H_    0.560890 0.722575 0.548111 0.160302
N1    N     N_R   0.584450 0.204570 0.560790 -0.229789
N2    N     N_R   0.415550 0.795430 0.439210 -0.229790
O1    O     O_R   0.455540 0.022090 0.338120 -0.416650
O2    O     O_R   0.544460 0.977910 0.661880 -0.416646
O3    O     O_R   0.512510 0.160150 0.379180 -0.496075
O4    O     O_R   0.487490 0.839850 0.620820 -0.496070
O5    O     O_R   0.291160 0.930970 0.479480 -0.413076
O6    O     O_R   0.708840 0.069030 0.520520 -0.413086
O7    O     O_R   0.348130 0.069020 0.520540 -0.521897
O8    O     O_R   0.651870 0.930980 0.479460 -0.521891

loop_
_geom_bond_atom_site_label_1
_geom_bond_atom_site_label_2
_ccdc_geom_bond_type
C38   C40   A    
C35   H6    S    
C8    C13   A    
C23   C45   A    
C27   C29   A    
C14   C18   A    
C6    C55   A    
Cu2   N1    S    
C47   C49   A    
C38   C49   A    
C36   H20   S    
C7    C11   A    
C29   C36   A    
C17   C23   S    
C35   C37   A    
C52   Cl5   S    
C42   C53   S    
C8    C10   A    
C3    C54   A    
C16   O5    A    
C26   N2    A    
C33   C36   A    
C2    H17   S    
C47   H14   S    
C6    Cl8   S    
C16   C34   S    
C15   C19   A    
C11   C15   A    
C19   Cl7   S    
C24   Cl1   S    
C22   N1    A    
C20   H3    S    
C17   O6    A    
C44   C47   A    
C20   C29   A    
C40   C42   A    
C49   H1    S    
C13   C14   A    
C41   C43   A    
C12   O2    A    
C42   C44   A    
C24   N2    A    
C43   C46   A    
C56   H16   S    
C38   H7    S    
C46   C48   A    
C25   N1    A    
Cu2   O3    S    
C21   H4    S    
C27   C31   A    
Cu1   Cu2   S    
C5    C54   A    
C28   C32   A    
C14   H18   S    
C5    Cl9   S    
C41   H10   S    
C5    C7    A    
C18   Cl6   S    
C6    C8    A    
C45   C52   A    
Cu2   O2    S    
C30   C37   A    
C51   C53   A    
C2    C4    A    
C1    C54   S    
C46   H13   S    
C3    C56   A    
C23   C51   A    
C31   C32   A    
C10   C19   A    
C1    O3    A    
C9    C56   A    
C39   H8    S    
C43   C45   S    
Cu1   O8    S    
C33   H5    S    
C20   C22   A    
C4    C55   A    
Cu1   O4    S    
C31   C35   A    
C26   H22   S    
C2    C10   A    
C22   Cl3   S    
C15   H19   S    
C7    C9    A    
C26   C28   A    
C44   H11   S    
C50   H12   S    
C16   O7    A    
C51   Cl4   S    
C25   C27   A    
C21   C30   A    
C34   C52   A    
C48   H15   S    
C37   H21   S    
C32   C33   A    
C28   C30   A    
Cu2   O7    S    
C4    Cl10  S    
C11   C13   A    
C48   C50   A    
Cu1   N2    S    
C17   O8    A    
Cu2   O6    S    
C12   C55   S    
Cu1   O5    S    
C3    Cl2   S    
C9    C18   A    
C39   C50   A    
C39   C41   A    
C34   C53   A    
C1    O1    A    
C21   C24   A    
Cu1   O1    S    
C40   H9    S    
C12   O4    A    
C25   H2    S    
