data_mof_unit_55041.cif
_audit_creation_date              2012-12-10T18:37:16-0500
_audit_creation_method            fapswitch 2.2
_symmetry_space_group_name_H-M    P1
_symmetry_Int_Tables_number       1
_space_group_crystal_system       triclinic
_cell_length_a                    15.117043
_cell_length_b                    13.920284
_cell_length_c                    10.917842
_cell_angle_alpha                 90.710492
_cell_angle_beta                  91.775908
_cell_angle_gamma                 90.327472
_cell_volume                      2296.15720534

loop_
_atom_site_label
_atom_site_type_symbol
_atom_type_description
_atom_site_fract_x
_atom_site_fract_y
_atom_site_fract_z
_atom_type_partial_charge
C1    C     C_R   0.330055 0.499775 0.498801 0.744701
C2    C     C_3   0.599063 0.502608 0.938256 0.864670
C3    C     C_R   0.097375 0.575439 0.425625 -0.174987
C4    C     C_R   0.093817 0.421498 0.527424 -0.171918
C5    C     C_R   0.189105 0.576449 0.436579 -0.201308
C6    C     C_R   0.185816 0.421607 0.536021 -0.208657
C7    C     C_R   0.233711 0.499470 0.491459 -0.012786
C8    C     C_R   0.048845 0.498453 0.472108 0.165169
C9    C     C_R   0.903353 0.415217 0.441213 -0.295766
C10   C     C_R   0.906594 0.585934 0.483321 -0.266495
C11   C     C_R   0.810374 0.414397 0.443837 0.403670
C12   C     C_R   0.814738 0.587863 0.480613 0.371412
C13   C     C_R   0.766121 0.500834 0.472295 -0.232980
C14   C     C_R   0.951517 0.499688 0.466319 -0.019342
C15   C     C_R   0.543198 0.103535 0.575253 -0.423355
C16   C     C_R   0.570075 0.896790 0.526896 -0.358377
C17   C     C_R   0.495688 0.499573 0.260139 0.794943
C18   C     C_R   0.550584 0.205447 0.580071 0.636190
C19   C     C_R   0.566111 0.797746 0.551429 0.668334
C20   C     C_R   0.448470 0.213094 0.411333 0.010445
C21   C     C_R   0.432833 0.785575 0.434983 -0.016910
C22   C     C_R   0.446339 0.111855 0.398845 -0.266853
C23   C     C_R   0.428350 0.887075 0.425724 -0.270025
C24   C     C_R   0.495151 0.054651 0.481237 0.114546
C25   C     C_R   0.497647 0.945281 0.474504 0.100001
C26   C     C_R   0.669768 0.500244 0.490614 0.826133
C27   C     C_R   0.500659 0.499991 0.740780 0.830720
C28   C     C_3   0.442821 0.586874 0.069846 -0.253758
C29   C     C_3   0.454974 0.402930 0.067950 -0.250005
C30   C     C_3   0.440220 0.583290 0.927271 0.205799
C31   C     C_3   0.451301 0.404834 0.925070 0.211798
C32   C     C_3   0.592157 0.507249 0.082055 -0.464469
C33   C     C_3   0.495919 0.499072 0.122463 -0.132579
C34   C     C_3   0.500159 0.498597 0.879821 -0.105402
Cu1   Cu    Cu3+1 0.499990 0.596430 0.500000 0.963843
Cu2   Cu    Cu3+1 0.499990 0.403570 0.500000 0.995740
H1    H     H_    0.573481 0.061558 0.646474 0.133491
H2    H     H_    0.628517 0.936174 0.557107 0.133973
H3    H     H_    0.409267 0.255531 0.347845 0.140260
H4    H     H_    0.380561 0.742525 0.392044 0.143857
H5    H     H_    0.406986 0.079208 0.324891 0.139631
H6    H     H_    0.370931 0.919030 0.381325 0.137015
H7    H     H_    0.373671 0.581494 0.101424 0.076306
H8    H     H_    0.386099 0.396709 0.100301 0.080589
H9    H     H_    0.370813 0.564810 0.897034 0.041662
H10   H     H_    0.379900 0.411701 0.896966 0.025620
H11   H     H_    0.621360 0.576118 0.117586 0.171236
H12   H     H_    0.630500 0.453184 0.133458 0.154975
H13   H     H_    0.064602 0.634614 0.379964 0.121974
H14   H     H_    0.057882 0.362032 0.565740 0.123692
H15   H     H_    0.225220 0.636525 0.399953 0.134839
H16   H     H_    0.219430 0.361742 0.579144 0.138609
H17   H     H_    0.938666 0.350916 0.416857 0.147248
H18   H     H_    0.942384 0.652765 0.499205 0.158489
N1    N     N_R   0.500020 0.258690 0.500000 -0.205849
N2    N     N_R   0.500020 0.741310 0.500000 -0.225015
O1    O     O_R   0.371450 0.581430 0.500010 -0.613090
O2    O     O_R   0.371450 0.418570 0.500010 -0.608904
O3    O     O_R   0.499980 0.581440 0.317690 -0.595248
O4    O     O_R   0.499980 0.418560 0.317690 -0.585811
O5    O     O_R   0.628540 0.581440 0.499990 -0.545149
O6    O     O_R   0.628540 0.418560 0.499990 -0.511576
O7    O     O_R   0.500010 0.581440 0.682310 -0.544050
O8    O     O_R   0.500010 0.418560 0.682310 -0.517452
C35   C     C_1   0.477984 0.681237 0.115628 0.382973
N3    N     N_1   0.505411 0.754718 0.150663 -0.327352
C36   C     C_1   0.502713 0.316313 0.112554 0.370845
N4    N     N_1   0.539919 0.248915 0.147107 -0.323529
O9    O     O_3   0.760679 0.336243 0.399163 -0.600134
C37   C     C_3   0.790759 0.247020 0.444169 0.087866
H19   H     H_    0.731416 0.207561 0.472912 0.167755
H20   H     H_    0.836538 0.252992 0.526109 0.106859
C38   C     C_3   0.831036 0.186984 0.341640 -0.366985
H21   H     H_    0.780344 0.174672 0.267010 0.232521
H22   H     H_    0.887785 0.225331 0.302235 0.214691
C39   C     C_3   0.862773 0.090129 0.389382 -0.947311
H23   H     H_    0.915190 0.100758 0.461926 0.255165
H24   H     H_    0.890633 0.047527 0.313225 0.261150
H25   H     H_    0.806803 0.049335 0.427606 0.257414
O10   O     O_3   0.773854 0.676229 0.486740 -0.583417
C40   C     C_3   0.758359 0.710816 0.366408 0.104372
H26   H     H_    0.688000 0.696800 0.338914 0.180681
H27   H     H_    0.800471 0.676694 0.295640 0.103562
C41   C     C_3   0.776061 0.818955 0.365564 -0.342367
H28   H     H_    0.740815 0.854414 0.441175 0.236034
H29   H     H_    0.848121 0.832595 0.380631 0.208282
C42   C     C_3   0.745449 0.862497 0.244038 -0.938551
H30   H     H_    0.780929 0.828620 0.167245 0.253234
H31   H     H_    0.759496 0.940791 0.244986 0.266463
H32   H     H_    0.673040 0.851690 0.229156 0.283506
O11   O     O_3   0.600990 0.253802 0.670801 -0.549939
C43   C     C_3   0.676051 0.202137 0.715020 0.058234
H33   H     H_    0.731722 0.254237 0.723566 0.157479
H34   H     H_    0.699761 0.145593 0.651429 0.084531
C44   C     C_3   0.659536 0.158352 0.840972 -0.330707
H35   H     H_    0.630045 0.212295 0.902233 0.271138
H36   H     H_    0.610808 0.098796 0.833677 0.198671
C45   C     C_3   0.745358 0.120351 0.899748 -0.962902
H37   H     H_    0.770317 0.059123 0.845059 0.266459
H38   H     H_    0.732863 0.096649 0.994381 0.268746
H39   H     H_    0.798052 0.176031 0.904885 0.242331
O12   O     O_3   0.623843 0.761275 0.638645 -0.596779
C46   C     C_3   0.603321 0.801702 0.754762 0.076728
H40   H     H_    0.601136 0.742633 0.819836 0.267350
H41   H     H_    0.536908 0.836279 0.758576 0.117905
C47   C     C_3   0.673858 0.873786 0.801272 -0.432217
H42   H     H_    0.740878 0.847342 0.780667 0.241344
H43   H     H_    0.665445 0.943119 0.754187 0.205808
C48   C     C_3   0.666345 0.891806 0.939190 -0.893750
H44   H     H_    0.608429 0.938096 0.957040 0.268874
H45   H     H_    0.727342 0.927503 0.976113 0.260606
H46   H     H_    0.658399 0.823631 0.989480 0.271403
O13   O     O_3   0.462768 0.673361 0.876283 -0.577419
C49   C     C_3   0.389107 0.736571 0.871716 0.040217
H47   H     H_    0.414506 0.810949 0.886532 0.157249
H48   H     H_    0.341296 0.723823 0.945685 0.121631
C50   C     C_3   0.341220 0.730086 0.746400 -0.315624
H49   H     H_    0.389195 0.744702 0.674559 0.244335
H50   H     H_    0.313583 0.656679 0.730893 0.211760
C51   C     C_3   0.266407 0.802815 0.735718 -0.945539
H51   H     H_    0.216612 0.789255 0.806284 0.256490
H52   H     H_    0.233454 0.796107 0.643645 0.259885
H53   H     H_    0.292926 0.877082 0.747425 0.255222
O14   O     O_3   0.487064 0.318614 0.874983 -0.539305
C52   C     C_3   0.420224 0.255819 0.824961 0.146510
H54   H     H_    0.453503 0.198898 0.772539 0.169904
H55   H     H_    0.375315 0.293323 0.758597 0.126181
C53   C     C_3   0.367601 0.204836 0.923418 -0.432811
H56   H     H_    0.413864 0.165894 0.985955 0.237637
H57   H     H_    0.330077 0.257842 0.977625 0.206332
C54   C     C_3   0.302132 0.132402 0.865481 -0.928716
H58   H     H_    0.254341 0.169293 0.802944 0.254227
H59   H     H_    0.264848 0.096747 0.938440 0.259460
H60   H     H_    0.337771 0.076519 0.813126 0.254054
O15   O     O_3   0.639566 0.591148 0.904229 -0.650757
C55   C     C_3   0.710358 0.588129 0.821074 0.085937
H61   H     H_    0.686329 0.617711 0.732971 0.227296
H62   H     H_    0.736271 0.516855 0.795916 0.158339
C56   C     C_3   0.786830 0.651350 0.872812 -0.397462
H63   H     H_    0.761635 0.721960 0.900949 0.243011
H64   H     H_    0.816676 0.621111 0.957222 0.205793
C57   C     C_3   0.859625 0.664956 0.781212 -0.894970
H65   H     H_    0.883683 0.594196 0.748517 0.256503
H66   H     H_    0.915989 0.704757 0.825861 0.245600
H67   H     H_    0.834546 0.707672 0.702735 0.302758
O16   O     O_3   0.645582 0.420260 0.892589 -0.611113
C58   C     C_3   0.711364 0.375672 0.969051 0.041901
H68   H     H_    0.743826 0.322958 0.910349 0.177400
H69   H     H_    0.680891 0.332562 0.041378 0.174406
C59   C     C_3   0.788665 0.438593 0.018730 -0.437555
H70   H     H_    0.829950 0.460880 0.941737 0.223188
H71   H     H_    0.765229 0.502405 0.069204 0.227420
C60   C     C_3   0.848567 0.381880 0.105869 -0.917463
H72   H     H_    0.809818 0.355186 0.182756 0.298741
H73   H     H_    0.902769 0.428924 0.143273 0.262380
H74   H     H_    0.877993 0.319793 0.057253 0.248468

loop_
_geom_bond_atom_site_label_1
_geom_bond_atom_site_label_2
_ccdc_geom_bond_type
C19   N2    A    
C15   C18   A    
C24   C25   S    
C11   C13   A    
C38   H21   S    
C30   H9    S    
C44   H35   S    
C39   H25   S    
C4    C8    A    
C54   H60   S    
C53   H56   S    
C49   H47   S    
C3    H13   S    
C44   C45   S    
O15   C55   S    
C23   H6    S    
C18   O11   S    
Cu1   O3    S    
C32   H11   S    
C58   H69   S    
C26   O5    A    
C39   H24   S    
C31   O14   S    
O16   C58   S    
Cu2   O2    S    
C48   H45   S    
C56   C57   S    
C22   H5    S    
C47   H42   S    
C29   C33   S    
C2    C32   S    
C15   H1    S    
C29   C36   S    
C58   H68   S    
C31   H10   S    
C52   C53   S    
C41   C42   S    
C37   H19   S    
C60   H73   S    
C51   H53   S    
C2    C34   S    
Cu1   O7    S    
C38   H22   S    
C57   H67   S    
O12   C46   S    
C17   C33   S    
C20   N1    A    
Cu2   O6    S    
C40   H27   S    
C51   H52   S    
C40   H26   S    
C27   C34   S    
C57   H65   S    
C30   C34   S    
C36   N4    T    
C58   C59   S    
C41   H28   S    
Cu1   O5    S    
C3    C8    A    
C10   C14   A    
C50   C51   S    
O11   C43   S    
C5    C7    A    
C20   H3    S    
C55   H61   S    
C54   H59   S    
C59   C60   S    
C43   C44   S    
C4    H14   S    
Cu1   Cu2   S    
C55   C56   S    
C9    C14   A    
C59   H71   S    
C1    O1    A    
C37   C38   S    
C43   H34   S    
C31   C34   S    
C46   H41   S    
C39   H23   S    
C60   H74   S    
C9    C11   A    
C10   C12   A    
C18   N1    A    
C17   O3    A    
C4    C6    A    
C15   C24   A    
C20   C22   A    
C28   C33   S    
C35   N3    T    
C45   H38   S    
C21   C23   A    
C29   H8    S    
C52   H54   S    
C38   C39   S    
C22   C24   A    
C13   C26   S    
C48   H46   S    
C9    H17   S    
C54   H58   S    
C53   C54   S    
C3    C5    A    
C40   C41   S    
C51   H51   S    
C55   H62   S    
C52   H55   S    
O13   C49   S    
C16   C25   A    
C8    C14   S    
Cu1   N2    S    
C1    C7    S    
C5    H15   S    
C41   H29   S    
O10   C40   S    
Cu2   O4    S    
C53   H57   S    
C21   N2    A    
C49   H48   S    
C56   H63   S    
C44   H36   S    
C6    C7    A    
C2    O16   S    
C45   H39   S    
C28   H7    S    
C2    O15   S    
Cu1   O1    S    
C32   C33   S    
C50   H50   S    
C28   C35   S    
C26   O6    A    
C29   C31   S    
C11   O9    S    
Cu2   O8    S    
C50   H49   S    
C56   H64   S    
C32   H12   S    
C21   H4    S    
C47   H43   S    
C16   C19   A    
C12   O10   S    
C28   C30   S    
C43   H33   S    
C19   O12   S    
C46   C47   S    
C57   H66   S    
C23   C25   A    
O9    C37   S    
C10   H18   S    
C49   C50   S    
C27   O8    A    
C17   O4    A    
C12   C13   A    
C42   H30   S    
C45   H37   S    
C42   H32   S    
C48   H44   S    
C46   H40   S    
Cu2   N1    S    
C42   H31   S    
C59   H70   S    
C27   O7    A    
C37   H20   S    
C6    H16   S    
C60   H72   S    
C1    O2    A    
C30   O13   S    
C16   H2    S    
O14   C52   S    
C47   C48   S    
