data_mof_unit_46101.cif
_audit_creation_date              2012-12-11T15:48:53-0500
_audit_creation_method            fapswitch 2.2
_symmetry_space_group_name_H-M    P1
_symmetry_Int_Tables_number       1
_space_group_crystal_system       triclinic
_cell_length_a                    11.15211
_cell_length_b                    11.224735
_cell_length_c                    18.709136
_cell_angle_alpha                 91.158878
_cell_angle_beta                  90.090181
_cell_angle_gamma                 60.102983
_cell_volume                      2029.81981698

loop_
_atom_site_label
_atom_site_type_symbol
_atom_type_description
_atom_site_fract_x
_atom_site_fract_y
_atom_site_fract_z
_atom_type_partial_charge
Br1   Br    Br    0.058034 0.051476 0.638709 -0.507613
Br2   Br    Br    0.452120 0.927930 0.352665 -0.505747
Br3   Br    Br    0.948061 0.567577 0.358607 -0.495744
Br4   Br    Br    0.591407 0.922283 0.619269 -0.496642
C1    C     C_R   0.239898 0.646053 0.609880 0.581973
C2    C     C_R   0.566826 0.161479 0.711933 -0.160633
C3    C     C_R   0.576190 0.156153 0.784691 -0.207818
C4    C     C_R   0.653563 0.621504 0.600742 0.631556
C5    C     C_3   0.914475 0.151296 0.777524 -0.253597
C6    C     C_3   0.897457 0.167928 0.696772 0.016002
C7    C     C_R   0.671876 0.158226 0.669842 0.043638
C8    C     C_R   0.179749 0.668518 0.835328 0.000677
C9    C     C_R   0.153057 0.581075 0.792847 0.005005
C10   C     C_R   0.154224 0.583716 0.718903 -0.019772
C11   C     C_R   0.218449 0.758805 0.726905 -0.071958
C12   C     C_3   0.651617 0.611096 0.804623 -0.199696
C13   C     C_R   0.210799 0.759728 0.800921 -0.155889
C14   C     C_3   0.215250 0.429194 0.793552 -0.284470
C15   C     C_3   0.206233 0.433182 0.712403 -0.268141
C16   C     C_R   0.628820 0.227112 0.601455 0.590887
C17   C     C_R   0.193403 0.668229 0.684252 0.046687
C18   C     C_R   0.661552 0.676845 0.171336 -0.012091
C19   C     C_R   0.754686 0.556579 0.205582 0.044174
C20   C     C_R   0.745192 0.542167 0.277364 -0.010346
C21   C     C_R   0.561837 0.776003 0.288695 0.090003
C22   C     C_R   0.560751 0.786983 0.213621 -0.174092
C23   C     C_3   0.722217 0.698300 0.807497 -0.012275
C24   C     C_3   0.908755 0.493849 0.210776 -0.215224
C25   C     C_3   0.896117 0.470157 0.288808 0.022247
C26   C     C_R   0.651427 0.650452 0.319409 0.069030
C27   C     C_R   0.625945 0.214043 0.162516 0.030888
C28   C     C_R   0.228284 0.646293 0.399939 0.555503
C29   C     C_R   0.501887 0.248450 0.197372 -0.074525
C30   C     C_R   0.486162 0.277968 0.270560 0.003245
C31   C     C_R   0.698341 0.282265 0.271612 -0.148600
C32   C     C_R   0.716421 0.249451 0.197413 0.251825
C33   C     C_3   0.438197 0.160535 0.201203 -0.249320
C34   C     C_3   0.676609 0.656387 0.674388 0.080215
C35   C     C_3   0.437415 0.178421 0.281126 0.192220
C36   C     C_R   0.589068 0.284038 0.309846 -0.073298
C37   C     C_R   0.153837 0.674979 0.179895 0.020500
C38   C     C_R   0.144173 0.784828 0.219657 0.024537
C39   C     C_R   0.148579 0.783413 0.292713 0.027329
C40   C     C_R   0.640868 0.620251 0.392619 0.606379
C41   C     C_R   0.197350 0.549710 0.287143 -0.120309
C42   C     C_R   0.181648 0.554935 0.213519 -0.164378
C43   C     C_3   0.240714 0.838508 0.212069 -0.293577
C44   C     C_3   0.240386 0.844314 0.291730 -0.239159
C45   C     C_3   0.829780 0.618159 0.684051 -0.277080
C46   C     C_R   0.176950 0.664244 0.327840 0.050870
C47   C     C_R   0.705844 0.093805 0.894415 0.545915
C48   C     C_R   0.754524 0.710845 0.883441 0.553790
C49   C     C_R   0.118078 0.706055 0.906423 0.536283
C50   C     C_R   0.671351 0.115719 0.100916 0.561439
C51   C     C_R   0.698553 0.693752 0.098948 0.563976
C52   C     C_R   0.579532 0.295406 0.388622 0.547068
C53   C     C_R   0.095663 0.709227 0.110415 0.546275
C54   C     C_3   0.624590 0.838064 0.770424 -0.232599
C55   C     C_3   0.582616 0.809847 0.695060 0.015729
C56   C     C_3   0.647164 0.568265 0.726953 0.127237
C57   C     C_3   0.857094 0.630266 0.763650 -0.278709
C58   C     C_3   0.949014 0.150469 0.180799 -0.104999
C59   C     C_3   0.215956 0.199618 0.287579 -0.084137
C60   C     C_3   0.510618 0.472618 0.751030 -0.137851
C61   C     C_R   0.697560 0.132140 0.819558 -0.012901
C62   C     C_R   0.814624 0.098091 0.776189 -0.003589
C63   C     C_R   0.800106 0.114881 0.702135 0.067210
Cr1   Cr    Cr6+3 0.392960 0.397920 0.502240 1.110318
Cr2   Cr    Cr6+3 0.398340 0.708480 0.501250 1.139195
Cr3   Cr    Cr6+3 0.708670 0.393570 0.496460 1.080885
Cr4   Cr    Cr6+3 0.937650 0.938540 0.007610 1.025083
Cr5   Cr    Cr6+3 0.625330 0.937370 0.994520 0.998980
Cr6   Cr    Cr6+3 0.937940 0.625230 0.001190 1.007653
H1    H     H_    0.681239 0.894935 0.764762 0.168958
H2    H     H_    0.257104 0.820828 0.704090 0.193908
H3    H     H_    0.529427 0.902962 0.802744 0.133974
H4    H     H_    0.229115 0.832421 0.831124 0.132465
H5    H     H_    0.148078 0.395396 0.819386 0.146019
H6    H     H_    0.321751 0.380848 0.814310 0.124732
H7    H     H_    0.304648 0.378425 0.683181 0.159810
H8    H     H_    0.127432 0.409398 0.691464 0.151091
H9    H     H_    0.485089 0.879922 0.188911 0.127461
H10   H     H_    0.940372 0.571557 0.201722 0.176196
H11   H     H_    0.964360 0.398257 0.177666 0.137427
H12   H     H_    0.733505 0.463286 0.719911 0.103315
H13   H     H_    0.934082 0.362162 0.302358 0.117495
H14   H     H_    0.473167 0.833811 0.697867 0.173977
H15   H     H_    0.774028 0.296686 0.300158 0.138095
H16   H     H_    0.509914 0.052656 0.186211 0.142044
H17   H     H_    0.337515 0.209340 0.173227 0.124466
H18   H     H_    0.524060 0.090686 0.307543 0.201493
H19   H     H_    0.221719 0.458429 0.313749 0.240778
H20   H     H_    0.188618 0.468019 0.183713 0.127964
H21   H     H_    0.196690 0.939962 0.187493 0.116121
H22   H     H_    0.340948 0.759528 0.188086 0.146773
H23   H     H_    0.927853 0.526598 0.784315 0.145172
H24   H     H_    0.342586 0.770549 0.313082 0.191676
H25   H     H_    0.187831 0.950103 0.315333 0.168958
H26   H     H_    0.902288 0.698019 0.769186 0.143170
H27   H     H_    0.854410 0.685803 0.652072 0.186867
H28   H     H_    0.707397 0.516778 0.836884 0.117381
H29   H     H_    0.545052 0.672429 0.827345 0.148377
H30   H     H_    0.953623 0.049405 0.182668 0.167906
H31   H     H_    0.976550 0.175301 0.233699 0.063533
H32   H     H_    0.027328 0.142088 0.141490 0.126288
H33   H     H_    0.264997 0.098754 0.258707 0.120986
H34   H     H_    0.900576 0.510930 0.665213 0.137713
H35   H     H_    0.152318 0.278712 0.248959 0.092316
H36   H     H_    0.149377 0.196173 0.330428 0.173892
H37   H     H_    0.457533 0.516010 0.802894 0.132620
H38   H     H_    0.611303 0.380438 0.761932 0.100504
H39   H     H_    0.450541 0.438503 0.719262 0.153020
H40   H     H_    0.471488 0.176367 0.689505 0.184861
H41   H     H_    0.487795 0.164205 0.812858 0.153336
H42   H     H_    0.019676 0.071269 0.793658 0.169626
H43   H     H_    0.873002 0.250791 0.807493 0.099173
H44   H     H_    0.848473 0.272864 0.677489 0.145101
O1    O     O_R   0.507380 0.255700 0.581440 -0.498586
O2    O     O_R   0.837170 0.593410 0.915250 -0.518772
O3    O     O_R   0.065200 0.635530 0.931570 -0.512701
O4    O     O_R   0.280320 0.527350 0.578930 -0.512531
O5    O     O_R   0.068260 0.828890 0.091840 -0.529081
O6    O     O_R   0.798870 0.057410 0.079340 -0.470304
O7    O     O_R   0.584930 0.080350 0.076780 -0.535860
O8    O     O_R   0.626960 0.809650 0.067060 -0.507529
O9    O     O_R   0.816040 0.596610 0.076510 -0.505052
O10   O     O_R   0.045610 0.638500 0.081060 -0.518753
O11   O     O_3   0.833640 0.833710 0.001100 -0.283816
O12   O     O_R   0.524480 0.695810 0.424040 -0.468836
O13   O     O_R   0.260510 0.739590 0.584590 -0.461601
O14   O     O_R   0.532300 0.695080 0.573820 -0.437313
O15   O     O_R   0.744840 0.503500 0.576370 -0.525893
O16   O     O_R   0.699120 0.276560 0.571960 -0.485703
O17   O     O_R   0.498940 0.256500 0.419860 -0.430553
O18   O     O_R   0.272500 0.528080 0.429150 -0.496011
O19   O     O_R   0.252060 0.740380 0.423010 -0.507097
O20   O     O_3   0.818884 0.254460 0.158468 -0.556578
O21   O     O_3   0.310085 0.234236 0.318923 -0.511780
O22   O     O_3   0.520648 0.573523 0.712009 -0.590415
O23   O     O_R   0.736390 0.504290 0.414790 -0.501153
O24   O     O_R   0.691300 0.277290 0.422170 -0.500537
O25   O     O_3   0.499990 0.499990 0.499980 -0.337575
O26   O     O_R   0.089400 0.825690 0.930570 -0.525569
O27   O     O_R   0.818460 0.054440 0.929850 -0.493313
O28   O     O_R   0.606060 0.077150 0.915510 -0.539902
O29   O     O_R   0.646550 0.806680 0.917570 -0.509874

loop_
_geom_bond_atom_site_label_1
_geom_bond_atom_site_label_2
_ccdc_geom_bond_type
C11   H2    S    
C50   O6    A    
Cr3   O23   S    
Cr6   O2    S    
C24   H11   S    
C37   C38   A    
Cr4   O5    S    
C31   C32   A    
C16   O1    A    
C57   H23   S    
C54   H3    S    
C45   H34   S    
C58   H32   S    
C6    C63   S    
C44   H24   S    
C42   H20   S    
C33   H17   S    
Cr5   O11   S    
C30   C36   A    
C10   C17   A    
Cr4   O6    S    
C24   C25   S    
C12   C56   S    
C60   H39   S    
C47   O28   A    
Cr5   O28   S    
C1    O4    A    
C14   C15   S    
C47   C61   S    
Br3   C25   S    
C41   H19   S    
C20   C25   S    
C23   C57   S    
Cr1   O1    S    
C53   O5    A    
C5    C62   S    
C51   O8    A    
Cr2   O13   S    
C36   C52   S    
C8    C13   A    
C4    O15   A    
Cr3   O16   S    
C37   C42   A    
C27   C29   A    
Cr1   O25   S    
C16   O16   A    
C39   C44   S    
C8    C49   S    
Cr2   O14   S    
C12   C23   S    
C62   C63   A    
C35   O21   S    
C22   H9    S    
Cr6   O3    S    
C9    C10   A    
Cr5   O7    S    
C24   H10   S    
C26   C40   S    
C57   H26   S    
C4    C34   S    
C5    C6    S    
C35   H18   S    
C21   C22   A    
C7    C63   A    
C58   H31   S    
C7    C16   S    
C49   O3    A    
C45   C57   S    
C30   C35   S    
C5    H42   S    
C27   C50   S    
C2    C7    A    
C34   C45   S    
C14   H6    S    
C60   H38   S    
C56   O22   S    
Cr2   O25   S    
C47   O27   A    
C29   C33   S    
C49   O26   A    
C59   H36   S    
C2    H40   S    
C3    C61   A    
C31   H15   S    
C60   H37   S    
C43   C44   S    
C51   O9    A    
C14   H5    S    
C4    O14   A    
Cr3   O15   S    
C29   C30   A    
C19   C24   S    
C59   H33   S    
C28   C46   S    
C25   H13   S    
C2    C3    A    
C34   C56   S    
C52   O24   A    
C9    C14   S    
C12   H29   S    
C1    O13   A    
Cr2   O19   S    
C59   O21   S    
Cr4   O11   S    
C20   C26   A    
C38   C39   A    
C23   C48   S    
C54   H1    S    
C28   O19   A    
C58   H30   S    
C32   O20   S    
C21   C26   A    
C11   C13   A    
C50   O7    A    
Cr3   O24   S    
C48   O29   A    
C27   C32   A    
C5    H43   S    
C10   C15   S    
Cr1   O18   S    
Br1   C6    S    
C23   C54   S    
Cr1   O4    S    
C53   O10   A    
Cr3   O25   S    
C52   O17   A    
C56   H12   S    
C39   C46   A    
C18   C51   S    
C40   O12   A    
Cr6   O11   S    
C44   H25   S    
C33   H16   S    
Cr5   O8    S    
Cr1   O17   S    
C31   C36   A    
C54   C55   S    
C37   C53   S    
C33   C35   S    
C6    H44   S    
Cr6   O10   S    
C45   H27   S    
C13   H4    S    
Cr4   O26   S    
C41   C46   A    
Cr2   O12   S    
Cr5   O29   S    
Br4   C55   S    
C43   H21   S    
Br2   C21   S    
C38   C43   S    
C58   O20   S    
C15   H7    S    
C55   H14   S    
C28   O18   A    
C19   C20   A    
C34   C55   S    
C48   O2    A    
C41   C42   A    
C12   H28   S    
C11   C17   A    
C1    C17   S    
C8    C9    A    
C40   O23   A    
C61   C62   A    
C18   C22   A    
C43   H22   S    
C18   C19   A    
C59   H35   S    
C15   H8    S    
C3    H41   S    
Cr6   O9    S    
Cr4   O27   S    
C60   O22   S    
