data_mof_unit_38160.cif
_audit_creation_date              2012-12-10T20:51:27-0500
_audit_creation_method            fapswitch 2.2
_symmetry_space_group_name_H-M    P1
_symmetry_Int_Tables_number       1
_space_group_crystal_system       triclinic
_cell_length_a                    17.488943
_cell_length_b                    8.929022
_cell_length_c                    8.111092
_cell_angle_alpha                 90.049396
_cell_angle_beta                  90.550406
_cell_angle_gamma                 90.008713
_cell_volume                      1266.56235723

loop_
_atom_site_label
_atom_site_type_symbol
_atom_type_description
_atom_site_fract_x
_atom_site_fract_y
_atom_site_fract_z
_atom_type_partial_charge
C1    C     C_R   0.500056 0.218015 0.499958 0.933904
C2    C     C_R   0.852191 0.575449 0.418385 -0.024717
C3    C     C_R   0.760665 0.354612 0.566856 -0.218687
C4    C     C_R   0.228921 0.505639 0.352918 -0.180152
C5    C     C_R   0.235258 0.407861 0.631348 -0.219071
C6    C     C_R   0.773072 0.592841 0.426529 -0.210382
C7    C     C_R   0.728382 0.484350 0.501643 -0.054093
C8    C     C_R   0.270690 0.474307 0.496179 -0.069036
C9    C     C_R   0.885015 0.441603 0.482579 -0.035010
C10   C     C_R   0.114737 0.413740 0.484111 -0.043566
C11   C     C_1   0.965701 0.424096 0.485916 0.141798
C12   C     C_R   0.500031 0.781988 0.500045 0.939141
C13   C     C_1   0.033590 0.414607 0.487329 0.098624
C14   C     C_2   0.870243 0.183460 0.613343 0.969178
C15   C     C_2   0.108676 0.512761 0.189434 1.053339
C16   C     C_2   0.122844 0.298082 0.772926 0.972806
C17   C     C_2   0.897303 0.699776 0.342946 0.936953
C18   C     C_1   0.500083 0.065208 0.499942 -0.173925
C19   C     C_1   0.500074 0.934802 0.500067 -0.173271
C20   C     C_R   0.352930 0.497231 0.499136 0.874734
C21   C     C_R   0.646631 0.500137 0.500750 0.871102
C22   C     C_R   0.838961 0.329233 0.554220 -0.016704
C23   C     C_R   0.150989 0.475008 0.344451 -0.122858
C24   C     C_R   0.157201 0.374511 0.627207 -0.006897
H1    H     H_    0.723927 0.270085 0.620440 0.170488
H2    H     H_    0.257233 0.553628 0.246965 0.180681
H3    H     H_    0.269260 0.378926 0.739092 0.194148
H4    H     H_    0.745548 0.691399 0.375317 0.186637
H5    H     H_    0.948530 0.019230 0.587068 0.368793
H6    H     H_    0.049035 0.318415 0.181190 0.311919
H7    H     H_    0.032212 0.192980 0.873330 0.369731
H8    H     H_    0.898045 0.912868 0.259156 0.375550
N1    N     N_1   0.500000 0.500000 0.073640 -0.023255
N2    N     N_1   0.500000 0.500000 0.926360 -0.023289
O1    O     O_R   0.500000 0.285350 0.636850 -0.615240
O2    O     O_R   0.933573 0.119063 0.536770 -0.776934
O3    O     O_2   0.124882 0.626777 0.114396 -0.548941
O4    O     O_R   0.051340 0.419648 0.125269 -0.738841
O5    O     O_2   0.161311 0.278429 0.897860 -0.630310
O6    O     O_R   0.047774 0.244513 0.767491 -0.776105
O7    O     O_2   0.964449 0.682963 0.307294 -0.605420
O8    O     O_R   0.862091 0.837624 0.310895 -0.789838
O9    O     O_R   0.500000 0.714650 0.363150 -0.613520
O10   O     O_R   0.500000 0.714650 0.636850 -0.609889
O11   O     O_R   0.500000 0.285350 0.363150 -0.610185
O12   O     O_R   0.389120 0.500000 0.636930 -0.618169
O13   O     O_R   0.610880 0.500000 0.363070 -0.609611
O14   O     O_R   0.610880 0.500000 0.636930 -0.608246
O15   O     O_R   0.389120 0.500000 0.363070 -0.619134
O16   O     O_2   0.839048 0.117175 0.726232 -0.606572
Zn1   Zn    Zn3+2 0.500000 0.500000 0.682780 1.011183
Zn2   Zn    Zn3+2 0.500000 0.500000 0.317220 1.011157

loop_
_geom_bond_atom_site_label_1
_geom_bond_atom_site_label_2
_ccdc_geom_bond_type
C5    C8    A    
C4    H2    S    
C15   O4    S    
C2    C17   S    
C6    C7    A    
C10   C23   A    
C20   O15   A    
C11   C13   T    
O11   Zn2   S    
C5    H3    S    
C4    C8    A    
O15   Zn2   S    
C21   O14   A    
C15   C23   S    
N1    N2    T    
C1    C18   S    
C16   C24   S    
C8    C20   S    
N1    Zn2   S    
C14   O2    S    
C9    C11   S    
H5    O2    S    
C1    O11   A    
N2    Zn1   S    
C14   O16   D    
C5    C24   A    
C16   O6    S    
O10   Zn1   S    
C12   O9    A    
C3    C7    A    
O1    Zn1   S    
C14   C22   S    
O9    Zn2   S    
C17   O7    D    
C9    C22   A    
C16   O5    D    
C20   O12   A    
C3    H1    S    
H7    O6    S    
C12   C19   S    
C12   O10   A    
C18   C19   T    
O13   Zn2   S    
C4    C23   A    
C1    O1    A    
H8    O8    S    
C17   O8    S    
C15   O3    D    
C3    C22   A    
H6    O4    S    
C10   C24   A    
C7    C21   S    
C2    C9    A    
O12   Zn1   S    
O14   Zn1   S    
C6    H4    S    
C2    C6    A    
C21   O13   A    
C10   C13   S    
