data_mof_unit_51299.cif
_audit_creation_date              2013-03-05T16:43:53-0500
_audit_creation_method            fapswitch 2.2
_symmetry_space_group_name_H-M    P1
_symmetry_Int_Tables_number       1
_space_group_crystal_system       triclinic
_cell_length_a                    9.872978
_cell_length_b                    10.664232
_cell_length_c                    16.634113
_cell_angle_alpha                 90.632323
_cell_angle_beta                  86.120671
_cell_angle_gamma                 89.601317
_cell_volume                      1747.19662772

loop_
_atom_site_label
_atom_site_type_symbol
_atom_site_description
_atom_site_fract_x
_atom_site_fract_y
_atom_site_fract_z
_atom_type_partial_charge
O1    O     O_R   0.385310 0.683210 0.499990 -0.607793
O2    O     O_R   0.614650 0.683240 0.500000 -0.614755
C1    C     C_R   0.500215 0.740082 0.496509 0.898984
O3    O     O_R   0.371780 0.500000 0.615800 -0.610070
O4    O     O_R   0.601120 0.500040 0.615800 -0.616745
C2    C     C_R   0.482274 0.499367 0.653824 0.894900
Zn1   Zn    Zn3+2 0.346870 0.499980 0.499990 0.965425
Zn2   Zn    Zn3+2 0.653130 0.500020 0.500010 0.962988
O5    O     O_R   0.385350 0.316760 0.500000 -0.620556
O6    O     O_R   0.614690 0.316790 0.500010 -0.621084
O7    O     O_R   0.398880 0.499960 0.384200 -0.620496
O8    O     O_R   0.628220 0.500000 0.384200 -0.615998
C3    C     C_R   0.500834 0.259898 0.496408 0.884354
C4    C     C_R   0.517447 0.508737 0.346963 0.877884
C5    C     C_R   0.473905 0.509772 0.741785 -0.052979
C6    C     C_R   0.591554 0.535703 0.781424 -0.186435
C7    C     C_R   0.583253 0.562531 0.863126 -0.070137
C8    C     C_R   0.456403 0.567402 0.906026 0.200266
C9    C     C_R   0.339841 0.531888 0.868499 -0.087563
C10   C     C_R   0.348683 0.502405 0.786599 -0.117396
C11   C     C_R   0.417331 0.685888 0.166600 0.293666
C12   C     C_R   0.412865 0.628676 0.241611 -0.249744
C13   C     C_R   0.642847 0.549593 0.215253 -0.171399
C14   C     C_R   0.647523 0.603649 0.139451 -0.151310
C15   C     C_R   0.534118 0.668247 0.114036 -0.009839
C16   C     C_2   0.446588 0.596711 0.992021 -0.312478
C17   C     C_2   0.524709 0.681531 0.027394 0.316759
C18   C     C_R   0.523627 0.557985 0.265416 -0.095448
H1    H     H_    0.689861 0.538448 0.749381 0.158025
H2    H     H_    0.323182 0.641503 0.282176 0.201226
H3    H     H_    0.730455 0.498389 0.233697 0.168513
H4    H     H_    0.242092 0.529100 0.902230 0.154064
H5    H     H_    0.257539 0.476625 0.758362 0.151207
H6    H     H_    0.381600 0.535551 0.029469 0.150738
H7    H     H_    0.675843 0.580881 0.892499 0.151103
H8    H     H_    0.736308 0.588115 0.098498 0.176660
C19   C     C_R   0.381122 0.936593 0.475323 0.090864
C20   C     C_R   0.502353 0.870990 0.480728 -0.106815
C21   C     C_R   0.626538 0.933792 0.468976 -0.177719
H9    H     H_    0.722863 0.884133 0.466415 0.182137
C22   C     C_R   0.626868 0.063538 0.469050 -0.198965
H10   H     H_    0.723292 0.111704 0.466562 0.173118
C23   C     C_R   0.503015 0.128547 0.480766 -0.100416
C24   C     C_R   0.381348 0.064723 0.475225 0.124313
C25   C     C_3   0.252308 0.073873 0.527450 -0.458154
C26   C     C_3   0.253167 0.931959 0.528234 -0.364184
H11   H     H_    0.266290 0.116979 0.587498 0.218964
H12   H     H_    0.167690 0.114064 0.494897 0.206082
H13   H     H_    0.270949 0.893314 0.588368 0.261706
H14   H     H_    0.168223 0.889486 0.497076 0.218403
C27   C     C_R   0.922194 0.581264 0.548426 0.197748
N1    N     N_R   0.857140 0.500860 0.500530 -0.106300
C28   C     C_R   0.934620 0.426239 0.447803 -0.112933
H15   H     H_    0.885491 0.364777 0.406765 0.147913
C29   C     C_R   0.078493 0.425737 0.448075 -0.118742
H16   H     H_    0.137862 0.363677 0.407410 0.156264
N2    N     N_R   0.142780 0.500820 0.500530 -0.131029
C30   C     C_R   0.065154 0.584085 0.547138 0.136734
C31   C     C_3   0.059398 0.592695 0.637096 0.103943
C32   C     C_3   0.906122 0.583545 0.637842 -0.556196
H17   H     H_    0.108166 0.511637 0.665071 0.111984
H18   H     H_    0.868673 0.492367 0.661788 0.182112
H19   H     H_    0.848451 0.667270 0.661801 0.247783
N3    N     N_R   0.104458 0.714856 0.665722 0.229547
O9    O     O_R   0.205254 0.721043 0.711945 -0.381898
O10   O     O_R   0.040807 0.817585 0.648727 -0.405823
N4    N     N_R   0.602186 0.776093 0.983821 0.224520
O11   O     O_R   0.703308 0.829597 0.016527 -0.345717
O12   O     O_R   0.558202 0.824040 0.918743 -0.323310
N5    N     N_R   0.301774 0.756902 0.143286 0.205268
O13   O     O_R   0.182454 0.740638 0.179758 -0.381802
O14   O     O_R   0.316785 0.845258 0.090143 -0.323940

loop_
_geom_bond_atom_site_label_1
_geom_bond_atom_site_label_2
_geom_bond_distance
_ccdc_geom_bond_type
O4    Zn2   1.959480 S    
N5    O14   1.301470 A    
C23   C24   1.392713 A    
C14   C15   1.402372 A    
C19   C20   1.390830 A    
C15   C17   1.458840 S    
C7    H7    1.083280 S    
C22   H10   1.083411 S    
Zn2   N1    2.014872 S    
C28   C29   1.420740 A    
C9    C10   1.391574 A    
C8    C16   1.457482 S    
Zn2   O8    1.958464 S    
C11   N5    1.442172 S    
C13   C14   1.390275 A    
N3    O9    1.299687 A    
C19   C24   1.366448 A    
C29   N2    1.368166 A    
C7    C8    1.399196 A    
C2    C5    1.462837 S    
C25   C26   1.513576 S    
C31   C32   1.516339 S    
C21   C22   1.383660 A    
C27   C30   1.410686 A    
C12   C18   1.405229 A    
C28   H15   1.081762 S    
N1    C28   1.368583 A    
Zn1   O7    1.959480 S    
C22   C23   1.402430 A    
C26   H13   1.110437 S    
N2    C30   1.368154 A    
C14   H8    1.083771 S    
O3    Zn1   1.958464 S    
O4    C2    1.294870 A    
C10   H5    1.078770 S    
Zn2   O6    1.993113 S    
C19   C26   1.491429 S    
O8    C4    1.296135 A    
C26   H14   1.111769 S    
O2    C1    1.283524 A    
C25   H11   1.112425 S    
C16   C17   1.348569 D    
C20   C21   1.404253 A    
O7    C4    1.291295 A    
C32   H19   1.111118 S    
C29   H16   1.081762 S    
C31   H17   1.108593 S    
O3    C2    1.297508 A    
C17   N4    1.441957 S    
C13   C18   1.397748 A    
C9    H4    1.083783 S    
N4    O12   1.301768 A    
N4    O11   1.301100 A    
C31   N3    1.464538 S    
C3    C23   1.421644 S    
N5    O13   1.301689 A    
C24   C25   1.494633 S    
C32   H18   1.111054 S    
C8    C9    1.398396 A    
C25   H12   1.111850 S    
Zn1   N2    2.014345 S    
C21   H9    1.083374 S    
Zn1   O5    1.987900 S    
C11   C15   1.409369 A    
C6    C7    1.382591 A    
O1    Zn1   1.993112 S    
O5    C3    1.285157 A    
C27   C32   1.484995 S    
C12   H2    1.083261 S    
C4    C18   1.457566 S    
C6    H1    1.075976 S    
C11   C12   1.393118 A    
C30   C31   1.495377 S    
C16   H6    1.088948 S    
C5    C6    1.401606 A    
O2    Zn2   1.987899 S    
C27   N1    1.358056 A    
C1    C20   1.423372 S    
C13   H3    1.083269 S    
C5    C10   1.402947 A    
O1    C1    1.288272 A    
O6    C3    1.285719 A    
N3    O10   1.302424 A    
