data_mof_unit_20785.cif
_audit_creation_date              2012-12-11T16:44:10-0500
_audit_creation_method            fapswitch 2.2
_symmetry_space_group_name_H-M    P1
_symmetry_Int_Tables_number       1
_space_group_crystal_system       triclinic
_cell_length_a                    27.076185
_cell_length_b                    7.200015
_cell_length_c                    22.840034
_cell_angle_alpha                 89.984803
_cell_angle_beta                  101.518369
_cell_angle_gamma                 90.013464
_cell_volume                      4362.96725111

loop_
_atom_site_label
_atom_site_type_symbol
_atom_type_description
_atom_site_fract_x
_atom_site_fract_y
_atom_site_fract_z
_atom_type_partial_charge
O1    O     O_R   0.707300 0.594030 0.176840 -0.529185
O2    O     O_R   0.292700 0.405970 0.823160 -0.529184
O3    O     O_R   0.792700 0.094030 0.323160 -0.528992
O4    O     O_R   0.207300 0.905970 0.676840 -0.528993
O5    O     O_R   0.697330 0.262360 0.295660 -0.537301
O6    O     O_R   0.302670 0.737640 0.704340 -0.537302
O7    O     O_R   0.802670 0.762360 0.204340 -0.536914
O8    O     O_R   0.197330 0.237640 0.795660 -0.536915
C1    C     C_R   0.685090 0.432450 0.312183 0.699592
C2    C     C_R   0.314910 0.567550 0.687817 0.699590
C3    C     C_R   0.814934 0.932507 0.187850 0.699292
C4    C     C_R   0.185065 0.067493 0.812149 0.699291
O9    O     O_R   0.701410 0.264250 0.175600 -0.537144
O10   O     O_R   0.298590 0.735750 0.824400 -0.537140
O11   O     O_R   0.798590 0.764250 0.324400 -0.537186
O12   O     O_R   0.201410 0.235750 0.675600 -0.537185
O13   O     O_R   0.796800 0.094950 0.202240 -0.540569
O14   O     O_R   0.203200 0.905050 0.797760 -0.540568
O15   O     O_R   0.703200 0.594950 0.297760 -0.540874
O16   O     O_R   0.296800 0.405050 0.702240 -0.540873
C5    C     C_R   0.689908 0.431736 0.153159 0.703717
C6    C     C_R   0.310092 0.568264 0.846842 0.703711
C7    C     C_R   0.810091 0.931722 0.346841 0.703884
C8    C     C_R   0.189909 0.068278 0.653159 0.703889
O17   O     O_3   0.781290 0.427390 0.258880 -0.373440
O18   O     O_3   0.218710 0.572610 0.741120 -0.373441
O19   O     O_3   0.718710 0.927390 0.241120 -0.373865
O20   O     O_3   0.281290 0.072610 0.758880 -0.373865
V1    V     V_3+5 0.744190 0.152150 0.248350 1.450159
V2    V     V_3+5 0.255810 0.847850 0.751650 1.450154
V3    V     V_3+5 0.755810 0.652150 0.251650 1.450371
V4    V     V_3+5 0.244190 0.347850 0.748350 1.450367
C9    C     C_R   0.154854 0.071851 0.594485 -0.100438
C10   C     C_R   0.845144 0.928145 0.405518 -0.100441
C11   C     C_R   0.345151 0.571800 0.905514 -0.100057
C12   C     C_R   0.654852 0.428194 0.094484 -0.100059
C13   C     C_R   0.132145 0.231914 0.499376 0.302756
C14   C     C_R   0.867854 0.768043 0.500619 0.302727
C15   C     C_R   0.367883 0.731837 0.000603 0.303018
C16   C     C_R   0.632123 0.268112 0.999403 0.302966
C17   C     C_R   0.167965 0.180074 0.549319 -0.152631
C18   C     C_R   0.832034 0.819901 0.450679 -0.152615
C19   C     C_R   0.332051 0.679966 0.950679 -0.154079
C20   C     C_R   0.667951 0.319974 0.049331 -0.154070
C21   C     C_R   0.105993 0.998069 0.586330 -0.176714
C22   C     C_R   0.894005 0.001933 0.413676 -0.176690
C23   C     C_R   0.394009 0.498050 0.913670 -0.176497
C24   C     C_R   0.605999 0.501989 0.086319 -0.176488
C25   C     C_R   0.068563 0.044808 0.535025 0.060763
C26   C     C_R   0.931435 0.955183 0.464980 0.060762
C27   C     C_R   0.431446 0.544808 0.964964 0.060484
C28   C     C_R   0.568564 0.455231 0.035023 0.060523
C29   C     C_R   0.080768 0.181362 0.494943 -0.018335
C30   C     C_R   0.919231 0.818613 0.505057 -0.018338
C31   C     C_R   0.419257 0.681377 0.005019 -0.017494
C32   C     C_R   0.580751 0.318641 0.994971 -0.017476
C33   C     C_R   0.018952 0.965775 0.523815 0.061262
C34   C     C_R   0.981047 0.034216 0.476191 0.061263
C35   C     C_R   0.481049 0.465788 0.976187 0.061127
C36   C     C_R   0.518961 0.534267 0.023795 0.061140
C37   C     C_R   0.992786 0.187752 0.443475 -0.201843
C38   C     C_R   0.007213 0.812235 0.556529 -0.201872
C39   C     C_R   0.507243 0.687870 0.056465 -0.201666
C40   C     C_R   0.492768 0.312200 0.943512 -0.201748
C41   C     C_R   0.041224 0.263820 0.452913 -0.036436
C42   C     C_R   0.958775 0.736157 0.547086 -0.036425
C43   C     C_R   0.458812 0.763954 0.047004 -0.036426
C44   C     C_R   0.541197 0.236115 0.952973 -0.036402
H1    H     H_    0.902980 0.082605 0.377343 0.117338
H2    H     H_    0.097017 0.917410 0.622666 0.117340
H3    H     H_    0.597030 0.582663 0.122640 0.117323
H4    H     H_    0.402980 0.417415 0.877342 0.117319
H5    H     H_    0.793637 0.770325 0.446110 0.150123
H6    H     H_    0.206363 0.229640 0.553885 0.150123
H7    H     H_    0.706344 0.270418 0.053899 0.148409
H8    H     H_    0.293654 0.729472 0.946123 0.148405
H9    H     H_    0.963573 0.259671 0.412712 0.152789
H10   H     H_    0.036426 0.740317 0.587293 0.152776
H11   H     H_    0.536472 0.759834 0.087193 0.152858
H12   H     H_    0.463541 0.240251 0.912779 0.152817
C45   C     C_R   0.856192 0.106808 0.115237 -0.160307
C46   C     C_R   0.143808 0.893192 0.884763 -0.160311
C47   C     C_R   0.643372 0.608011 0.384040 -0.160885
C48   C     C_R   0.356628 0.391989 0.615961 -0.160884
H13   H     H_    0.831023 0.222472 0.117293 0.154950
H14   H     H_    0.168977 0.777528 0.882707 0.154950
H15   H     H_    0.668422 0.723930 0.381754 0.155332
H16   H     H_    0.331579 0.276069 0.618247 0.155332
C49   C     C_R   0.891629 0.122421 0.078407 0.288543
C50   C     C_R   0.108370 0.877578 0.921593 0.288541
C51   C     C_R   0.608202 0.623361 0.421196 0.293091
C52   C     C_R   0.391799 0.376638 0.578805 0.293091
C53   C     C_R   0.925149 0.974851 0.074695 0.015386
C54   C     C_R   0.074851 0.025148 0.925305 0.015387
C55   C     C_R   0.575160 0.474768 0.425696 0.019677
C56   C     C_R   0.424841 0.525232 0.574304 0.019678
C57   C     C_R   0.922311 0.813843 0.108752 -0.113249
C58   C     C_R   0.077688 0.186156 0.891248 -0.113249
C59   C     C_R   0.579368 0.310680 0.393622 -0.122272
C60   C     C_R   0.420632 0.689320 0.606378 -0.122268
H17   H     H_    0.947904 0.699347 0.106974 0.172892
H18   H     H_    0.052096 0.300651 0.893026 0.172892
H19   H     H_    0.554486 0.194619 0.396422 0.162941
H20   H     H_    0.445513 0.805382 0.603578 0.162943
C61   C     C_R   0.886258 0.797930 0.144872 -0.122176
C62   C     C_R   0.113742 0.202069 0.855128 -0.122179
C63   C     C_R   0.615109 0.295270 0.357093 -0.118160
C64   C     C_R   0.384891 0.704730 0.642907 -0.118165
H21   H     H_    0.884998 0.671613 0.170280 0.148000
H22   H     H_    0.115002 0.328386 0.829720 0.147999
H23   H     H_    0.617085 0.167255 0.332790 0.146186
H24   H     H_    0.382915 0.832746 0.667210 0.146185
C65   C     C_R   0.852880 0.944795 0.148824 -0.106086
C66   C     C_R   0.147120 0.055205 0.851176 -0.106086
C67   C     C_R   0.647254 0.444630 0.351351 -0.105919
C68   C     C_R   0.352746 0.555370 0.648649 -0.105920
C69   C     C_R   0.014986 0.969937 0.061500 -0.125460
C70   C     C_R   0.985014 0.030062 0.938499 -0.125459
C71   C     C_R   0.535469 0.356238 0.508870 -0.103268
C72   C     C_R   0.464531 0.643762 0.491130 -0.103269
H25   H     H_    0.027194 0.947948 0.109108 0.139978
H26   H     H_    0.972806 0.052050 0.890891 0.139978
H27   H     H_    0.562892 0.244891 0.516582 0.170653
H28   H     H_    0.437108 0.755109 0.483418 0.170652
C73   C     C_R   0.051197 0.984056 0.025614 -0.037811
C74   C     C_R   0.948803 0.015942 0.974386 -0.037810
C75   C     C_R   0.499512 0.369234 0.545101 -0.078506
C76   C     C_R   0.500489 0.630766 0.454899 -0.078508
H29   H     H_    0.090745 0.972872 0.046182 0.163544
H30   H     H_    0.909255 0.027126 0.953817 0.163545
H31   H     H_    0.499930 0.267813 0.580226 0.149140
H32   H     H_    0.500070 0.732187 0.419775 0.149137
C77   C     C_R   0.036547 0.012897 0.963688 0.094448
C78   C     C_R   0.963453 0.987101 0.036312 0.094447
C79   C     C_R   0.463426 0.512293 0.536296 0.094007
C80   C     C_R   0.536575 0.487707 0.463704 0.094008
C81   C     C_2   0.046239 0.448017 0.425622 0.850524
O21   O     O_2   0.026697 0.476371 0.373318 -0.538446
O22   O     O_R   0.071173 0.592015 0.460710 -0.649983
H33   H     H_    0.071170 0.712205 0.437566 0.319019
C82   C     C_2   0.953763 0.551954 0.574374 0.850530
O23   O     O_2   0.973293 0.523619 0.626683 -0.538432
O24   O     O_R   0.928849 0.407929 0.539279 -0.649991
H34   H     H_    0.928857 0.287734 0.562422 0.319006
C83   C     C_2   0.453817 0.948296 0.074189 0.851428
O25   O     O_2   0.473468 0.977021 0.126432 -0.537980
O26   O     O_R   0.428777 0.092018 0.039054 -0.650091
H35   H     H_    0.428811 0.212344 0.062117 0.319202
C84   C     C_2   0.546189 0.051809 0.925772 0.851434
O27   O     O_2   0.526580 0.023186 0.873509 -0.537933
O28   O     O_R   0.571185 0.908012 0.960908 -0.650117
H36   H     H_    0.571163 0.787723 0.937831 0.319210
Br1   Br    Br    0.158555 0.349822 0.436404 -0.422744
Br2   Br    Br    0.841443 0.650057 0.563578 -0.422746
Br3   Br    Br    0.341506 0.849616 0.063595 -0.427811
Br4   Br    Br    0.658509 0.150220 0.936436 -0.427825
Br5   Br    Br    0.894183 0.352513 0.036609 -0.550795
Br6   Br    Br    0.105817 0.647486 0.963391 -0.550801
Br7   Br    Br    0.609491 0.845790 0.467862 -0.564118
Br8   Br    Br    0.390510 0.154209 0.532139 -0.564121

loop_
_geom_bond_atom_site_label_1
_geom_bond_atom_site_label_2
_ccdc_geom_bond_type
O17   V3    S    
C59   H19   S    
O1    C5    A    
O19   V1    S    
C9    C21   A    
O3    C7    A    
O26   H35   S    
C10   C18   A    
O1    V3    S    
O15   V3    S    
C83   O25   D    
C25   C33   A    
C33   C38   A    
C42   C82   S    
C39   H11   S    
O7    C3    A    
C6    C11   S    
C81   O22   S    
C35   C40   A    
C26   C30   A    
C62   C66   A    
C36   C39   A    
C40   C44   A    
C61   C65   A    
C75   C79   A    
C14   C18   A    
C76   C80   A    
C62   H22   S    
O4    C8    A    
C55   C59   A    
C54   C58   A    
C73   C77   A    
O24   H34   S    
C52   C56   A    
C54   C77   S    
O13   V1    S    
O2    V4    S    
C70   H26   S    
O3    V1    S    
C69   H25   S    
C22   H1    S    
C44   C84   S    
C28   C36   A    
C17   H6    S    
C72   H28   S    
C1    O15   A    
C60   H20   S    
C15   C31   A    
C37   H9    S    
C16   C32   A    
O2    C6    A    
O28   H36   S    
C10   C22   A    
C11   C19   A    
C16   C20   A    
O5    V1    S    
C13   C29   A    
C34   C37   A    
O11   C7    A    
C11   C23   A    
C35   C36   A    
C48   C68   A    
C13   C17   A    
C40   H12   S    
C84   O28   S    
C63   H23   S    
C59   C63   A    
O10   V2    S    
C69   C78   A    
C76   H32   S    
C83   O26   S    
C50   C54   A    
C56   C79   S    
C4    C66   S    
C39   C43   A    
C60   C64   A    
O7    V3    S    
C38   C42   A    
O8    V4    S    
C47   C67   A    
C46   C66   A    
C53   C78   S    
C2    O16   A    
C5    C12   S    
O18   V4    S    
C23   C27   A    
C32   C44   A    
O4    V2    S    
C64   H24   S    
C15   Br3   S    
C1    C67   S    
C50   Br6   S    
C20   H7    S    
C43   C83   S    
C13   Br1   S    
C31   C43   A    
C14   C30   A    
C21   C25   A    
O8    C4    A    
C7    C10   S    
C57   H17   S    
C26   C34   A    
O9    C5    A    
O11   V3    S    
C63   C67   A    
C70   C77   A    
C37   C41   A    
O14   V2    S    
O6    V2    S    
C12   C20   A    
C27   C35   A    
C14   Br2   S    
C24   H3    S    
C45   C65   A    
C53   C57   A    
C29   C41   A    
O16   V4    S    
O9    V1    S    
C19   H8    S    
C61   H21   S    
C3    O13   A    
C18   H5    S    
C21   H2    S    
C51   Br7   S    
C57   C61   A    
C38   H10   S    
C48   H16   S    
O5    C1    A    
C46   C50   A    
C47   H15   S    
O6    C2    A    
C15   C19   A    
O22   H33   S    
C72   C76   A    
C49   Br5   S    
C30   C42   A    
C71   H27   S    
O12   V4    S    
C47   C51   A    
C81   O21   D    
C22   C26   A    
C8    C9    S    
C58   C62   A    
C52   Br8   S    
C72   C79   A    
C9    C17   A    
O10   C6    A    
C82   O24   S    
C41   C81   S    
C70   C74   A    
C58   H18   S    
C82   O23   D    
C71   C80   A    
C46   H14   S    
C64   C68   A    
C33   C34   A    
C25   C29   A    
C56   C60   A    
O20   V2    S    
C55   C80   S    
C12   C24   A    
C27   C31   A    
C45   C49   A    
C49   C53   A    
C3    C65   S    
C2    C68   S    
C75   H31   S    
C23   H4    S    
C51   C55   A    
C73   H29   S    
C24   C28   A    
C74   C78   A    
O12   C8    A    
C4    O14   A    
C74   H30   S    
C16   Br4   S    
C48   C52   A    
C84   O27   D    
C69   C73   A    
C45   H13   S    
C28   C32   A    
C71   C75   A    
