data_mof_unit_7535.cif
_audit_creation_date              2013-03-05T16:46:22-0500
_audit_creation_method            fapswitch 2.2
_symmetry_space_group_name_H-M    P1
_symmetry_Int_Tables_number       1
_space_group_crystal_system       triclinic
_cell_length_a                    8.698567
_cell_length_b                    8.936334
_cell_length_c                    8.111916
_cell_angle_alpha                 89.99227
_cell_angle_beta                  98.69002
_cell_angle_gamma                 89.996687
_cell_volume                      623.327233065

loop_
_atom_site_label
_atom_site_type_symbol
_atom_site_description
_atom_site_fract_x
_atom_site_fract_y
_atom_site_fract_z
_atom_type_partial_charge
O1    O     O_R   0.499990 0.285340 0.636850 -0.615603
O2    O     O_R   0.500010 0.714660 0.363150 -0.616625
O3    O     O_R   0.500010 0.285340 0.363150 -0.603270
O4    O     O_R   0.499990 0.714660 0.636850 -0.610990
C1    C     C_R   0.500002 0.217999 0.500005 0.926030
C2    C     C_R   0.500030 0.781993 0.499998 0.928103
O5    O     O_R   0.271740 0.500000 0.604850 -0.596608
O6    O     O_R   0.728260 0.500000 0.395150 -0.598318
O7    O     O_R   0.271760 0.500000 0.331110 -0.571737
O8    O     O_R   0.728240 0.500000 0.668890 -0.577398
C3    C     C_R   0.200914 0.494615 0.457527 0.874135
C4    C     C_R   0.798520 0.492565 0.543076 0.894254
Zn1   Zn    Zn3+2 0.499990 0.500000 0.682780 1.104439
Zn2   Zn    Zn3+2 0.500010 0.500000 0.317220 1.106767
C5    C     C_2   0.038492 0.469415 0.436538 -0.023197
C6    C     C_2   0.961931 0.485722 0.569277 -0.010525
C7    C     C_1   0.500029 0.065189 0.500009 -0.123896
C8    C     C_1   0.500038 0.934813 0.499993 -0.134356
N1    N     N_1   0.500020 0.500000 0.073650 0.027991
N2    N     N_1   0.499980 0.500000 0.926350 0.028172
N3    N     N_R   0.964260 0.419462 0.274988 0.228057
O9    O     O_R   0.974984 0.498697 0.142683 -0.276202
O10   O     O_R   0.899168 0.288068 0.258723 -0.358523
N4    N     N_R   0.037261 0.510093 0.737763 0.239711
O11   O     O_R   0.089181 0.396198 0.829657 -0.308849
O12   O     O_R   0.030375 0.641049 0.806391 -0.331564

loop_
_geom_bond_atom_site_label_1
_geom_bond_atom_site_label_2
_geom_bond_distance
_ccdc_geom_bond_type
O7    Zn2   2.005567 S    
N1    N2    1.194833 T    
O5    Zn1   1.990569 S    
O6    C4    1.263414 A    
C7    C8    1.165081 T    
C6    N4    1.440227 S    
N3    O9    1.300758 A    
O5    C3    1.260001 A    
O7    C3    1.274624 A    
O2    C2    1.262736 A    
O3    Zn2   1.954072 S    
O8    C4    1.268187 A    
C2    C8    1.365650 S    
N4    O12   1.301259 A    
N3    O10   1.301632 A    
O2    Zn2   1.954170 S    
O1    C1    1.262781 A    
C1    C7    1.365567 S    
C5    C6    1.356795 D    
C5    N3    1.441551 S    
O1    Zn1   1.954171 S    
N4    O11   1.301379 A    
O4    C2    1.262689 A    
O4    Zn1   1.954072 S    
O6    Zn2   1.990569 S    
Zn1   N2    1.975833 S    
C3    C5    1.415338 S    
Zn2   N1    1.975833 S    
C4    C6    1.406452 S    
O3    C1    1.262708 A    
O8    Zn1   2.005566 S    
