data_mof_unit_64027.cif
_audit_creation_date              2012-12-10T18:19:06-0500
_audit_creation_method            fapswitch 2.2
_symmetry_space_group_name_H-M    P1
_symmetry_Int_Tables_number       1
_space_group_crystal_system       triclinic
_cell_length_a                    18.532786
_cell_length_b                    18.746958
_cell_length_c                    18.538553
_cell_angle_alpha                 109.699247
_cell_angle_beta                  109.230379
_cell_angle_gamma                 109.687682
_cell_volume                      4945.63499583

loop_
_atom_site_label
_atom_site_type_symbol
_atom_type_description
_atom_site_fract_x
_atom_site_fract_y
_atom_site_fract_z
_atom_type_partial_charge
C1    C     C_R   0.622918 0.501794 0.621648 0.831515
C2    C     C_3   0.833480 0.835312 0.597455 -0.401645
C3    C     C_3   0.282368 0.198816 0.547930 -0.377631
C4    C     C_3   0.717654 0.801276 0.452178 -0.377670
C5    C     C_3   0.734284 0.583449 0.782358 -0.377637
C6    C     C_3   0.265711 0.416547 0.217643 -0.377639
C7    C     C_3   0.806260 0.582354 0.852275 -0.417302
C8    C     C_3   0.193735 0.417642 0.147726 -0.417301
C9    C     C_3   0.647632 0.417830 0.693958 -0.417372
C10   C     C_3   0.352369 0.582166 0.306037 -0.417375
C11   C     C_3   0.764101 0.502076 0.666619 -0.401735
C12   C     C_R   0.377081 0.498206 0.378352 0.831491
C13   C     C_3   0.235902 0.497930 0.333384 -0.401734
C14   C     C_3   0.690933 0.501716 0.689947 0.187785
C15   C     C_3   0.309067 0.498283 0.310053 0.187796
C16   C     C_R   0.377127 0.378880 0.498778 0.831533
C17   C     C_R   0.622865 0.621120 0.501213 0.831540
C18   C     C_3   0.810041 0.498286 0.809082 0.187783
C19   C     C_3   0.189959 0.501713 0.190918 0.187784
C20   C     C_3   0.717538 0.416743 0.765952 -0.377553
C21   C     C_3   0.282463 0.583253 0.234043 -0.377550
C22   C     C_3   0.833247 0.497556 0.735786 -0.401884
C23   C     C_3   0.352297 0.269830 0.545886 -0.417297
C24   C     C_3   0.166756 0.502450 0.264216 -0.401888
C25   C     C_3   0.999041 0.310733 0.809144 0.187746
C26   C     C_3   0.000959 0.689267 0.190856 0.187744
C27   C     C_R   0.998714 0.119813 0.621672 0.831473
C28   C     C_R   0.001285 0.880187 0.378328 0.831495
C29   C     C_R   0.121637 0.119854 0.498716 0.831480
C30   C     C_R   0.878363 0.880154 0.501292 0.831475
C31   C     C_R   0.001223 0.621165 0.122827 0.831483
C32   C     C_R   0.998777 0.378835 0.877173 0.831482
C33   C     C_R   0.878341 0.498218 0.877104 0.831504
C34   C     C_3   0.647723 0.730258 0.454216 -0.417267
C35   C     C_R   0.121659 0.501781 0.122895 0.831504
C36   C     C_3   0.902529 0.164515 0.666709 -0.401788
C37   C     C_3   0.097470 0.835484 0.333291 -0.401784
C38   C     C_3   0.048069 0.198845 0.782404 -0.377597
C39   C     C_3   0.951931 0.801155 0.217596 -0.377599
C40   C     C_3   0.048386 0.349124 0.765959 -0.377485
C41   C     C_3   0.951614 0.650876 0.234041 -0.377485
C42   C     C_3   0.046016 0.269852 0.852336 -0.417361
C43   C     C_3   0.953983 0.730148 0.147664 -0.417360
C44   C     C_3   0.902558 0.238197 0.735890 -0.401830
C45   C     C_3   0.309096 0.310791 0.499049 0.187768
C46   C     C_3   0.097442 0.761803 0.264109 -0.401830
C47   C     C_3   0.999002 0.188178 0.689987 0.187793
C48   C     C_3   0.000997 0.811822 0.310013 0.187781
C49   C     C_3   0.046292 0.276052 0.693956 -0.417358
C50   C     C_3   0.953708 0.723948 0.306044 -0.417358
C51   C     C_3   0.265988 0.349203 0.548507 -0.377489
C52   C     C_3   0.733925 0.650780 0.451384 -0.377451
C53   C     C_3   0.193983 0.276125 0.546410 -0.417399
C54   C     C_3   0.805935 0.723860 0.453488 -0.417426
C55   C     C_3   0.235759 0.238318 0.402589 -0.401942
C56   C     C_3   0.690897 0.689209 0.500944 0.187765
C57   C     C_3   0.764291 0.761618 0.597405 -0.402004
C58   C     C_3   0.189939 0.188229 0.499001 0.187787
C59   C     C_3   0.810060 0.811779 0.501006 0.187797
C60   C     C_3   0.166575 0.164631 0.402551 -0.401702
H1    H     H_    0.118515 0.400111 0.816775 0.177571
H2    H     H_    0.719823 0.864593 0.484133 0.158803
H3    H     H_    0.264262 0.209925 0.364648 0.181408
H4    H     H_    0.735844 0.790019 0.635417 0.181393
H5    H     H_    0.164369 0.101858 0.367884 0.146043
H6    H     H_    0.835745 0.898100 0.632200 0.146053
H7    H     H_    0.683537 0.583881 0.801748 0.177683
H8    H     H_    0.316455 0.416110 0.198251 0.177685
H9    H     H_    0.764001 0.644656 0.780272 0.158901
H10   H     H_    0.235992 0.355342 0.219733 0.158896
H11   H     H_    0.871308 0.641707 0.882047 0.171991
H12   H     H_    0.881485 0.599890 0.183225 0.177572
H13   H     H_    0.128686 0.358292 0.117957 0.171993
H14   H     H_    0.791613 0.584983 0.906454 0.149534
H15   H     H_    0.208380 0.415008 0.093545 0.149532
H16   H     H_    0.115106 0.293141 0.708663 0.149642
H17   H     H_    0.884894 0.706859 0.291338 0.149648
H18   H     H_    0.593543 0.415465 0.708700 0.149620
H19   H     H_    0.406455 0.584526 0.291292 0.149616
H20   H     H_    0.698245 0.416581 0.816799 0.177579
H21   H     H_    0.301754 0.583410 0.183194 0.177577
H22   H     H_    0.735425 0.445012 0.600275 0.181475
H23   H     H_    0.382053 0.240249 0.510551 0.172046
H24   H     H_    0.264581 0.554997 0.399728 0.181476
H25   H     H_    0.796518 0.562669 0.664442 0.146048
H26   H     H_    0.203483 0.437340 0.335565 0.146046
H27   H     H_    0.899652 0.554474 0.764305 0.181444
H28   H     H_    0.100350 0.445536 0.235701 0.181443
H29   H     H_    0.835256 0.436831 0.703446 0.146012
H30   H     H_    0.164750 0.563178 0.296556 0.146011
H31   H     H_    0.617697 0.358344 0.628975 0.171869
H32   H     H_    0.382307 0.641655 0.371019 0.171868
H33   H     H_    0.719457 0.355413 0.736312 0.159030
H34   H     H_    0.618027 0.759854 0.489626 0.172086
H35   H     H_    0.280548 0.644586 0.263682 0.159033
H36   H     H_    0.864695 0.209814 0.764450 0.181415
H37   H     H_    0.135304 0.790185 0.235549 0.181416
H38   H     H_    0.867950 0.101759 0.664560 0.146030
H39   H     H_    0.132049 0.898240 0.335439 0.146032
H40   H     H_    0.011239 0.270563 0.628969 0.171877
H41   H     H_    0.988762 0.729437 0.371030 0.171877
H42   H     H_    0.864856 0.155244 0.600362 0.181465
H43   H     H_    0.135144 0.844756 0.399637 0.181465
H44   H     H_    0.868204 0.266586 0.703552 0.146009
H45   H     H_    0.406506 0.321314 0.614682 0.149500
H46   H     H_    0.131795 0.733414 0.296447 0.146009
H47   H     H_    0.016827 0.380818 0.736317 0.159063
H48   H     H_    0.983173 0.619182 0.263682 0.159063
H49   H     H_    0.118189 0.217784 0.801760 0.177679
H50   H     H_    0.881811 0.782215 0.198241 0.177679
H51   H     H_    0.016281 0.135565 0.780345 0.158873
H52   H     H_    0.983718 0.864435 0.219655 0.158877
H53   H     H_    0.010759 0.240284 0.882143 0.171986
H54   H     H_    0.989241 0.759715 0.117857 0.171986
H55   H     H_    0.114831 0.321381 0.906488 0.149528
H56   H     H_    0.593472 0.678819 0.385423 0.149465
H57   H     H_    0.885169 0.678618 0.093512 0.149529
H58   H     H_    0.236339 0.380952 0.517046 0.159101
H59   H     H_    0.763553 0.618970 0.482763 0.159152
H60   H     H_    0.316867 0.400149 0.618618 0.177524
H61   H     H_    0.683001 0.599879 0.381271 0.177488
H62   H     H_    0.208753 0.293170 0.615212 0.149669
H63   H     H_    0.791123 0.706859 0.384685 0.149703
H64   H     H_    0.128987 0.270693 0.511458 0.171832
H65   H     H_    0.870916 0.729234 0.488367 0.171793
H66   H     H_    0.203415 0.266769 0.368337 0.145988
H67   H     H_    0.301787 0.217707 0.618033 0.177716
H68   H     H_    0.796616 0.733105 0.631577 0.145979
H69   H     H_    0.100219 0.155422 0.364977 0.181474
H70   H     H_    0.899822 0.844461 0.634959 0.181487
H71   H     H_    0.698191 0.782429 0.382076 0.177750
H72   H     H_    0.280259 0.135518 0.516054 0.158854
O1    O     O_R   0.592570 0.552270 0.644860 -0.631579
O2    O     O_R   0.407350 0.552250 0.459650 -0.630464
O3    O     O_R   0.407370 0.459660 0.552260 -0.631591
O4    O     O_R   0.592630 0.540340 0.447740 -0.631596
O5    O     O_R   0.407450 0.355140 0.447760 -0.630459
O6    O     O_R   0.592550 0.644860 0.552240 -0.630456
O7    O     O_R   0.052270 0.092540 0.644860 -0.631578
O8    O     O_R   0.947730 0.907460 0.355140 -0.631572
O9    O     O_R   0.947710 0.092600 0.540380 -0.630455
O10   O     O_R   0.052290 0.907400 0.459620 -0.630449
O11   O     O_R   0.144880 0.092570 0.552230 -0.631586
O12   O     O_R   0.407430 0.447730 0.355140 -0.631584
O13   O     O_R   0.855120 0.907430 0.447770 -0.631580
O14   O     O_R   0.040310 0.092630 0.447750 -0.630451
O15   O     O_R   0.959690 0.907370 0.552250 -0.630453
O16   O     O_R   0.052260 0.644880 0.092510 -0.630452
O17   O     O_R   0.947740 0.355120 0.907490 -0.630452
O18   O     O_R   0.947720 0.540390 0.092600 -0.631596
O19   O     O_R   0.052280 0.459610 0.907400 -0.631596
O20   O     O_R   0.959660 0.552230 0.907350 -0.630462
O21   O     O_R   0.040340 0.447770 0.092650 -0.630462
O22   O     O_R   0.855120 0.447750 0.907440 -0.631593
O23   O     O_R   0.144880 0.552250 0.092560 -0.631593
O24   O     O_R   0.592650 0.447750 0.540350 -0.630459
Zn1   Zn    Zn3+2 0.499940 0.569790 0.569780 0.907817
Zn2   Zn    Zn3+2 0.500060 0.430210 0.430220 0.907816
Zn3   Zn    Zn3+2 0.069820 0.999960 0.569760 0.907834
Zn4   Zn    Zn3+2 0.930180 0.000040 0.430240 0.907835
Zn5   Zn    Zn3+2 0.069800 0.569760 0.999940 0.907840
Zn6   Zn    Zn3+2 0.930200 0.430240 0.000060 0.907840

loop_
_geom_bond_atom_site_label_1
_geom_bond_atom_site_label_2
_ccdc_geom_bond_type
C54   H63   S    
C34   C56   S    
C23   C45   S    
C41   H48   S    
C3    C23   S    
C16   O5    A    
C28   O8    A    
O10   Zn3   S    
C5    H7    S    
O15   Zn3   S    
C9    H31   S    
C57   H68   S    
C44   H44   S    
C2    C57   S    
C30   O15   A    
C47   C49   S    
O23   Zn5   S    
C13   H24   S    
C23   H23   S    
O5    Zn2   S    
C30   O13   A    
O3    Zn1   S    
O16   Zn5   S    
C19   C21   S    
C35   O23   A    
C38   C42   S    
C10   C15   S    
C25   C40   S    
C7    H11   S    
C11   C14   S    
C3    H67   S    
O14   Zn4   S    
C45   C51   S    
C34   H56   S    
C40   C49   S    
C29   O11   A    
C4    H2    S    
C51   H58   S    
C56   C57   S    
C36   C47   S    
C36   H42   S    
C5    H9    S    
O9    Zn4   S    
C27   O9    A    
C6    C15   S    
C39   H50   S    
C32   O17   A    
O19   Zn5   S    
C55   H3    S    
C13   H26   S    
C55   H66   S    
C17   O6    A    
C7    H14   S    
O1    Zn1   S    
O20   Zn5   S    
O4    Zn2   S    
C25   C32   S    
C6    H8    S    
C10   H32   S    
C26   C31   S    
C10   C21   S    
C12   O2    A    
C55   C60   S    
C1    O1    A    
C25   C44   S    
C52   C54   S    
C26   C43   S    
C4    H71   S    
C54   C59   S    
C11   H22   S    
O18   Zn6   S    
C54   H65   S    
C4    C34   S    
C8    C19   S    
C20   H20   S    
C3    H72   S    
C6    H10   S    
C34   H34   S    
C29   O14   A    
C5    C7    S    
C31   O18   A    
C2    C59   S    
C39   C43   S    
C21   H35   S    
C20   H33   S    
C33   O20   A    
C8    H15   S    
C27   O7    A    
C40   H1    S    
C12   O12   A    
C13   C24   S    
C37   C48   S    
C60   H69   S    
C1    O24   A    
C9    C14   S    
C52   H59   S    
C44   H36   S    
C52   H61   S    
C9    C20   S    
C12   C15   S    
C10   H19   S    
C7    C18   S    
C30   C59   S    
C17   O4    A    
C51   H60   S    
C38   C47   S    
C49   H16   S    
C22   H27   S    
C38   H49   S    
C48   C50   S    
C24   H28   S    
C17   C56   S    
C5    C14   S    
C43   H57   S    
C40   H47   S    
C31   O16   A    
C39   H52   S    
C46   H37   S    
C21   H21   S    
C60   H5    S    
C13   C15   S    
C36   C44   S    
C28   O10   A    
O12   Zn2   S    
C50   H17   S    
C41   C50   S    
C37   H39   S    
C42   H53   S    
C57   H4    S    
C37   H43   S    
C27   C47   S    
O13   Zn4   S    
C28   C48   S    
C33   O22   A    
O22   Zn6   S    
C35   O21   A    
C2    H6    S    
C53   H64   S    
C24   H30   S    
C25   C42   S    
C6    C8    S    
C53   C58   S    
O11   Zn3   S    
C1    C14   S    
C11   C22   S    
C41   H12   S    
O21   Zn6   S    
C53   H62   S    
C18   C22   S    
C19   C24   S    
C38   H51   S    
C43   H54   S    
C19   C35   S    
O8    Zn4   S    
C49   H40   S    
O6    Zn1   S    
C32   O19   A    
C11   H25   S    
C46   H46   S    
C4    C59   S    
O24   Zn2   S    
C8    H13   S    
C2    H70   S    
C22   H29   S    
C18   C20   S    
C9    H18   S    
C18   C33   S    
C26   C46   S    
C16   C45   S    
O7    Zn3   S    
C3    C58   S    
C42   H55   S    
O2    Zn1   S    
C29   C58   S    
C45   C55   S    
C50   H41   S    
C36   H38   S    
O17   Zn6   S    
C51   C53   S    
C37   C46   S    
C16   O3    A    
C58   C60   S    
C52   C56   S    
C26   C41   S    
C39   C48   S    
C23   H45   S    
