data_mof_unit_30960.cif
_audit_creation_date              2013-03-05T16:29:37-0500
_audit_creation_method            fapswitch 2.2
_symmetry_space_group_name_H-M    P1
_symmetry_Int_Tables_number       1
_space_group_crystal_system       triclinic
_cell_length_a                    28.450752
_cell_length_b                    18.232785
_cell_length_c                    18.218953
_cell_angle_alpha                 89.976661
_cell_angle_beta                  130.301344
_cell_angle_gamma                 89.973195
_cell_volume                      7207.70516529

loop_
_atom_site_label
_atom_site_type_symbol
_atom_site_description
_atom_site_fract_x
_atom_site_fract_y
_atom_site_fract_z
_atom_type_partial_charge
O1    O     O_R   0.500010 0.939400 0.392680 -0.605259
O2    O     O_R   0.499990 0.939400 0.607320 -0.600717
O3    O     O_R   0.000010 0.439400 0.392680 -0.602964
O4    O     O_R   0.999990 0.439400 0.607320 -0.600976
O5    O     O_R   0.499990 0.060580 0.392690 -0.602932
O6    O     O_R   0.500010 0.060580 0.607310 -0.607294
O7    O     O_R   0.999990 0.560580 0.392690 -0.604420
O8    O     O_R   0.000010 0.560580 0.607310 -0.607629
C1    C     C_R   0.499875 0.999994 0.358608 0.953656
C2    C     C_R   0.500120 0.999971 0.641387 0.958402
C3    C     C_R   0.999862 0.499991 0.358593 0.953336
C4    C     C_R   0.000285 0.499963 0.641554 0.962226
O9    O     O_R   0.591620 0.939400 0.591620 -0.613523
O10   O     O_R   0.408380 0.939400 0.408380 -0.609848
O11   O     O_R   0.091620 0.439400 0.591620 -0.611747
O12   O     O_R   0.908380 0.439400 0.408380 -0.604149
O13   O     O_R   0.591600 0.060580 0.591620 -0.597000
O14   O     O_R   0.408400 0.060580 0.408380 -0.596765
O15   O     O_R   0.091600 0.560580 0.591620 -0.597232
O16   O     O_R   0.908400 0.560580 0.408380 -0.600075
C5    C     C_R   0.620331 0.999750 0.621312 0.975822
C6    C     C_R   0.379684 0.999812 0.378391 0.973181
C7    C     C_R   0.120319 0.499760 0.621492 0.975575
C8    C     C_R   0.879754 0.499803 0.378026 0.974469
Zn1   Zn    Zn3+2 0.500000 0.919080 0.500000 1.160939
Zn2   Zn    Zn3+2 1.000000 0.419080 0.500000 1.161964
Zn3   Zn    Zn3+2 0.500000 0.080900 0.500000 1.080750
Zn4   Zn    Zn3+2 0.000000 0.580900 0.500000 1.078404
C9    C     C_R   0.643117 0.777004 0.763671 0.319830
C10   C     C_R   0.358293 0.782704 0.227405 0.327283
C11   C     C_R   0.144795 0.280354 0.774487 0.323296
C12   C     C_R   0.855664 0.284657 0.220463 0.323537
C13   C     C_R   0.672476 0.825820 0.744205 0.150880
C14   C     C_R   0.329307 0.828739 0.250279 0.147201
C15   C     C_R   0.172521 0.327542 0.750449 0.151138
C16   C     C_R   0.827954 0.331158 0.245122 0.146583
C17   C     C_R   0.687079 0.897691 0.782252 -0.175525
C18   C     C_R   0.313048 0.901245 0.214046 -0.180273
C19   C     C_R   0.187177 0.400388 0.785359 -0.179526
C20   C     C_R   0.812996 0.404220 0.210811 -0.184950
C21   C     C_R   0.670172 0.921668 0.835815 0.354707
C22   C     C_R   0.327439 0.928317 0.158259 0.360347
C23   C     C_R   0.171765 0.426858 0.840031 0.355651
C24   C     C_R   0.827618 0.431465 0.155400 0.360503
C25   C     C_R   0.638901 0.873581 0.852273 0.304308
C26   C     C_R   0.357813 0.882799 0.137710 0.295319
C27   C     C_R   0.142259 0.380279 0.861211 0.300450
C28   C     C_R   0.856747 0.385341 0.133016 0.295504
C29   C     C_R   0.625193 0.801353 0.815933 0.320037
C30   C     C_R   0.373811 0.810281 0.173057 0.311393
C31   C     C_R   0.128495 0.307168 0.828064 0.317161
C32   C     C_R   0.871261 0.312210 0.166247 0.315882
C33   C     C_R   0.783292 0.949661 0.826799 0.300949
C34   C     C_R   0.216828 0.949850 0.172837 0.299963
C35   C     C_R   0.283261 0.449943 0.827284 0.299284
C36   C     C_R   0.716972 0.453331 0.169468 0.301240
C37   C     C_R   0.813662 0.000260 0.811959 -0.223701
C38   C     C_R   0.186378 0.999862 0.188196 -0.224858
C39   C     C_R   0.313633 0.499952 0.811820 -0.222708
C40   C     C_R   0.686583 0.499897 0.188510 -0.241547
C41   C     C_R   0.781185 0.049160 0.733295 0.010135
C42   C     C_R   0.218803 0.048300 0.267236 0.009635
C43   C     C_R   0.281145 0.548328 0.732598 0.010208
C44   C     C_R   0.719286 0.543463 0.272482 0.018758
C45   C     C_R   0.716819 0.046955 0.667905 0.198330
C46   C     C_R   0.283164 0.046255 0.332419 0.199090
C47   C     C_R   0.216780 0.546295 0.667412 0.198630
C48   C     C_R   0.783596 0.542126 0.336270 0.252163
C49   C     C_R   0.686479 0.998803 0.685729 -0.229333
C50   C     C_R   0.313559 0.998936 0.313888 -0.227304
C51   C     C_R   0.186445 0.498833 0.685923 -0.226372
C52   C     C_R   0.813757 0.498841 0.313815 -0.231552
C53   C     C_R   0.719177 0.949815 0.764471 0.055292
C54   C     C_R   0.280941 0.950674 0.234499 0.057600
C55   C     C_R   0.219141 0.450512 0.765348 0.056205
C56   C     C_R   0.781065 0.453400 0.231795 0.053687
C57   C     C_R   0.831900 0.088116 0.665824 0.381259
C58   C     C_R   0.168420 0.086170 0.335578 0.382670
C59   C     C_R   0.331479 0.585860 0.664073 0.382571
C60   C     C_R   0.683451 0.556433 0.365940 0.410634
C61   C     C_R   0.864868 0.140543 0.657955 0.309047
C62   C     C_R   0.135227 0.138090 0.343663 0.308398
C63   C     C_R   0.364866 0.637500 0.656105 0.307802
C64   C     C_R   0.648139 0.592253 0.384710 0.282753
C65   C     C_R   0.879339 0.209417 0.703425 0.031585
C66   C     C_R   0.120115 0.207030 0.297944 0.028774
C67   C     C_R   0.380182 0.706362 0.701896 0.027480
C68   C     C_R   0.615267 0.656891 0.333818 0.031591
C69   C     C_R   0.857460 0.227060 0.752241 0.306416
C70   C     C_R   0.141669 0.225271 0.248805 0.306399
C71   C     C_R   0.358667 0.724842 0.751019 0.303674
C72   C     C_R   0.622572 0.689090 0.271383 0.333920
C73   C     C_R   0.827780 0.173554 0.765044 0.374736
C74   C     C_R   0.171543 0.172260 0.235761 0.374875
C75   C     C_R   0.328601 0.672089 0.763965 0.371487
C76   C     C_R   0.657424 0.653426 0.251953 0.345261
C77   C     C_R   0.813906 0.104457 0.720525 -0.160979
C78   C     C_R   0.186031 0.103110 0.280490 -0.159738
C79   C     C_R   0.313894 0.602998 0.719148 -0.158748
C80   C     C_R   0.686939 0.586173 0.298098 -0.139542
C81   C     C_1   0.500433 0.000024 0.282704 -0.072951
C82   C     C_1   0.499551 0.999969 0.717282 -0.063561
C83   C     C_1   0.000428 0.500004 0.282696 -0.073102
C84   C     C_1   0.999660 0.499932 0.717395 -0.067130
C85   C     C_1   0.500667 0.000047 0.218101 -0.087817
C86   C     C_1   0.499326 0.999996 0.781893 -0.076192
C87   C     C_1   0.000672 0.500009 0.218105 -0.069162
C88   C     C_1   0.999358 0.499949 0.781927 -0.072453
O17   O     O_R   0.999970 0.107360 0.060570 -0.629024
O18   O     O_R   0.000030 0.107360 0.939430 -0.628614
O19   O     O_R   0.499970 0.607360 0.060570 -0.623427
O20   O     O_R   0.500030 0.607360 0.939430 -0.639427
C89   C     C_R   0.000005 0.141325 0.999993 0.887255
C90   C     C_R   0.499739 0.641323 0.999685 0.922312
O21   O     O_R   0.908370 0.000030 0.968970 -0.603287
O22   O     O_R   0.091630 0.000030 0.031030 -0.603733
O23   O     O_R   0.408370 0.500030 0.968970 -0.603904
O24   O     O_R   0.591630 0.500030 0.031030 -0.600805
O25   O     O_R   0.908380 1.000000 0.847800 -0.596362
O26   O     O_R   0.091620 0.000000 0.152200 -0.597958
O27   O     O_R   0.408380 0.500000 0.847800 -0.598720
O28   O     O_R   0.591620 0.500000 0.152200 -0.623345
C91   C     C_R   0.879721 0.001412 0.879293 0.970490
C92   C     C_R   0.120294 0.001163 0.120744 0.971813
C93   C     C_R   0.379709 0.501218 0.879260 0.969924
C94   C     C_R   0.620370 0.501107 0.120884 0.989378
Zn5   Zn    Zn3+2 0.999980 0.000040 0.080910 1.092010
Zn6   Zn    Zn3+2 0.000020 0.000040 0.919090 1.091972
Zn7   Zn    Zn3+2 0.499980 0.500040 0.080910 1.079153
Zn8   Zn    Zn3+2 0.500020 0.500040 0.919090 1.090762
O29   O     O_R   0.000000 0.892710 0.060610 -0.598842
O30   O     O_R   1.000000 0.892710 0.939390 -0.599140
O31   O     O_R   0.500000 0.392710 0.060610 -0.598543
O32   O     O_R   0.500000 0.392710 0.939390 -0.597787
C95   C     C_R   0.999994 0.858744 0.000006 1.012902
C96   C     C_R   0.500056 0.358745 0.000068 1.010772
O33   O     O_R   0.551710 0.107310 0.051740 -0.611309
O34   O     O_R   0.448290 0.107310 0.948260 -0.615383
O35   O     O_R   0.051710 0.607310 0.051740 -0.616223
O36   O     O_R   0.948290 0.607310 0.948260 -0.618530
C97   C     C_R   0.499977 0.140929 0.999984 0.926886
C98   C     C_R   0.999975 0.640928 0.999982 0.920996
O37   O     O_R   0.551700 0.999990 0.159040 -0.646460
O38   O     O_R   0.448300 0.999990 0.840960 -0.633203
O39   O     O_R   0.051700 0.499990 0.159040 -0.636378
O40   O     O_R   0.948300 0.499990 0.840960 -0.638173
O41   O     O_R   0.448260 0.000000 0.055600 -0.596024
O42   O     O_R   0.551740 0.000000 0.944400 -0.608496
O43   O     O_R   0.948260 0.500000 0.055600 -0.601388
O44   O     O_R   0.051740 0.500000 0.944400 -0.606001
C99   C     C_R   0.500216 0.999976 0.141163 0.940894
C100  C     C_R   0.499781 0.999926 0.858835 0.968636
C101  C     C_R   0.000220 0.499933 0.141166 0.967136
C102  C     C_R   0.999784 0.499907 0.858838 0.965994
Zn9   Zn    Zn3+2 0.569060 0.999980 0.069070 0.939015
Zn10  Zn    Zn3+2 0.430940 0.999980 0.930930 0.959725
Zn11  Zn    Zn3+2 0.069060 0.499980 0.069070 0.958658
Zn12  Zn    Zn3+2 0.930940 0.499980 0.930930 0.953835
O45   O     O_R   0.551720 0.892660 0.051710 -0.657612
O46   O     O_R   0.448280 0.892660 0.948290 -0.593749
O47   O     O_R   0.051720 0.392660 0.051710 -0.607199
O48   O     O_R   0.948280 0.392660 0.948290 -0.604348
C103  C     C_R   0.500019 0.859055 0.999935 0.976335
C104  C     C_R   0.000022 0.359055 0.000034 1.020364
C105  C     C_1   0.000037 0.217768 0.000010 -0.098000
C106  C     C_1   0.499799 0.717771 0.999557 -0.045984
C107  C     C_1   0.499989 0.782588 0.999742 -0.022120
C108  C     C_1   0.000053 0.282578 0.000044 0.017250
C109  C     C_1   0.999951 0.782256 0.999984 -0.084086
C110  C     C_1   0.499993 0.282258 0.000023 -0.085889
C111  C     C_1   0.499949 0.217426 0.999974 -0.137290
C112  C     C_1   0.999935 0.717425 0.999960 -0.135155
O49   O     O_3   0.586853 0.758916 0.820769 -0.491552
C113  C     C_3   0.619755 0.698918 0.883665 -0.168265
H1    H     H_    0.669302 0.711088 0.944570 0.080859
H2    H     H_    0.615332 0.650382 0.842938 0.200484
H3    H     H_    0.598543 0.684063 0.915632 0.190515
O50   O     O_3   0.412096 0.770968 0.165165 -0.507449
C114  C     C_3   0.380261 0.710679 0.102518 -0.137759
H4    H     H_    0.330035 0.720959 0.043635 0.079605
H5    H     H_    0.387538 0.661028 0.143957 0.207412
H6    H     H_    0.400179 0.698879 0.067790 0.194115
O51   O     O_3   0.091662 0.266062 0.837467 -0.499506
C115  C     C_3   0.125752 0.207533 0.902589 -0.156950
H7    H     H_    0.175554 0.220353 0.960964 0.084315
H8    H     H_    0.120376 0.157478 0.863225 0.197015
H9    H     H_    0.106322 0.194868 0.937866 0.200610
O52   O     O_3   0.908199 0.271926 0.156307 -0.501026
C116  C     C_3   0.874685 0.212942 0.091952 -0.147369
H10   H     H_    0.824590 0.224778 0.034276 0.083368
H11   H     H_    0.881326 0.162750 0.132131 0.198482
H12   H     H_    0.893627 0.201115 0.055755 0.201076
N1    N     N_R   0.920157 0.258962 0.706776 0.264753
O53   O     O_R   0.918118 0.265634 0.633668 -0.303030
O54   O     O_R   0.960974 0.296483 0.784415 -0.353027
N2    N     N_R   0.078942 0.256002 0.294553 0.264296
O55   O     O_R   0.080423 0.261582 0.367203 -0.300218
O56   O     O_R   0.038324 0.294084 0.217253 -0.347932
N3    N     N_R   0.421514 0.754992 0.705345 0.265212
O57   O     O_R   0.419801 0.760779 0.632477 -0.296300
O58   O     O_R   0.462503 0.792513 0.782890 -0.350845
N4    N     N_R   0.570979 0.686624 0.339929 0.272135
O59   O     O_R   0.564431 0.757152 0.340892 -0.302278
O60   O     O_R   0.535433 0.643058 0.341542 -0.299081
O61   O     O_3   0.868729 0.294932 0.794688 -0.552142
C117  C     C_3   0.831694 0.348396 0.722369 -0.219163
H13   H     H_    0.829619 0.397615 0.755963 0.166455
H14   H     H_    0.783412 0.329627 0.664663 0.128039
H15   H     H_    0.852238 0.365648 0.690082 0.193387
O62   O     O_3   0.129840 0.293253 0.206235 -0.554091
C118  C     C_3   0.166981 0.346602 0.278487 -0.209149
H16   H     H_    0.168046 0.396320 0.244477 0.171327
H17   H     H_    0.215545 0.328149 0.335053 0.123090
H18   H     H_    0.147227 0.362903 0.312306 0.197452
O63   O     O_3   0.370723 0.792781 0.793675 -0.553456
C119  C     C_3   0.333784 0.846345 0.721482 -0.206412
H19   H     H_    0.332845 0.896110 0.755521 0.171163
H20   H     H_    0.285164 0.828219 0.664845 0.122035
H21   H     H_    0.353643 0.862449 0.687763 0.197481
O64   O     O_3   0.588583 0.750713 0.219315 -0.558569
C120  C     C_3   0.626290 0.813350 0.264447 -0.148179
H22   H     H_    0.653058 0.822384 0.240459 0.147673
H23   H     H_    0.657775 0.810958 0.344611 0.145447
H24   H     H_    0.596094 0.861802 0.241736 0.197376
O65   O     O_3   0.821695 0.184926 0.833756 -0.611740
C121  C     C_3   0.764852 0.219186 0.791497 -0.180655
H25   H     H_    0.727324 0.177994 0.755274 0.192616
H26   H     H_    0.753255 0.263797 0.740523 0.173607
H27   H     H_    0.767569 0.244327 0.849552 0.143906
O66   O     O_3   0.176991 0.184014 0.166383 -0.610224
C122  C     C_3   0.233683 0.218249 0.207953 -0.180579
H28   H     H_    0.271347 0.177151 0.244417 0.192646
H29   H     H_    0.245233 0.263127 0.258513 0.171929
H30   H     H_    0.230686 0.243017 0.149436 0.145023
O67   O     O_3   0.323205 0.683960 0.833372 -0.611533
C123  C     C_3   0.266598 0.718531 0.791830 -0.180764
H31   H     H_    0.228821 0.677659 0.755223 0.192514
H32   H     H_    0.255206 0.763504 0.741401 0.171615
H33   H     H_    0.269633 0.743247 0.850387 0.145191
O68   O     O_3   0.653459 0.678926 0.176423 -0.607998
C124  C     C_3   0.709677 0.711534 0.212059 -0.258738
H34   H     H_    0.741643 0.669705 0.221914 0.188265
H35   H     H_    0.732365 0.742635 0.280113 0.179492
H36   H     H_    0.700093 0.751158 0.157585 0.155876
O69   O     O_3   0.626312 0.707316 0.724188 -0.514071
C125  C     C_3   0.679454 0.662548 0.774331 -0.252165
H37   H     H_    0.708349 0.666849 0.853898 0.112772
H38   H     H_    0.707624 0.675389 0.753591 0.199909
H39   H     H_    0.664596 0.604560 0.754459 0.178847
O70   O     O_3   0.376677 0.712475 0.264889 -0.506380
C126  C     C_3   0.324368 0.666382 0.214515 -0.239160
H40   H     H_    0.294841 0.672117 0.134978 0.108367
H41   H     H_    0.296482 0.676559 0.236396 0.199151
H42   H     H_    0.340282 0.608593 0.232830 0.182975
O71   O     O_3   0.128477 0.209472 0.739033 -0.518275
C127  C     C_3   0.182131 0.165513 0.790435 -0.251432
H43   H     H_    0.211753 0.172490 0.869820 0.115311
H44   H     H_    0.209397 0.176750 0.767678 0.203880
H45   H     H_    0.167962 0.107110 0.774121 0.176948
O72   O     O_3   0.872596 0.213741 0.255829 -0.518038
C128  C     C_3   0.819307 0.169264 0.204614 -0.246225
H46   H     H_    0.789416 0.176540 0.125220 0.114237
H47   H     H_    0.792156 0.179657 0.227758 0.204091
H48   H     H_    0.833955 0.110975 0.220696 0.179068
N5    N     N_R   0.681652 0.804472 0.678221 0.232879
O73   O     O_R   0.734098 0.815769 0.698547 -0.384304
O74   O     O_R   0.637413 0.772576 0.597461 -0.329883
N6    N     N_R   0.321663 0.803734 0.316992 0.235055
O75   O     O_R   0.270159 0.814306 0.299938 -0.383013
O76   O     O_R   0.366223 0.769015 0.394908 -0.324259
N7    N     N_R   0.180485 0.303156 0.683916 0.235695
O77   O     O_R   0.231659 0.315239 0.700471 -0.382962
O78   O     O_R   0.136553 0.267407 0.606682 -0.329349
N8    N     N_R   0.820010 0.305759 0.311354 0.238364
O79   O     O_R   0.768574 0.316781 0.294377 -0.367243
O80   O     O_R   0.864082 0.269849 0.388432 -0.327720
O81   O     O_3   0.678567 0.995139 0.861716 -0.594834
C129  C     C_3   0.716543 0.003125 0.962562 -0.180062
H49   H     H_    0.747895 0.955752 0.004382 0.169942
H50   H     H_    0.687609 0.013158 0.982543 0.188439
H51   H     H_    0.745990 0.052221 0.984427 0.157057
O82   O     O_3   0.317492 0.002252 0.134030 -0.592027
C130  C     C_3   0.276978 0.012004 0.033162 -0.180628
H52   H     H_    0.245986 0.964455 0.991444 0.170173
H53   H     H_    0.303795 0.024665 0.009965 0.187174
H54   H     H_    0.247139 0.060100 0.014533 0.154955
O83   O     O_3   0.179993 0.501008 0.862735 -0.593970
C131  C     C_3   0.220135 0.511704 0.963393 -0.184307
H55   H     H_    0.252327 0.465157 0.006073 0.170987
H56   H     H_    0.192928 0.523087 0.986207 0.187484
H57   H     H_    0.248744 0.560875 0.981158 0.157190
O84   O     O_3   0.819095 0.505842 0.133459 -0.594323
C132  C     C_3   0.780333 0.517719 0.033102 -0.176340
H58   H     H_    0.749270 0.470876 0.988783 0.170119
H59   H     H_    0.808649 0.531407 0.012870 0.187950
H60   H     H_    0.750575 0.565849 0.014697 0.152265
O85   O     O_3   0.616519 0.900656 0.895519 -0.560739
C133  C     C_3   0.645445 0.865187 0.984587 -0.211497
H61   H     H_    0.692630 0.844246 0.019735 0.096783
H62   H     H_    0.615831 0.820074 0.975212 0.214783
H63   H     H_    0.650351 0.905231 0.034954 0.174290
O86   O     O_3   0.376881 0.912564 0.090838 -0.568314
C134  C     C_3   0.345366 0.878981 0.999977 -0.199526
H64   H     H_    0.298596 0.858253 0.967448 0.096111
H65   H     H_    0.373750 0.834089 0.005281 0.215330
H66   H     H_    0.338959 0.920268 0.949430 0.169933
O87   O     O_3   0.121900 0.409366 0.906550 -0.565127
C135  C     C_3   0.153730 0.376862 0.998160 -0.185144
H67   H     H_    0.200985 0.357276 0.031687 0.091648
H68   H     H_    0.126079 0.331369 0.993601 0.220571
H69   H     H_    0.159079 0.418482 0.047472 0.168682
O88   O     O_3   0.876008 0.414831 0.086304 -0.566472
C136  C     C_3   0.843690 0.382227 0.994680 -0.183619
H70   H     H_    0.796876 0.361875 0.962424 0.091296
H71   H     H_    0.871510 0.337239 0.998644 0.221336
H72   H     H_    0.837260 0.424029 0.944601 0.164177
N9    N     N_R   0.817606 0.895194 0.901615 0.221375
O89   O     O_R   0.854100 0.850335 0.903868 -0.382864
O90   O     O_R   0.812183 0.889788 0.967008 -0.433540
N10   N     N_R   0.182624 0.895265 0.098283 0.222339
O91   O     O_R   0.146449 0.850264 0.096573 -0.382620
O92   O     O_R   0.187643 0.889994 0.032436 -0.436918
N11   N     N_R   0.317570 0.395591 0.902287 0.222114
O93   O     O_R   0.353871 0.350445 0.904431 -0.381180
O94   O     O_R   0.312419 0.390601 0.968010 -0.436019
N12   N     N_R   0.682804 0.401213 0.091761 0.221145
O95   O     O_R   0.647776 0.353041 0.088528 -0.377883
O96   O     O_R   0.686769 0.401374 0.024567 -0.437875
N13   N     N_R   0.682216 0.089764 0.580433 0.202880
O97   O     O_R   0.692233 0.159619 0.582456 -0.436029
O98   O     O_R   0.641571 0.058102 0.497537 -0.432580
N14   N     N_R   0.317733 0.088777 0.420009 0.202436
O99   O     O_R   0.307591 0.158589 0.418163 -0.439208
O100  O     O_R   0.358592 0.056947 0.502791 -0.434328
N15   N     N_R   0.182155 0.588927 0.579806 0.202456
O101  O     O_R   0.192333 0.658706 0.581610 -0.439016
O102  O     O_R   0.141261 0.557219 0.497042 -0.433525
N16   N     N_R   0.818366 0.582032 0.425711 0.209448
O103  O     O_R   0.807258 0.651025 0.426919 -0.440422
O104  O     O_R   0.860577 0.548889 0.506755 -0.430612
O105  O     O_3   0.828403 0.017104 0.635521 -0.553229
C137  C     C_3   0.768091 0.001591 0.550162 -0.190877
H73   H     H_    0.771282 0.965399 0.504605 0.167256
H74   H     H_    0.741218 0.051016 0.506228 0.162255
H75   H     H_    0.742896 0.970525 0.567551 0.206640
O106  O     O_3   0.172340 0.014964 0.365809 -0.552727
C138  C     C_3   0.232780 0.999516 0.451004 -0.194845
H76   H     H_    0.229876 0.963097 0.496738 0.163141
H77   H     H_    0.259534 0.048936 0.494868 0.162059
H78   H     H_    0.257959 0.968719 0.433377 0.207302
O107  O     O_3   0.327347 0.514651 0.633781 -0.552634
C139  C     C_3   0.266922 0.499693 0.548338 -0.193330
H79   H     H_    0.269830 0.463253 0.502648 0.163029
H80   H     H_    0.240410 0.549327 0.504570 0.161464
H81   H     H_    0.241495 0.469087 0.565628 0.207732
O108  O     O_3   0.707118 0.486631 0.401717 -0.550527
C140  C     C_3   0.754065 0.487946 0.502814 -0.137795
H82   H     H_    0.734914 0.472232 0.537694 0.167440
H83   H     H_    0.778420 0.541574 0.531584 0.161747
H84   H     H_    0.789096 0.446098 0.523492 0.192947
O109  O     O_3   0.890213 0.120848 0.616735 -0.531063
C141  C     C_3   0.845744 0.131050 0.516161 -0.066733
H85   H     H_    0.869777 0.132400 0.486692 0.215997
H86   H     H_    0.820020 0.183770 0.495721 0.167710
H87   H     H_    0.813085 0.084362 0.481697 0.119810
O110  O     O_3   0.110249 0.117722 0.385245 -0.530510
C142  C     C_3   0.154781 0.128112 0.485744 -0.069354
H88   H     H_    0.131031 0.127842 0.515670 0.215379
H89   H     H_    0.179329 0.181596 0.505671 0.169791
H90   H     H_    0.188430 0.082370 0.520216 0.116338
O111  O     O_3   0.389828 0.616913 0.614564 -0.530293
C143  C     C_3   0.345358 0.627466 0.514053 -0.068428
H91   H     H_    0.369284 0.628063 0.484394 0.216317
H92   H     H_    0.320258 0.680636 0.493961 0.166786
H93   H     H_    0.312162 0.581310 0.479458 0.117184
O112  O     O_3   0.641056 0.559188 0.445468 -0.545964
C144  C     C_3   0.673112 0.600383 0.531314 -0.180370
H94   H     H_    0.647993 0.651472 0.519986 0.244955
H95   H     H_    0.720978 0.613909 0.562306 0.116237
H96   H     H_    0.676423 0.567154 0.585524 0.169650

loop_
_geom_bond_atom_site_label_1
_geom_bond_atom_site_label_2
_geom_bond_distance
_ccdc_geom_bond_type
C140  H82   1.109364 S    
C67   C71   1.413491 A    
C119  H21   1.109882 S    
C64   O112  1.384751 S    
C29   O49   1.386137 S    
C134  H65   1.108960 S    
O82   C130  1.413075 S    
C17   C21   1.407912 A    
C59   C79   1.415749 A    
C30   O50   1.386675 S    
C4    C84   1.393296 S    
C35   C39   1.404604 A    
O35   C98   1.278504 A    
C75   C79   1.409978 A    
N7    O77   1.300598 A    
C127  H45   1.109224 S    
C9    C13   1.413975 A    
C143  H91   1.109622 S    
N8    O79   1.300662 A    
O43   C101  1.278439 A    
C12   C32   1.411299 A    
C144  H96   1.109281 S    
C71   O63   1.382893 S    
C34   C54   1.392363 A    
O17   Zn5   1.991339 S    
C69   O61   1.382982 S    
C50   C54   1.411738 A    
N12   O95   1.301169 A    
O4    C4    1.265793 A    
C135  H69   1.109031 S    
O25   Zn6   2.025826 S    
O37   C99   1.278442 A    
N3    O57   1.300823 A    
O69   C125  1.413588 S    
Zn8   O32   1.991488 S    
C34   N10   1.440336 S    
C16   N8    1.440153 S    
O48   C104  1.278544 A    
C85   C99   1.393491 S    
O21   C91   1.269486 A    
N4    O59   1.301007 A    
N11   O93   1.301050 A    
O46   C103  1.278485 A    
C104  C108  1.394381 S    
C66   C70   1.413599 A    
N15   O102  1.301316 A    
C42   C46   1.396972 A    
C137  H73   1.109253 S    
O16   Zn4   2.022195 S    
O34   C97   1.278636 A    
O13   C5    1.271834 A    
O7    Zn4   1.989840 S    
C20   C56   1.491398 S    
O15   C7    1.271582 A    
O63   C119  1.413535 S    
C37   C91   1.433571 S    
O39   Zn11  1.994513 S    
C58   C62   1.410279 A    
C134  H64   1.115872 S    
O40   C102  1.278439 A    
C12   O72   1.384311 S    
C48   C52   1.407243 A    
C139  H79   1.109394 S    
O9    C5    1.265045 A    
C9    O69   1.384514 S    
C113  H3    1.109733 S    
Zn7   O31   1.991784 S    
N6    O76   1.301366 A    
C140  H84   1.109394 S    
O8    Zn4   1.989541 S    
C133  H61   1.115925 S    
N10   O92   1.300181 A    
C70   O62   1.382881 S    
C39   C43   1.409943 A    
O3    Zn2   1.990082 S    
C64   C68   1.414086 A    
N2    O55   1.300767 A    
C136  H72   1.109137 S    
C137  H75   1.108604 S    
O32   C96   1.266007 A    
C37   C41   1.409898 A    
O25   C91   1.264863 A    
C120  H24   1.108532 S    
C31   O51   1.386369 S    
C143  H93   1.108420 S    
C40   C44   1.413321 A    
C46   C50   1.408329 A    
C142  H90   1.107934 S    
C117  H14   1.114389 S    
Zn5   O29   1.991784 S    
O3    C3    1.265778 A    
N15   O101  1.300639 A    
O85   C133  1.414146 S    
C73   O65   1.385882 S    
C28   C32   1.410805 A    
O35   Zn11  1.992457 S    
N1    O53   1.300827 A    
C21   C25   1.412725 A    
C83   C87   1.181279 T    
C68   N4    1.440439 S    
C23   C27   1.412188 A    
C24   C28   1.413234 A    
O18   Zn6   1.991636 S    
C59   O107  1.385967 S    
O44   Zn11  1.988467 S    
O107  C139  1.411354 S    
O27   Zn8   2.025826 S    
O20   C90   1.265294 A    
O50   C114  1.412812 S    
O26   Zn5   2.025822 S    
C9    C29   1.411373 A    
O27   C93   1.264595 A    
C132  H58   1.113817 S    
C12   C16   1.414246 A    
C119  H20   1.114310 S    
C44   C48   1.395747 A    
C128  H46   1.114250 S    
C136  H71   1.109007 S    
C110  C111  1.182053 T    
C139  H81   1.108605 S    
C72   C76   1.408901 A    
C115  H7    1.115564 S    
O33   Zn9   1.992457 S    
N9    O90   1.300254 A    
C124  H34   1.108593 S    
C116  H11   1.108786 S    
C113  H1    1.115639 S    
C43   C79   1.489209 S    
C66   N2    1.441743 S    
O5    Zn3   1.989840 S    
C123  H32   1.111520 S    
C127  H44   1.109876 S    
C57   C77   1.415691 A    
O42   Zn9   1.988467 S    
C19   C55   1.491488 S    
O2    Zn1   1.990381 S    
O23   Zn7   2.018968 S    
O43   Zn12  1.988468 S    
C35   C55   1.392269 A    
O49   C113  1.412964 S    
O81   C129  1.413039 S    
C130  H54   1.109617 S    
N13   O98   1.301349 A    
O66   C122  1.409212 S    
O64   C120  1.411405 S    
C135  H68   1.109032 S    
C10   C14   1.415089 A    
Zn9   O45   1.992942 S    
O13   Zn3   2.021497 S    
Zn10  O46   1.992235 S    
N14   O99   1.300633 A    
C126  H42   1.109209 S    
C5    C49   1.436043 S    
N11   O94   1.300158 A    
C131  H56   1.109555 S    
O38   Zn10  1.994513 S    
O41   C99   1.278376 A    
C43   C47   1.397137 A    
O5    C1    1.266389 A    
C120  H22   1.108480 S    
C41   C45   1.397240 A    
O37   Zn9   1.994513 S    
O8    C4    1.266463 A    
O15   Zn4   2.021497 S    
N5    O74   1.301155 A    
C87   C101  1.393482 S    
C62   O110  1.383240 S    
C96   C110  1.394573 S    
N16   O104  1.300873 A    
C73   C77   1.409962 A    
C45   N13   1.444582 S    
C74   O66   1.385963 S    
C18   C54   1.491745 S    
C125  H37   1.114410 S    
O14   C6    1.271801 A    
O42   C100  1.278415 A    
C11   C31   1.411604 A    
O72   C128  1.413723 S    
C128  H48   1.109218 S    
C27   O87   1.384946 S    
O40   Zn12  1.994513 S    
C39   C93   1.433996 S    
C115  H9    1.109767 S    
C11   O71   1.384314 S    
C124  H36   1.109236 S    
O10   C6    1.264893 A    
O38   C100  1.278405 A    
C60   O108  1.388787 S    
C138  H78   1.108608 S    
C76   C80   1.414367 A    
C2    C82   1.393245 S    
O68   C124  1.411066 S    
C143  H92   1.115656 S    
N8    O80   1.301366 A    
C69   C73   1.405195 A    
C144  H95   1.113518 S    
C21   O81   1.388952 S    
C71   C75   1.405011 A    
C20   C24   1.407838 A    
C118  H18   1.109862 S    
C47   N15   1.444460 S    
C121  H25   1.108697 S    
C130  H52   1.114034 S    
C129  H49   1.114338 S    
N12   O96   1.300017 A    
C32   O52   1.386460 S    
O20   Zn8   1.991636 S    
O23   C93   1.269888 A    
C6    C50   1.435486 S    
C61   C65   1.411688 A    
C125  H39   1.109225 S    
C38   C42   1.409952 A    
C63   C67   1.411870 A    
C67   N3    1.441639 S    
C60   C64   1.413075 A    
C126  H40   1.114246 S    
C135  H67   1.115865 S    
C8    C52   1.432835 S    
N4    O60   1.301450 A    
O36   C98   1.278597 A    
C132  H60   1.109576 S    
C36   N12   1.440104 S    
C89   C105  1.393768 S    
C137  H74   1.115545 S    
C74   C78   1.409869 A    
O111  C143  1.411899 S    
C22   C26   1.412031 A    
C28   O88   1.384515 S    
O110  C142  1.411800 S    
O19   Zn7   1.991339 S    
C129  H51   1.109566 S    
C139  H80   1.115554 S    
C35   N11   1.440358 S    
O67   C123  1.409162 S    
C49   C53   1.411748 A    
O45   C103  1.278778 A    
O28   Zn7   2.025822 S    
C114  H6    1.109770 S    
C10   C30   1.411895 A    
C140  H83   1.114514 S    
C76   O68   1.386047 S    
C133  H62   1.109153 S    
C70   C74   1.404907 A    
C134  H66   1.109106 S    
O12   Zn2   2.021929 S    
O87   C135  1.414375 S    
C7    C51   1.435518 S    
O1    C1    1.265818 A    
N2    O56   1.301559 A    
C138  H76   1.109373 S    
C65   C69   1.413540 A    
C27   C31   1.410751 A    
O70   C126  1.413619 S    
O105  C137  1.411260 S    
C13   C17   1.413843 A    
C36   C40   1.405813 A    
C13   N5    1.439158 S    
C133  H63   1.108861 S    
C25   O85   1.385288 S    
C15   C19   1.414431 A    
C131  H57   1.109581 S    
O24   Zn8   2.018966 S    
C118  H16   1.109255 S    
C57   C61   1.410230 A    
O88   C136  1.414621 S    
C142  H89   1.115092 S    
O41   Zn10  1.988468 S    
C11   C15   1.414742 A    
Zn11  O47   1.992942 S    
C84   C88   1.181278 T    
O47   C104  1.278722 A    
O33   C97   1.278478 A    
C33   C37   1.404826 A    
O22   C92   1.269959 A    
C117  H13   1.109308 S    
C33   N9    1.440066 S    
C41   C77   1.489346 S    
O6    C2    1.266320 A    
O4    Zn2   1.990381 S    
C123  H33   1.109036 S    
C57   O105  1.385900 S    
C62   C66   1.412093 A    
C131  H55   1.114087 S    
C59   C63   1.410291 A    
C136  H70   1.115849 S    
C141  H86   1.115698 S    
C45   C49   1.408697 A    
C115  H8    1.108781 S    
O19   C90   1.266472 A    
C47   C51   1.408691 A    
C95   C109  1.394598 S    
O10   Zn1   2.021929 S    
C116  H10   1.115434 S    
C113  H2    1.108763 S    
C114  H4    1.115561 S    
C44   C80   1.492116 S    
N6    O75   1.300622 A    
C132  H59   1.109690 S    
C141  H85   1.109623 S    
N3    O58   1.301601 A    
C141  H87   1.108453 S    
C36   C56   1.391393 A    
C130  H53   1.109587 S    
N13   O97   1.300597 A    
C142  H88   1.109270 S    
C97   C111  1.394762 S    
C52   C56   1.410063 A    
C46   N14   1.444431 S    
O61   C117  1.413700 S    
C123  H31   1.108674 S    
O7    C3    1.266455 A    
C14   N6    1.440154 S    
O84   C132  1.413216 S    
N14   O100  1.301316 A    
C18   C22   1.407985 A    
O29   C95   1.266079 A    
C126  H41   1.109888 S    
O21   Zn5   2.018968 S    
C72   O64   1.381598 S    
C42   C78   1.488929 S    
C68   C72   1.409653 A    
N1    O54   1.301530 A    
C58   C78   1.415690 A    
O31   C96   1.266091 A    
C25   C29   1.411346 A    
N5    O73   1.300586 A    
O17   C89   1.265857 A    
C48   N16   1.442107 S    
O11   C7    1.265127 A    
O12   C8    1.264134 A    
C60   C80   1.410594 A    
O1    Zn1   1.990082 S    
O9    Zn1   2.022622 S    
C75   O67   1.385917 S    
Zn6   O30   1.991488 S    
C22   O82   1.389131 S    
C90   C106  1.393872 S    
C23   O83   1.388947 S    
C81   C85   1.181290 T    
C125  H38   1.109858 S    
O16   C8    1.271344 A    
C16   C20   1.414601 A    
O36   Zn12  1.993163 S    
C119  H19   1.109254 S    
C122  H29   1.111461 S    
C128  H47   1.109813 S    
O11   Zn2   2.022622 S    
C19   C23   1.408037 A    
C10   O70   1.384242 S    
O52   C116  1.412872 S    
C124  H35   1.114051 S    
O28   C94   1.264406 A    
C116  H12   1.109764 S    
C103  C107  1.394208 S    
C26   O86   1.384655 S    
O51   C115  1.413010 S    
C138  H77   1.115467 S    
O6    Zn3   1.989541 S    
C127  H43   1.114313 S    
O65   C121  1.409372 S    
C88   C102  1.393442 S    
C58   O106  1.386051 S    
O18   C89   1.265933 A    
C144  H94   1.108802 S    
C118  H17   1.114280 S    
N16   O103  1.300556 A    
C105  C108  1.181667 T    
C121  H26   1.111612 S    
O83   C131  1.413007 S    
O22   Zn6   2.018966 S    
C106  C107  1.181807 T    
C109  C112  1.182048 T    
C129  H50   1.109592 S    
C86   C100  1.393452 S    
O71   C127  1.413698 S    
O2    C2    1.265893 A    
O112  C144  1.413672 S    
C98   C112  1.394748 S    
C34   C38   1.404770 A    
O34   Zn10  1.993163 S    
N7    O78   1.301322 A    
C17   C53   1.491752 S    
O86   C134  1.414378 S    
C24   O84   1.389766 S    
C14   C18   1.414602 A    
C33   C53   1.391888 A    
O14   Zn3   2.022195 S    
C15   N7    1.440143 S    
C121  H27   1.108829 S    
O109  C141  1.411877 S    
C26   C30   1.410559 A    
C38   C92   1.434125 S    
N10   O91   1.301069 A    
C40   C94   1.436906 S    
O39   C101  1.278364 A    
C120  H23   1.115736 S    
C51   C55   1.411507 A    
C117  H15   1.109680 S    
C65   N1    1.441438 S    
O106  C138  1.411359 S    
O30   C95   1.266024 A    
O108  C140  1.412348 S    
C82   C86   1.181307 T    
N9    O89   1.301045 A    
C61   O109  1.383245 S    
C122  H30   1.108955 S    
Zn12  O48   1.992235 S    
C63   O111  1.383253 S    
C1    C81   1.393227 S    
O62   C118  1.413553 S    
O44   C102  1.278366 A    
C122  H28   1.108630 S    
C3    C83   1.393243 S    
O24   C94   1.271748 A    
O26   C92   1.264593 A    
C114  H5    1.108794 S    
