data_mof_unit_20570.cif
_audit_creation_date              2012-10-26T21:01:32-0400
_audit_creation_method            fapswitch 2.2
_symmetry_space_group_name_H-M    P1
_symmetry_Int_Tables_number       1
_space_group_crystal_system       triclinic
_cell_length_a                    15.839884
_cell_length_b                    12.993353
_cell_length_c                    11.755781
_cell_angle_alpha                 100.139699
_cell_angle_beta                  92.526366
_cell_angle_gamma                 90.833335
_cell_volume                      2378.778971

loop_
_atom_site_label
_atom_site_type_symbol
_atom_type_description
_atom_site_fract_x
_atom_site_fract_y
_atom_site_fract_z
_atom_type_partial_charge
C1    C     C_R   0.498512 0.299200 0.478486 0.539875
C2    C     C_R   0.496183 0.968340 0.444567 0.045938
C3    C     C_R   0.439451 0.382515 0.022854 0.048705
C4    C     C_R   0.564014 0.615026 0.977701 0.042649
C5    C     C_R   0.435096 0.402925 0.144718 0.391541
C6    C     C_R   0.566230 0.596042 0.855219 0.400850
C7    C     C_R   0.538277 0.538898 0.155888 0.379456
C8    C     C_R   0.464413 0.458682 0.845854 0.370659
C9    C     C_R   0.527321 0.538560 0.034145 -0.108840
C10   C     C_R   0.477599 0.458142 0.966548 -0.097093
C11   C     C_R   0.340033 0.500441 0.501268 0.530801
C12   C     C_R   0.501570 0.700803 0.521509 0.542057
C13   C     C_R   0.659835 0.499434 0.498689 0.533724
C14   C     C_3   0.973318 0.456162 0.590135 0.273836
C15   C     C_3   0.025414 0.538760 0.413254 0.278347
C16   C     C_3   0.026757 0.400844 0.492951 0.088918
C17   C     C_3   0.972300 0.594137 0.510653 0.084408
C18   C     C_1   0.250488 0.500821 0.503773 -0.051453
C19   C     C_1   0.749088 0.497367 0.496200 -0.038581
C20   C     C_3   0.030036 0.556608 0.603947 -0.139455
C21   C     C_3   0.969125 0.438225 0.399821 -0.127416
C22   C     C_3   0.083369 0.499612 0.504447 0.026081
C23   C     C_R   0.488689 0.014083 0.345471 -0.140062
C24   C     C_3   0.915882 0.495344 0.498675 0.028932
C25   C     C_1   0.174986 0.500526 0.504688 -0.034700
C26   C     C_1   0.824460 0.495906 0.496590 -0.028701
C27   C     C_R   0.502833 0.814435 0.533837 -0.003357
C28   C     C_R   0.497439 0.185575 0.466145 -0.003235
C29   C     C_3   0.001579 0.401651 0.764322 0.002376
C30   C     C_3   0.970729 0.325392 0.839543 -0.246510
C31   C     C_3   0.041483 0.298551 0.921008 -0.493809
C32   C     C_3   0.989529 0.616092 0.255020 0.008371
C33   C     C_3   0.013073 0.603447 0.128986 -0.257825
C34   C     C_R   0.511767 0.985933 0.654497 -0.140088
C35   C     C_3   0.941440 0.636117 0.052740 -0.496802
C36   C     C_3   0.323658 0.479139 0.802141 0.035193
C37   C     C_3   0.271471 0.472359 0.907524 -0.307593
C38   C     C_3   0.197369 0.546398 0.912292 -0.492644
C39   C     C_3   0.685631 0.542164 0.174861 0.005223
C40   C     C_3   0.689870 0.421525 0.157330 -0.263664
C41   C     C_3   0.776457 0.384752 0.117000 -0.494005
C42   C     C_3   0.697813 0.653667 0.820588 0.021172
C43   C     C_3   0.745638 0.724608 0.753533 -0.248042
C44   C     C_3   0.840957 0.719236 0.775859 -0.477396
C45   C     C_R   0.489278 0.122352 0.356197 -0.134325
C46   C     C_3   0.302675 0.348334 0.179372 0.020933
C47   C     C_3   0.253444 0.279074 0.246837 -0.248894
C48   C     C_3   0.158322 0.288474 0.226014 -0.477642
C49   C     C_R   0.511105 0.877663 0.643776 -0.134174
C50   C     C_R   0.504732 0.139802 0.565418 -0.123546
C51   C     C_R   0.495625 0.860211 0.434559 -0.124078
C52   C     C_R   0.504249 0.031674 0.555404 0.045885
Cu1   Cu    Cu3+1 0.506200 0.507730 0.615930 1.019974
Cu2   Cu    Cu3+1 0.493800 0.492270 0.384070 1.028430
H1    H     H_    0.944728 0.389364 0.317571 0.104124
H2    H     H_    0.105344 0.294446 0.547284 0.221097
H3    H     H_    0.990816 0.748917 0.508652 0.240850
H4    H     H_    0.895187 0.700756 0.454180 0.215875
H5    H     H_    0.012651 0.479693 0.819657 0.125813
H6    H     H_    0.062201 0.373189 0.727194 0.127230
H7    H     H_    0.917887 0.360642 0.891123 0.159210
H8    H     H_    0.946850 0.251958 0.783285 0.180337
H9    H     H_    0.092150 0.256453 0.870679 0.146571
H10   H     H_    0.015802 0.247377 0.978169 0.146108
H11   H     H_    0.069143 0.370447 0.975513 0.139207
H12   H     H_    0.054998 0.605412 0.685965 0.096489
H13   H     H_    0.979473 0.700303 0.288017 0.139747
H14   H     H_    0.928831 0.572129 0.257871 0.110064
H15   H     H_    0.070519 0.651967 0.122933 0.170283
H16   H     H_    0.027147 0.520263 0.097199 0.161495
H17   H     H_    0.884261 0.585868 0.054044 0.137966
H18   H     H_    0.961424 0.627539 0.962313 0.144232
H19   H     H_    0.925671 0.719114 0.083272 0.144737
H20   H     H_    0.279681 0.456012 0.725525 0.162766
H21   H     H_    0.343549 0.562285 0.803760 0.142309
H22   H     H_    0.246114 0.391438 0.901950 0.148602
H23   H     H_    0.489381 0.811955 0.349261 0.132286
H24   H     H_    0.310292 0.495600 0.988796 0.153384
H25   H     H_    0.220745 0.628905 0.926908 0.152577
H26   H     H_    0.157530 0.535475 0.984587 0.142289
H27   H     H_    0.158365 0.530212 0.830184 0.129912
H28   H     H_    0.737690 0.575384 0.237638 0.143676
H29   H     H_    0.700062 0.567126 0.092312 0.103102
H30   H     H_    0.678452 0.392787 0.238550 0.193756
H31   H     H_    0.641551 0.384806 0.090623 0.145606
H32   H     H_    0.788781 0.408704 0.032973 0.141142
H33   H     H_    0.778458 0.298171 0.105593 0.151958
H34   H     H_    0.510940 0.188057 0.650719 0.133681
H35   H     H_    0.826759 0.418609 0.182103 0.137264
H36   H     H_    0.716787 0.571291 0.791281 0.141501
H37   H     H_    0.716504 0.677276 0.913955 0.128647
H38   H     H_    0.729959 0.700866 0.659405 0.181405
H39   H     H_    0.725778 0.806668 0.780540 0.170711
H40   H     H_    0.857836 0.743857 0.869467 0.134146
H41   H     H_    0.873750 0.773029 0.727889 0.184018
H42   H     H_    0.862825 0.638438 0.746562 0.186733
H43   H     H_    0.283826 0.324357 0.086212 0.129164
H44   H     H_    0.284992 0.431313 0.207972 0.142736
H45   H     H_    0.517015 0.843604 0.721398 0.166129
H46   H     H_    0.271039 0.196235 0.219032 0.170764
H47   H     H_    0.270107 0.301808 0.340793 0.182189
H48   H     H_    0.138667 0.369972 0.256788 0.193053
H49   H     H_    0.124304 0.235311 0.273470 0.184952
H50   H     H_    0.140574 0.265721 0.132475 0.134563
H51   H     H_    0.461986 0.250153 0.909192 0.236613
H52   H     H_    0.359362 0.285579 0.908613 0.258262
H53   H     H_    0.639328 0.717158 0.095012 0.242619
H54   H     H_    0.535831 0.747064 0.088262 0.235479
H55   H     H_    0.483368 0.156414 0.278575 0.165883
H56   H     H_    0.482413 0.966258 0.260012 0.109652
H57   H     H_    0.518078 0.033759 0.739954 0.109363
H58   H     H_    0.008015 0.247233 0.500883 0.249312
N1    N     N_R   0.515540 0.519350 0.790140 -0.238816
N2    N     N_R   0.484460 0.480650 0.209860 -0.232378
N3    N     N_3   0.057727 0.294773 0.483037 -0.649229
N4    N     N_3   0.940534 0.699849 0.521231 -0.652865
N5    N     N_3   0.413234 0.280800 0.961189 -0.612846
N6    N     N_3   0.586605 0.718165 0.039241 -0.617746
O1    O     O_R   0.504400 0.354460 0.582000 -0.486240
O2    O     O_3   0.056925 0.581557 0.320787 -0.570166
O3    O     O_3   0.392644 0.409154 0.788698 -0.554551
O4    O     O_3   0.608753 0.585962 0.219238 -0.536869
O5    O     O_3   0.609978 0.664419 0.800238 -0.517901
O6    O     O_3   0.390230 0.335456 0.199605 -0.518065
O7    O     O_R   0.495600 0.645540 0.418000 -0.485073
O8    O     O_R   0.493920 0.341410 0.386200 -0.470151
O9    O     O_R   0.506080 0.658590 0.613800 -0.468093
O10   O     O_R   0.384320 0.506520 0.597880 -0.497608
O11   O     O_R   0.615680 0.493480 0.402120 -0.473620
O12   O     O_R   0.373840 0.493460 0.402080 -0.483725
O13   O     O_R   0.626160 0.506540 0.597920 -0.487625
O14   O     O_3   0.938846 0.408740 0.677371 -0.570468

loop_
_geom_bond_atom_site_label_1
_geom_bond_atom_site_label_2
_ccdc_geom_bond_type
C41   H35   S    
C11   O12   A    
C11   C18   S    
C16   C21   S    
C23   C45   A    
C5    N2    A    
C40   H30   S    
C46   O6    S    
C12   O9    A    
C14   O14   S    
Cu1   Cu2   S    
C41   H32   S    
Cu2   O8    S    
C5    O6    S    
C37   C38   S    
C39   O4    S    
C47   H47   S    
C7    N2    A    
C20   H12   S    
C36   C37   S    
C36   H21   S    
C24   C26   S    
C30   C31   S    
C45   H55   S    
C8    O3    S    
C29   O14   S    
C38   H25   S    
C48   H50   S    
C17   C20   S    
C15   O2    S    
C15   C17   S    
C42   H37   S    
C1    O1    A    
C14   C24   S    
C23   H56   S    
C19   C26   T    
C3    N5    S    
C43   H39   S    
C28   C50   A    
C15   C22   S    
C29   H5    S    
Cu1   N1    S    
C22   C25   S    
C1    C28   S    
C50   C52   A    
Cu1   O13   S    
Cu1   O9    S    
C9    C10   A    
H53   N6    S    
C50   H34   S    
C32   H14   S    
C46   H44   S    
C35   H17   S    
H4    N4    S    
C34   H57   S    
H51   N5    S    
C18   C25   T    
C6    O5    S    
C32   O2    S    
Cu2   O12   S    
C27   C51   A    
C42   O5    S    
H3    N4    S    
C41   H33   S    
Cu2   O7    S    
C28   C45   A    
C17   C24   S    
C13   C19   S    
C12   C27   S    
H54   N6    S    
C1    O8    A    
C4    C6    A    
C39   C40   S    
C21   H1    S    
C12   O7    A    
C48   H49   S    
C47   H46   S    
C42   H36   S    
C40   H31   S    
C43   C44   S    
C51   H23   S    
C6    N1    A    
C29   C30   S    
C44   H42   S    
Cu1   O10   S    
C14   C20   S    
C49   H45   S    
C47   C48   S    
C29   H6    S    
C48   H48   S    
C13   O13   A    
C36   H20   S    
C33   H16   S    
C32   H13   S    
C8    N1    A    
C40   C41   S    
C46   H43   S    
C20   C22   S    
C35   H18   S    
C30   H8    S    
H52   N5    S    
C14   C16   S    
C21   C24   S    
C42   C43   S    
C7    O4    S    
C16   N3    S    
C31   H11   S    
Cu2   O11   S    
C46   C47   S    
C35   H19   S    
C34   C49   A    
C16   C22   S    
C31   H10   S    
C37   H22   S    
C39   H28   S    
C3    C5    A    
Cu1   O1    S    
C33   H15   S    
C31   H9    S    
C37   H24   S    
C34   C52   A    
C43   H38   S    
C2    C52   A    
C32   C33   S    
C11   O10   A    
C39   H29   S    
C38   H27   S    
C3    C10   A    
C38   H26   S    
Cu2   N2    S    
C33   C35   S    
H2    N3    S    
C36   O3    S    
C44   H40   S    
C2    C51   A    
C7    C9    A    
C15   C21   S    
C8    C10   A    
C30   H7    S    
C2    C23   A    
C44   H41   S    
C13   O11   A    
C4    C9    A    
H58   N3    S    
C27   C49   A    
C17   N4    S    
C4    N6    S    
