data_mof_unit_34244.cif
_audit_creation_date              2012-12-10T20:37:28-0500
_audit_creation_method            fapswitch 2.2
_symmetry_space_group_name_H-M    P1
_symmetry_Int_Tables_number       1
_space_group_crystal_system       triclinic
_cell_length_a                    15.722112
_cell_length_b                    10.67645
_cell_length_c                    9.85497
_cell_angle_alpha                 89.965439
_cell_angle_beta                  89.925373
_cell_angle_gamma                 90.053847
_cell_volume                      1654.21678538

loop_
_atom_site_label
_atom_site_type_symbol
_atom_type_description
_atom_site_fract_x
_atom_site_fract_y
_atom_site_fract_z
_atom_type_partial_charge
C1    C     C_R   0.502527 0.259903 0.500063 0.878586
C2    C     C_3   0.082904 0.501737 0.501307 0.087859
C3    C     C_3   0.971241 0.589686 0.586312 -0.173909
C4    C     C_3   0.917214 0.499200 0.500934 0.086327
C5    C     C_3   0.027918 0.614925 0.459932 -0.337395
C6    C     C_3   0.973007 0.523755 0.376369 0.435944
C7    C     C_1   0.173732 0.501223 0.500931 -0.005392
C8    C     C_1   0.826359 0.499290 0.500087 -0.002392
C9    C     C_R   0.515302 0.063771 0.623263 0.140401
C10   C     C_R   0.516065 0.128551 0.500678 -0.103328
C11   C     C_R   0.533230 0.064878 0.379237 -0.227627
C12   C     C_R   0.337892 0.499987 0.500085 0.908006
C13   C     C_R   0.533405 0.935351 0.379212 -0.226099
C14   C     C_R   0.516382 0.871418 0.500620 -0.101526
C15   C     C_R   0.515536 0.936019 0.623255 0.126149
C16   C     C_3   0.454375 0.928467 0.739281 -0.475033
C17   C     C_3   0.453956 0.070442 0.739067 -0.490938
C18   C     C_R   0.459504 0.406965 0.071426 0.208766
C19   C     C_R   0.546185 0.585295 0.071855 -0.123148
C20   C     C_R   0.546176 0.585325 0.927801 -0.129764
C21   C     C_R   0.459429 0.407048 0.928801 0.215379
C22   C     C_3   0.366864 0.376885 0.923564 -0.517018
C23   C     C_R   0.502707 0.740073 0.499968 0.876162
C24   C     C_3   0.367052 0.376416 0.077605 -0.492904
C25   C     C_R   0.662134 0.499974 0.499933 0.897136
C26   C     C_3   0.972228 0.386350 0.543419 -0.331958
C27   C     C_3   0.027892 0.412263 0.417777 0.435892
C28   C     C_1   0.249006 0.500596 0.500437 -0.196383
C29   C     C_1   0.751062 0.499586 0.499798 -0.180315
C30   C     C_3   0.028168 0.477343 0.627956 -0.176137
H1    H     H_    0.484062 0.887706 0.831595 0.201479
H2    H     H_    0.391599 0.111124 0.709374 0.200053
H3    H     H_    0.483200 0.111817 0.831410 0.203728
H4    H     H_    0.582121 0.655640 0.126154 0.145374
H5    H     H_    0.582089 0.655707 0.873273 0.146563
H6    H     H_    0.328328 0.454117 0.879546 0.223056
H7    H     H_    0.354591 0.283026 0.879129 0.198483
H8    H     H_    0.328450 0.453195 0.122450 0.224825
H9    H     H_    0.355326 0.282167 0.121859 0.205212
H10   H     H_    0.947331 0.294290 0.577726 0.149486
H11   H     H_    0.052832 0.707387 0.426944 0.149620
H12   H     H_    0.945366 0.661581 0.656425 0.153245
H13   H     H_    0.053503 0.459284 0.731220 0.151748
H14   H     H_    0.540558 0.113988 0.283700 0.171194
H15   H     H_    0.540838 0.886401 0.283674 0.166858
H16   H     H_    0.392217 0.886623 0.710152 0.205112
N1    N     N_R   0.499430 0.499140 0.142800 -0.107337
N2    N     N_R   0.499430 0.499180 0.857150 -0.105585
O1    O     O_R   0.500010 0.316790 0.614690 -0.616001
O2    O     O_R   0.500000 0.316760 0.385350 -0.623555
O3    O     O_R   0.376780 0.500010 0.614650 -0.618143
O4    O     O_R   0.376770 0.499970 0.385310 -0.611671
O5    O     O_R   0.500000 0.683240 0.614650 -0.621633
O6    O     O_R   0.499990 0.683210 0.385310 -0.626971
O7    O     O_R   0.623230 0.500030 0.614690 -0.616085
O8    O     O_R   0.623220 0.499990 0.385350 -0.608392
Zn1   Zn    Zn3+2 0.500010 0.500020 0.653130 0.945028
Zn2   Zn    Zn3+2 0.499990 0.499980 0.346870 0.948991
O9    O     O_3   0.064709 0.323573 0.329444 -0.620311
C31   C     C_3   0.000895 0.243347 0.279003 0.100343
H17   H     H_    0.947299 0.296926 0.233449 0.172994
H18   H     H_    0.976169 0.182000 0.361428 0.139389
C32   C     C_3   0.038821 0.160577 0.169005 -0.828587
H19   H     H_    0.091817 0.104037 0.211310 0.258749
H20   H     H_    0.989293 0.096333 0.128880 0.204834
H21   H     H_    0.063353 0.219419 0.084541 0.255108
O10   O     O_3   0.937384 0.544314 0.246891 -0.617834
C33   C     C_3   0.001919 0.580928 0.155514 0.101949
H22   H     H_    0.056783 0.515021 0.157448 0.169585
H23   H     H_    0.024535 0.677034 0.180073 0.139371
C34   C     C_3   0.966157 0.581839 0.012152 -0.833230
H24   H     H_    0.911556 0.647497 0.005742 0.261033
H25   H     H_    0.016083 0.612469 0.939512 0.200221
H26   H     H_    0.944511 0.486319 0.983777 0.256362

loop_
_geom_bond_atom_site_label_1
_geom_bond_atom_site_label_2
_ccdc_geom_bond_type
C32   H20   S    
C3    H12   S    
C18   C21   A    
C2    C7    S    
C25   O8    A    
C4    C8    S    
C18   N1    A    
N2    Zn1   S    
C16   H1    S    
C26   C27   S    
C12   C28   S    
C31   C32   S    
C18   C24   S    
C8    C29   T    
O6    Zn2   S    
C5    C6    S    
C19   N1    A    
C15   C16   S    
C24   H9    S    
O1    Zn1   S    
C31   H18   S    
C20   H5    S    
C19   C20   A    
C16   C17   S    
C24   H8    S    
C2    C27   S    
O3    Zn1   S    
C1    O2    A    
C21   N2    A    
C32   H21   S    
O9    C31   S    
C13   C14   A    
C17   H3    S    
C12   O4    A    
C23   O5    A    
C25   C29   S    
O10   C33   S    
O2    Zn2   S    
C4    C6    S    
C16   H16   S    
C34   H25   S    
O5    Zn1   S    
C33   H22   S    
C22   H7    S    
C7    C28   T    
C31   H17   S    
C14   C23   S    
C3    C30   S    
C6    C27   S    
C11   H14   S    
C20   N2    A    
O4    Zn2   S    
C9    C17   S    
C6    O10   S    
C26   C30   S    
O7    Zn1   S    
C22   C24   S    
C30   H13   S    
C2    C5    S    
C3    C4    S    
C12   O3    A    
C23   O6    A    
C9    C10   A    
C5    H11   S    
C1    C10   S    
C25   O7    A    
C3    C5    S    
C19   H4    S    
C34   H26   S    
C4    C26   S    
C22   H6    S    
C2    C30   S    
C9    C15   A    
C34   H24   S    
C27   O9    S    
N1    Zn2   S    
C13   H15   S    
C11   C13   A    
C26   H10   S    
C33   C34   S    
O8    Zn2   S    
C10   C11   A    
C32   H19   S    
C33   H23   S    
C17   H2    S    
C14   C15   A    
C21   C22   S    
C1    O1    A    
