data_mof_unit_63210.cif
_audit_creation_date              2013-03-05T16:41:29-0500
_audit_creation_method            fapswitch 2.2
_symmetry_space_group_name_H-M    P1
_symmetry_Int_Tables_number       1
_space_group_crystal_system       triclinic
_cell_length_a                    17.588624
_cell_length_b                    16.428102
_cell_length_c                    14.364835
_cell_angle_alpha                 89.999721
_cell_angle_beta                  90.224516
_cell_angle_gamma                 89.999558
_cell_volume                      4150.65429803

loop_
_atom_site_label
_atom_site_type_symbol
_atom_site_description
_atom_site_fract_x
_atom_site_fract_y
_atom_site_fract_z
_atom_type_partial_charge
O1    O     O_R   0.391260 0.567930 0.500000 -0.568192
O2    O     O_R   0.608740 0.432070 0.500000 -0.583867
O3    O     O_R   0.608740 0.567930 0.500000 -0.568189
O4    O     O_R   0.391260 0.432070 0.500000 -0.583866
C1    C     C_R   0.356050 0.499879 0.484453 0.831311
C2    C     C_R   0.643950 0.499879 0.515545 0.831308
O5    O     O_R   0.500000 0.567920 0.376050 -0.563121
O6    O     O_R   0.500000 0.432080 0.623950 -0.558177
O7    O     O_R   0.500000 0.567920 0.623950 -0.563121
O8    O     O_R   0.500000 0.432080 0.376050 -0.558177
C3    C     C_R   0.500056 0.500004 0.330646 0.819055
C4    C     C_R   0.499944 0.500003 0.669354 0.819058
Cu1   Cu    Cu3+1 0.500000 0.580420 0.500000 0.954768
Cu2   Cu    Cu3+1 0.500000 0.419580 0.500000 0.940749
C5    C     C_1   0.499945 0.500022 0.228464 -0.168996
C6    C     C_1   0.500055 0.500021 0.771536 -0.168994
C7    C     C_1   0.499921 0.500041 0.143168 0.031945
C8    C     C_1   0.500079 0.500041 0.856832 0.031947
C9    C     C_1   0.499969 0.500055 0.042650 0.045582
C10   C     C_1   0.500031 0.500054 0.957350 0.045583
C11   C     C_R   0.847468 0.573203 0.537653 0.306585
C12   C     C_R   0.152984 0.424601 0.463573 0.305318
C13   C     C_R   0.152532 0.573207 0.462352 0.306584
C14   C     C_R   0.847017 0.424597 0.536408 0.305329
C15   C     C_R   0.768079 0.573344 0.552758 0.026343
C16   C     C_R   0.232419 0.424717 0.448536 0.025971
C17   C     C_R   0.231920 0.573349 0.447247 0.026341
C18   C     C_R   0.767583 0.424713 0.551449 0.025954
C19   C     C_R   0.726942 0.499308 0.540882 -0.219554
C20   C     C_R   0.273058 0.499311 0.459115 -0.219549
C21   C     C_R   0.886010 0.498835 0.526859 -0.194875
C22   C     C_R   0.113990 0.498838 0.473133 -0.194868
C23   C     C_1   0.966416 0.498696 0.507738 0.201999
C24   C     C_1   0.033584 0.498697 0.492254 0.202002
C25   C     C_R   0.534312 0.828889 0.573850 0.222084
C26   C     C_R   0.554883 0.171402 0.448396 0.211432
C27   C     C_R   0.465688 0.828889 0.426147 0.222084
C28   C     C_R   0.445111 0.171405 0.551610 0.211422
C29   C     C_R   0.532186 0.742866 0.572127 -0.007597
C30   C     C_R   0.553415 0.257422 0.450570 -0.017416
C31   C     C_R   0.467814 0.742866 0.427872 -0.007600
C32   C     C_R   0.446585 0.257425 0.549434 -0.017421
H1    H     H_    0.557550 0.709070 0.628715 0.161515
H2    H     H_    0.594738 0.291700 0.411108 0.183345
H3    H     H_    0.442451 0.709070 0.371284 0.161516
H4    H     H_    0.405265 0.291707 0.588895 0.183371
N1    N     N_R   0.500000 0.701220 0.500000 -0.205749
N2    N     N_R   0.500000 0.298780 0.500000 -0.216604
C33   C     C_R   0.500000 0.873290 0.499998 -0.121541
C34   C     C_R   0.499996 0.127006 0.500002 -0.122149
C35   C     C_1   0.499999 0.962926 0.499998 0.238873
C36   C     C_1   0.499998 0.037369 0.499999 0.233843
N3    N     N_R   0.888802 0.648548 0.531981 0.143798
O9    O     O_R   0.865559 0.706262 0.476775 -0.282618
O10   O     O_R   0.949173 0.660157 0.582945 -0.289083
N4    N     N_R   0.112017 0.349105 0.470378 0.142540
O11   O     O_R   0.134853 0.292647 0.527503 -0.268465
O12   O     O_R   0.052035 0.336365 0.419079 -0.287341
N5    N     N_R   0.111198 0.648551 0.468035 0.143798
O13   O     O_R   0.134441 0.706258 0.523249 -0.282619
O14   O     O_R   0.050826 0.660167 0.417074 -0.289081
N6    N     N_R   0.887985 0.349102 0.529587 0.142543
O15   O     O_R   0.865144 0.292650 0.472459 -0.268468
O16   O     O_R   0.947967 0.336353 0.580882 -0.287334
C37   C     C_3   0.730107 0.649333 0.592753 -0.352527
C38   C     C_3   0.767426 0.678540 0.683338 -0.696046
H5    H     H_    0.776493 0.626547 0.731598 0.241807
H6    H     H_    0.822280 0.709437 0.670319 0.301647
H7    H     H_    0.729649 0.723411 0.717958 0.263452
H8    H     H_    0.729176 0.699131 0.540537 0.256390
H9    H     H_    0.671045 0.636698 0.613607 0.203316
C39   C     C_3   0.270572 0.348017 0.410124 -0.353127
C40   C     C_3   0.234217 0.318910 0.318912 -0.710557
H10   H     H_    0.178258 0.289976 0.330691 0.302960
H11   H     H_    0.227532 0.370627 0.269700 0.243553
H12   H     H_    0.271373 0.272486 0.286017 0.249394
H13   H     H_    0.330379 0.358786 0.390734 0.219383
H14   H     H_    0.269796 0.298512 0.462693 0.261231
C41   C     C_3   0.269892 0.649342 0.407260 -0.352530
C42   C     C_3   0.232570 0.678559 0.316680 -0.696040
H15   H     H_    0.223501 0.626571 0.268414 0.241809
H16   H     H_    0.177718 0.709457 0.329705 0.301648
H17   H     H_    0.270347 0.723431 0.282063 0.263454
H18   H     H_    0.270824 0.699133 0.459482 0.256390
H19   H     H_    0.328953 0.636707 0.386401 0.203318
C43   C     C_3   0.729430 0.348008 0.589851 -0.353119
C44   C     C_3   0.765799 0.318872 0.681042 -0.710506
H20   H     H_    0.821739 0.289905 0.669232 0.302971
H21   H     H_    0.772527 0.370580 0.730257 0.243562
H22   H     H_    0.728633 0.272467 0.713951 0.249375
H23   H     H_    0.669629 0.358784 0.609263 0.219376
H24   H     H_    0.730189 0.298516 0.537266 0.261229
N7    N     N_R   0.571304 0.869119 0.650896 0.146179
O17   O     O_R   0.577153 0.832610 0.731022 -0.324380
O18   O     O_R   0.606355 0.938107 0.639341 -0.305536
N8    N     N_R   0.612322 0.131173 0.393818 0.147313
O19   O     O_R   0.676539 0.167594 0.376944 -0.299994
O20   O     O_R   0.598381 0.062069 0.352908 -0.295126
N9    N     N_R   0.428696 0.869119 0.349100 0.146179
O21   O     O_R   0.422847 0.832609 0.268974 -0.324381
O22   O     O_R   0.393645 0.938107 0.360653 -0.305529
N10   N     N_R   0.387674 0.131180 0.606195 0.147336
O23   O     O_R   0.323484 0.167634 0.623140 -0.300006
O24   O     O_R   0.401590 0.062043 0.647043 -0.295135

loop_
_geom_bond_atom_site_label_1
_geom_bond_atom_site_label_2
_geom_bond_distance
_ccdc_geom_bond_type
C38   H6    1.106734 S    
C44   H20   1.106617 S    
N7    O17   1.301607 A    
C16   C39   1.531469 S    
C40   H10   1.106620 S    
C25   C29   1.413897 A    
C9    C10   1.225332 T    
C41   H19   1.102001 S    
O3    C2    1.296965 A    
N3    O9    1.300924 A    
O5    C3    1.292389 A    
C11   C21   1.406060 A    
C39   H13   1.103489 S    
C12   C22   1.406180 A    
O1    C1    1.296965 A    
C18   C19   1.426492 A    
C28   C32   1.413733 A    
C17   C41   1.528903 S    
C43   H23   1.103494 S    
C41   H18   1.109962 S    
C38   H7    1.111201 S    
C37   H8    1.109961 S    
N4    O11   1.300909 A    
C30   N2    1.361497 A    
C32   H4    1.081629 S    
Cu2   N2    1.984513 S    
O7    Cu1   1.792323 S    
C39   H14   1.109918 S    
C3    C5    1.467827 S    
C4    C6    1.467827 S    
C33   C35   1.472559 S    
N8    O20   1.301204 A    
C25   C33   1.420101 A    
C34   C36   1.472553 S    
C21   C23   1.441713 S    
C13   C17   1.413934 A    
N6    O16   1.301436 A    
O3    Cu1   1.923561 S    
N3    O10   1.301447 A    
C38   H5    1.111181 S    
N5    O13   1.300923 A    
N7    O18   1.301111 A    
Cu1   Cu2   2.642298 S    
C17   C20   1.425133 A    
C27   C31   1.413897 A    
C40   H11   1.111194 S    
O2    C2    1.293537 A    
C42   H17   1.111200 S    
C25   N7    1.442011 S    
C15   C19   1.425131 A    
N5    O14   1.301446 A    
C35   C36   1.222960 T    
C26   C30   1.413720 A    
C15   C37   1.528905 S    
C42   H16   1.106736 S    
O8    Cu2   1.792323 S    
Cu1   N1    1.984513 S    
C43   C44   1.532220 S    
C39   C40   1.532217 S    
C12   N4    1.437901 S    
C37   H9    1.102004 S    
C22   C24   1.441713 S    
C13   N5    1.437961 S    
N6    O15   1.300909 A    
C27   C33   1.420100 A    
C26   N8    1.441625 S    
N9    O21   1.301606 A    
C30   H2    1.081641 S    
O6    C4    1.292494 A    
N8    O19   1.301791 A    
C23   C24   1.203016 T    
C31   N1    1.362892 A    
C32   N2    1.361501 A    
N10   O24   1.301185 A    
N9    O22   1.301110 A    
C16   C20   1.426489 A    
C44   H21   1.111188 S    
C18   C43   1.531469 S    
C40   H12   1.111051 S    
O6    Cu2   1.792325 S    
O1    Cu1   1.923565 S    
C27   N9    1.442009 S    
C26   C34   1.420937 A    
C29   N1    1.362890 A    
C1    C20   1.503057 S    
C5    C7    1.225259 T    
C11   C15   1.413935 A    
C14   N6    1.437899 S    
C14   C18   1.414574 A    
C42   H15   1.111181 S    
C29   H1    1.079449 S    
C28   C34   1.420957 A    
C13   C22   1.406057 A    
C14   C21   1.406179 A    
C28   N10   1.441628 S    
C43   H24   1.109919 S    
C11   N3    1.437960 S    
O4    C1    1.293539 A    
C7    C9    1.443921 S    
N4    O12   1.301436 A    
C8    C10   1.443921 S    
O4    Cu2   1.923562 S    
N10   O23   1.301816 A    
O2    Cu2   1.923564 S    
O7    C4    1.292387 A    
O8    C3    1.292493 A    
C41   C42   1.532191 S    
O5    Cu1   1.792325 S    
C2    C19   1.503056 S    
C6    C8    1.225259 T    
C37   C38   1.532191 S    
C12   C16   1.414574 A    
C44   H22   1.111045 S    
C31   H3    1.079449 S    
