data_mof_unit_32689.cif
_audit_creation_date              2013-03-05T16:06:47-0500
_audit_creation_method            fapswitch 2.2
_symmetry_space_group_name_H-M    P1
_symmetry_Int_Tables_number       1
_space_group_crystal_system       triclinic
_cell_length_a                    6.942204
_cell_length_b                    14.533194
_cell_length_c                    16.219603
_cell_angle_alpha                 90.42372
_cell_angle_beta                  89.922879
_cell_angle_gamma                 90.053362
_cell_volume                      1636.38770788

loop_
_atom_site_label
_atom_site_type_symbol
_atom_site_description
_atom_site_fract_x
_atom_site_fract_y
_atom_site_fract_z
_atom_type_partial_charge
O1    O     O_R   0.505830 0.583360 0.413880 -0.621546
O2    O     O_R   0.175830 0.595460 0.585520 -0.560328
O3    O     O_R   0.005520 0.416640 0.586120 -0.524083
C1    C     C_R   0.344748 0.617069 0.614777 1.001121
O4    O     O_R   0.176120 0.594390 0.414490 -0.589095
O5    O     O_R   0.005810 0.415570 0.413870 -0.564215
C2    C     C_R   0.344996 0.616846 0.386355 1.049912
O6    O     O_R   0.505540 0.584430 0.586130 -0.577185
O7    O     O_3   0.339200 0.441330 0.500000 -0.218938
V1    V     V_3+5 0.064350 0.510880 0.500000 1.365970
O8    O     O_R   0.676100 0.404540 0.414480 -0.562323
C3    C     C_R   0.845435 0.383989 0.384910 1.004664
O9    O     O_R   0.675810 0.405610 0.585510 -0.604096
C4    C     C_R   0.844618 0.381694 0.612101 0.919370
V2    V     V_3+5 0.564340 0.489120 0.500000 1.347789
O10   O     O_3   0.839360 0.558670 0.500000 -0.254654
C5    C     C_2   0.732582 0.195230 0.775588 0.615986
C6    C     C_2   0.881454 0.187967 0.828788 0.360283
C7    C     C_2   0.709576 0.272641 0.716934 0.005921
C8    C     C_2   0.859594 0.305648 0.672150 0.449546
C9    C     C_R   0.743346 0.180310 0.246365 -0.047269
C10   C     C_R   0.878827 0.184525 0.183105 -0.147767
C11   C     C_R   0.003423 0.261455 0.184729 -0.108045
H1    H     H_    0.107454 0.270395 0.135603 0.184331
C12   C     C_R   0.995274 0.327902 0.249644 0.400546
C13   C     C_R   0.858513 0.318462 0.315073 -0.286273
C14   C     C_R   0.735095 0.243172 0.309134 -0.077237
C15   C     C_3   0.589792 0.188777 0.356488 0.864349
C16   C     C_3   0.599637 0.117257 0.285465 -0.022193
H2    H     H_    0.661834 0.049352 0.301918 0.087952
C17   C     C_R   0.515371 0.690784 0.734891 -0.005559
C18   C     C_R   0.357146 0.687499 0.681479 -0.215007
C19   C     C_R   0.218132 0.757521 0.689902 -0.115603
H3    H     H_    0.100879 0.760963 0.646036 0.202369
C20   C     C_R   0.230077 0.824576 0.753823 0.404464
C21   C     C_R   0.381280 0.820025 0.813250 -0.332299
C22   C     C_R   0.526450 0.754960 0.799029 -0.086684
C23   C     C_3   0.613090 0.686906 0.856582 1.263223
C24   C     C_3   0.598804 0.615942 0.787161 -0.095019
H4    H     H_    0.496248 0.558601 0.798864 0.142056
C25   C     C_R   0.493304 0.755484 0.317583 0.106666
C26   C     C_R   0.351979 0.686610 0.320031 -0.314681
C27   C     C_R   0.208618 0.689043 0.258449 -0.217574
H5    H     H_    0.092482 0.639296 0.259065 0.181872
C28   C     C_R   0.221140 0.751235 0.192016 0.777114
C29   C     C_R   0.376227 0.814059 0.186177 -0.389323
C30   C     C_R   0.505287 0.817078 0.252400 0.094692
C31   C     C_3   0.720017 0.818478 0.254104 -0.533351
C32   C     C_3   0.707432 0.751808 0.326281 0.165379
H6    H     H_    0.778424 0.887533 0.270168 0.218748
H7    H     H_    0.782197 0.786848 0.197649 0.248992
H8    H     H_    0.769728 0.682687 0.313366 0.088602
O11   O     O_R   0.229930 0.912420 0.917160 -0.576076
O12   O     O_R   0.559420 0.902500 0.088780 -0.605669
O13   O     O_R   0.729660 0.081330 0.089380 -0.589061
C33   C     C_R   0.390105 0.880137 0.116997 1.078052
O14   O     O_R   0.559650 0.901420 0.917750 -0.568022
O15   O     O_R   0.729880 0.080250 0.917130 -0.585646
C34   C     C_R   0.390876 0.881804 0.886995 1.099714
O16   O     O_R   0.229700 0.913500 0.089410 -0.568031
O17   O     O_3   0.396250 0.055540 0.003280 -0.249603
V3    V     V_3+5 0.671130 0.986010 0.003260 1.337241
O18   O     O_R   0.059600 0.091310 0.917720 -0.533455
C35   C     C_R   0.890693 0.113781 0.890196 0.928385
O19   O     O_R   0.059370 0.092380 0.088750 -0.567397
C36   C     C_R   0.890298 0.114121 0.117401 0.957101
V4    V     V_3+5 0.171120 0.007820 0.003230 1.375655
O20   O     O_3   0.896130 0.938240 0.003240 -0.249194
F1    F     F_    0.587483 0.132134 0.777432 -0.612620
N1    N     N_R   0.090589 0.897414 0.755884 0.241275
O21   O     O_R   0.912437 0.880892 0.735727 -0.338604
O22   O     O_R   0.147431 0.982387 0.763417 -0.330029
F2    F     F_    0.495675 0.667239 0.923263 -0.673633
F3    F     F_    0.799336 0.710450 0.879017 -0.628073
N2    N     N_R   0.787254 0.584008 0.758544 0.257090
O23   O     O_R   0.855533 0.609244 0.687527 -0.369597
O24   O     O_R   0.882999 0.525138 0.802413 -0.307621
F4    F     F_    0.090046 0.744881 0.130269 -0.660558
F5    F     F_    0.021916 0.253257 0.831612 -0.587571
N3    N     N_R   0.773080 0.792832 0.404027 0.259798
O25   O     O_R   0.907664 0.752670 0.446189 -0.364750
O26   O     O_R   0.700940 0.870052 0.431099 -0.305899
N4    N     N_R   0.517164 0.304992 0.703732 0.256679
O27   O     O_R   0.420636 0.339431 0.765398 -0.267276
O28   O     O_R   0.424803 0.278523 0.637949 -0.217745
F6    F     F_    0.034866 0.264604 0.678072 -0.545434
N5    N     N_R   0.122965 0.405159 0.246239 0.214679
O29   O     O_R   0.114439 0.460221 0.183505 -0.370300
O30   O     O_R   0.274886 0.407097 0.293047 -0.339371
F7    F     F_    0.414699 0.233652 0.364537 -0.609670
N6    N     N_R   0.660425 0.152684 0.434818 0.216873
O31   O     O_R   0.558275 0.092088 0.474154 -0.244565
O32   O     O_R   0.818453 0.183667 0.468086 -0.377068
N7    N     N_R   0.418982 0.110181 0.239610 0.271911
O33   O     O_R   0.279133 0.060377 0.268679 -0.366606
O34   O     O_R   0.395310 0.153433 0.170431 -0.366879

loop_
_geom_bond_atom_site_label_1
_geom_bond_atom_site_label_2
_geom_bond_distance
_ccdc_geom_bond_type
O15   V3    2.004868 S    
N5    O29   1.300588 A    
C5    F1    1.361996 S    
C25   C26   1.401684 A    
C7    C8    1.358140 D    
C1    O6    1.297401 A    
C21   C34   1.491803 S    
O11   C34   1.296918 A    
O14   V3    2.002444 S    
C28   C29   1.414539 A    
C13   C14   1.391961 A    
C16   H2    1.112015 S    
C15   C16   1.547357 S    
O5    C3    1.291556 A    
C23   C24   1.524546 S    
O14   C34   1.304514 A    
V2    O10   2.159468 S    
O13   V3    2.001789 S    
C12   N5    1.431240 S    
C2    C26   1.484410 S    
C10   C36   1.474030 S    
C19   C20   1.420078 A    
O8    V2    2.002659 S    
C31   H7    1.108681 S    
N4    O27   1.300541 A    
C20   N1    1.435515 S    
C6    F5    1.360538 S    
O19   V4    2.002455 S    
C8    F6    1.359445 S    
C11   H1    1.083125 S    
C28   F4    1.356737 S    
O1    V2    2.005696 S    
C24   N2    1.462426 S    
O7    V1    2.160090 S    
C31   H6    1.111380 S    
C9    C14   1.364035 A    
O9    C4    1.297891 A    
O17   V3    2.160136 S    
C7    N4    1.433393 S    
C25   C32   1.494427 S    
C19   H3    1.083271 S    
O12   C33   1.302590 A    
O15   C35   1.294405 A    
O18   V4    2.006187 S    
V4    O20   2.159488 S    
C30   C31   1.491110 S    
C4    C8    1.482320 S    
O16   V4    2.007278 S    
N3    O26   1.302399 A    
N6    O31   1.300542 A    
O4    C2    1.299719 A    
O12   V3    2.004671 S    
C12   C13   1.430250 A    
C9    C16   1.497467 S    
C33   O16   1.296498 A    
C3    C13   1.477217 S    
C20   C21   1.427950 A    
O2    C1    1.302906 A    
N2    O23   1.300181 A    
C22   C23   1.492530 S    
N6    O32   1.301742 A    
C27   C28   1.414054 A    
O17   V4    1.709270 S    
C17   C18   1.400425 A    
C32   H8    1.112414 S    
C5    C6    1.351949 D    
C25   C30   1.392701 A    
N7    O34   1.300870 A    
N2    O24   1.300547 A    
C1    C18   1.486369 S    
O3    C4    1.297723 A    
C31   C32   1.527518 S    
N4    O28   1.301092 A    
O6    V2    2.001943 S    
O9    V2    2.006230 S    
C27   H5    1.082512 S    
C26   C27   1.411628 A    
O2    V1    2.002464 S    
C24   H4    1.112776 S    
O13   C36   1.294016 A    
C23   F3    1.385583 S    
C29   C30   1.400067 A    
C21   C22   1.400332 A    
O1    C2    1.299378 A    
N3    O25   1.299967 A    
O5    V1    2.001818 S    
C15   F7    1.385520 S    
O8    C3    1.303149 A    
C32   N3    1.463982 S    
V3    O20   1.709922 S    
C18   C19   1.408905 A    
N5    O30   1.300497 A    
O7    V2    1.709748 S    
O4    V1    2.004719 S    
O3    V1    2.004865 S    
V1    O10   1.709977 S    
C6    C35   1.474715 S    
C16   N7    1.462098 S    
C5    C7    1.487553 S    
C17   C24   1.501152 S    
C15   N6    1.463468 S    
C11   C12   1.424521 A    
N7    O33   1.300490 A    
O11   V4    2.002187 S    
N1    O21   1.301349 A    
O18   C35   1.298146 A    
C17   C22   1.394198 A    
O19   C36   1.300186 A    
C29   C33   1.485269 S    
C14   C15   1.495925 S    
C10   C11   1.413050 A    
N1    O22   1.301026 A    
C9    C10   1.392611 A    
C23   F2    1.384779 S    
