data_mof_unit_13806.cif
_audit_creation_date              2012-12-11T16:14:46-0500
_audit_creation_method            fapswitch 2.2
_symmetry_space_group_name_H-M    P1
_symmetry_Int_Tables_number       1
_space_group_crystal_system       triclinic
_cell_length_a                    13.576055
_cell_length_b                    13.701126
_cell_length_c                    28.343311
_cell_angle_alpha                 90.034431
_cell_angle_beta                  90.294722
_cell_angle_gamma                 60.346264
_cell_volume                      4581.51396378

loop_
_atom_site_label
_atom_site_type_symbol
_atom_type_description
_atom_site_fract_x
_atom_site_fract_y
_atom_site_fract_z
_atom_type_partial_charge
C1    C     C_R   0.281210 0.619476 0.566939 0.537721
C2    C     C_1   0.648969 0.637997 0.608406 -0.031123
C3    C     C_3   0.698081 0.785935 0.751684 -0.120650
C4    C     C_3   0.686008 0.710156 0.789305 -0.066526
C5    C     C_3   0.777003 0.678413 0.722958 0.287274
C6    C     C_3   0.675599 0.684582 0.696346 0.008184
C7    C     C_3   0.765116 0.604647 0.760795 0.355504
C8    C     C_3   0.662442 0.612707 0.734721 0.215618
C9    C     C_1   0.694413 0.715224 0.840496 -0.044580
C10   C     C_1   0.665468 0.662170 0.647053 -0.035700
C11   C     C_1   0.637822 0.220291 0.609448 -0.017058
C12   C     C_R   0.623560 0.601133 0.565642 0.541444
C13   C     C_R   0.757462 0.171089 0.722884 -0.146310
C14   C     C_R   0.765620 0.160033 0.771877 0.264743
C15   C     C_R   0.616908 0.109791 0.770860 -0.155310
C16   C     C_R   0.607101 0.123791 0.721788 0.279211
C17   C     C_R   0.679596 0.152201 0.697738 -0.028948
C18   C     C_R   0.693405 0.130778 0.796098 -0.019841
C19   C     C_1   0.699460 0.117414 0.846478 -0.049671
C20   C     C_1   0.660471 0.183135 0.648829 -0.043265
C21   C     C_1   0.707805 0.096203 0.887957 -0.031158
C22   C     C_1   0.237114 0.632948 0.613869 -0.022706
C23   C     C_R   0.601320 0.277877 0.565398 0.541368
C24   C     C_R   0.163907 0.578836 0.728343 -0.155885
C25   C     C_R   0.155037 0.579162 0.777550 0.250456
C26   C     C_R   0.229066 0.709561 0.781928 0.229584
C27   C     C_R   0.226184 0.716548 0.732372 0.277283
C28   C     C_R   0.197326 0.648038 0.705637 -0.071616
C29   C     C_R   0.184875 0.648084 0.804508 -0.014859
C30   C     C_1   0.153264 0.670533 0.853377 -0.030187
C31   C     C_1   0.213512 0.640674 0.655194 -0.047772
C32   C     C_1   0.115856 0.694336 0.892727 -0.035989
C33   C     C_1   0.632239 0.625750 0.386165 -0.000641
C34   C     C_R   0.275949 0.621459 0.434840 0.537691
C35   C     C_R   0.701745 0.552133 0.266830 -0.163117
C36   C     C_R   0.705368 0.560855 0.217810 -0.127594
C37   C     C_R   0.586564 0.762520 0.223475 -0.097112
C38   C     C_R   0.577889 0.754085 0.272330 0.287569
C39   C     C_R   0.640372 0.648956 0.294222 0.048461
C40   C     C_R   0.648862 0.666553 0.196245 -0.002890
C41   C     C_1   0.666754 0.679813 0.147499 -0.062506
C42   C     C_1   0.637756 0.638946 0.344547 -0.011246
C43   C     C_1   0.688234 0.695600 0.108157 -0.026107
C44   C     C_1   0.634566 0.226332 0.388751 -0.025035
C45   C     C_R   0.619666 0.599056 0.433608 0.541010
C46   C     C_R   0.575080 0.171934 0.274336 0.307637
C47   C     C_R   0.574894 0.169973 0.224805 0.300528
C48   C     C_R   0.749204 0.179727 0.224655 -0.145646
C49   C     C_R   0.747965 0.184131 0.273703 -0.152782
C50   C     C_R   0.662604 0.177963 0.298592 0.014346
C51   C     C_R   0.663550 0.172388 0.200197 0.012550
C52   C     C_1   0.677275 0.147980 0.150827 -0.022867
C53   C     C_1   0.653346 0.197257 0.348368 -0.035510
C54   C     C_1   0.692765 0.113343 0.111157 -0.013841
C55   C     C_1   0.214349 0.643116 0.391943 -0.039862
C56   C     C_R   0.600365 0.277645 0.433769 0.538955
C57   C     C_R   0.082421 0.768631 0.282923 0.293215
C58   C     C_R   0.080229 0.775604 0.233532 0.247427
C59   C     C_R   0.181168 0.570442 0.228852 0.231873
C60   C     C_R   0.193524 0.565436 0.277646 -0.158947
C61   C     C_R   0.143842 0.663260 0.304616 -0.043194
C62   C     C_R   0.128940 0.675850 0.206590 -0.017749
C63   C     C_1   0.116773 0.682871 0.156481 -0.004166
C64   C     C_1   0.174769 0.654900 0.353176 -0.038275
C65   C     C_1   0.095738 0.697376 0.115258 -0.000944
C66   C     C_R   0.720685 0.054354 0.935002 0.540324
C67   C     C_3   0.595633 0.790282 0.724849 0.211507
C68   C     C_R   0.732759 0.720766 0.930986 0.536658
C69   C     C_R   0.057963 0.729680 0.936821 0.539241
C70   C     C_R   0.714244 0.056719 0.067121 0.545358
C71   C     C_R   0.725320 0.716614 0.064297 0.544814
C72   C     C_R   0.052609 0.728431 0.068844 0.544681
C73   C     C_3   0.581409 0.718313 0.763610 -0.186591
C74   C     C_1   0.707545 0.715748 0.882417 -0.019616
Cr1   Cr    Cr6+3 0.413560 0.417690 0.499580 1.009785
Cr2   Cr    Cr6+3 0.418030 0.668340 0.500400 1.009207
Cr3   Cr    Cr6+3 0.668390 0.413960 0.499990 1.025295
Cr4   Cr    Cr6+3 0.919710 0.916540 0.003080 1.000324
Cr5   Cr    Cr6+3 0.665300 0.919470 0.999630 1.015267
Cr6   Cr    Cr6+3 0.916060 0.665490 0.000390 1.011681
H1    H     H_    0.242663 0.485085 0.294480 0.118340
H2    H     H_    0.708222 0.859908 0.759359 0.124456
O1    O     O_R   0.503010 0.303330 0.550820 -0.509270
O2    O     O_R   0.522480 0.657560 0.452870 -0.491616
O3    O     O_R   0.693670 0.502790 0.448900 -0.512542
O4    O     O_R   0.656970 0.319650 0.452000 -0.499067
O5    O     O_3   0.499990 0.499990 0.499990 -0.247808
O6    O     O_R   0.035380 0.825870 0.952240 -0.530220
O7    O     O_R   0.818010 0.012400 0.954990 -0.508166
O8    O     O_R   0.644810 0.033340 0.949080 -0.508259
O9    O     O_R   0.674910 0.816000 0.950960 -0.493287
O10   O     O_R   0.827060 0.642880 0.947470 -0.520686
O11   O     O_R   0.013800 0.673690 0.954100 -0.495717
O12   O     O_R   0.320040 0.522690 0.547470 -0.494003
O13   O     O_R   0.031250 0.825430 0.055080 -0.507923
O14   O     O_R   0.814180 0.011990 0.050320 -0.494546
O15   O     O_R   0.640680 0.032900 0.051920 -0.516742
O16   O     O_R   0.671090 0.815590 0.046300 -0.503886
O17   O     O_R   0.822940 0.642440 0.050310 -0.507633
O18   O     O_R   0.009970 0.673280 0.049430 -0.497248
O19   O     O_3   0.833690 0.833830 0.001040 -0.244080
O20   O     O_R   0.303930 0.694040 0.551750 -0.516304
O21   O     O_R   0.523510 0.657900 0.548240 -0.510131
O22   O     O_R   0.694770 0.503160 0.551780 -0.495656
O23   O     O_R   0.657990 0.319990 0.547370 -0.495063
O24   O     O_R   0.501900 0.302960 0.447930 -0.520638
O25   O     O_R   0.319020 0.522350 0.452090 -0.505109
O26   O     O_R   0.302820 0.693680 0.448870 -0.512770
H3    H     H_    0.503121 0.731500 0.780858 0.146541
O27   O     O_3   0.526983 0.109373 0.697220 -0.535964
C75   C     C_3   0.418129 0.205384 0.702338 0.012173
H4    H     H_    0.382243 0.233889 0.666425 0.148227
H5    H     H_    0.418118 0.279134 0.719123 0.101156
C76   C     C_3   0.341261 0.174003 0.730204 -0.282383
H6    H     H_    0.354072 0.091787 0.718273 0.223022
H7    H     H_    0.364025 0.166403 0.768159 0.147341
C77   C     C_3   0.216056 0.259939 0.723850 -0.475086
H8    H     H_    0.199216 0.344112 0.735011 0.194645
H9    H     H_    0.164140 0.235471 0.745765 0.160849
H10   H     H_    0.190447 0.263541 0.686325 0.151727
H11   H     H_    0.141561 0.526313 0.707501 0.163966
O28   O     O_3   0.107878 0.517988 0.796579 -0.532185
C78   C     C_3   0.171213 0.444202 0.834158 0.016948
H12   H     H_    0.145200 0.379152 0.835558 0.153661
H13   H     H_    0.145488 0.487935 0.868552 0.142559
C79   C     C_3   0.301307 0.382910 0.828810 -0.303146
H14   H     H_    0.324762 0.351627 0.792324 0.157659
H15   H     H_    0.333682 0.441465 0.836286 0.157623
C80   C     C_3   0.359182 0.284437 0.863108 -0.477094
H16   H     H_    0.338232 0.314520 0.900051 0.155878
H17   H     H_    0.452392 0.243078 0.858623 0.159944
H18   H     H_    0.331723 0.221728 0.856169 0.139756
O29   O     O_3   0.296586 0.741248 0.806953 -0.577766
C81   C     C_3   0.234846 0.853965 0.821897 0.020489
H19   H     H_    0.216672 0.853217 0.859894 0.149443
H20   H     H_    0.153324 0.904327 0.802703 0.100445
C82   C     C_3   0.309541 0.907929 0.815533 -0.250661
H21   H     H_    0.388845 0.859880 0.836404 0.171926
H22   H     H_    0.331826 0.904044 0.777727 0.186023
C83   C     C_3   0.253088 0.030195 0.831165 -0.496188
H23   H     H_    0.170762 0.081114 0.812899 0.138254
H24   H     H_    0.308954 0.064987 0.822062 0.144702
H25   H     H_    0.241542 0.036589 0.869931 0.146154
O30   O     O_3   0.253047 0.789898 0.710036 -0.588944
C84   C     C_3   0.153017 0.895509 0.703883 -0.003828
H26   H     H_    0.166824 0.960500 0.721206 0.130022
H27   H     H_    0.074996 0.902048 0.720153 0.101703
C85   C     C_3   0.130260 0.923425 0.651306 -0.261263
H28   H     H_    0.208312 0.911937 0.634006 0.175358
H29   H     H_    0.105165 0.865961 0.634395 0.167417
C86   C     C_3   0.035402 0.043845 0.643475 -0.482478
H30   H     H_    0.955129 0.055070 0.658429 0.145168
H31   H     H_    0.022905 0.061963 0.605059 0.154119
H32   H     H_    0.057082 0.104095 0.660318 0.151667
H33   H     H_    0.747846 0.470223 0.283409 0.113659
H34   H     H_    0.755115 0.486013 0.197002 0.117791
H35   H     H_    0.547379 0.844349 0.207091 0.096749
O31   O     O_3   0.518929 0.849610 0.299272 -0.553805
C87   C     C_3   0.401258 0.896802 0.290925 -0.004723
H36   H     H_    0.368807 0.849001 0.311092 0.135490
H37   H     H_    0.379644 0.897709 0.252840 0.100661
C88   C     C_3   0.343487 0.017653 0.308090 -0.246347
H38   H     H_    0.363990 0.017476 0.346104 0.183236
H39   H     H_    0.377466 0.063604 0.287972 0.217233
C89   C     C_3   0.215342 0.078590 0.301545 -0.520374
H40   H     H_    0.191509 0.062466 0.266095 0.138818
H41   H     H_    0.180889 0.170412 0.305528 0.145947
H42   H     H_    0.177221 0.051346 0.329200 0.138871
O32   O     O_3   0.495106 0.158430 0.299096 -0.569714
C90   C     C_3   0.404519 0.264182 0.312367 0.006766
H43   H     H_    0.338061 0.292791 0.284656 0.169448
H44   H     H_    0.430072 0.329627 0.317000 0.125261
C91   C     C_3   0.355805 0.251306 0.359064 -0.271902
H45   H     H_    0.317452 0.197533 0.354199 0.152159
H46   H     H_    0.424960 0.210853 0.385580 0.206628
C92   C     C_3   0.264327 0.363308 0.378060 -0.460081
H47   H     H_    0.298393 0.421457 0.380788 0.182010
H48   H     H_    0.238171 0.351354 0.413665 0.158001
H49   H     H_    0.188935 0.399516 0.354434 0.132489
O33   O     O_3   0.509488 0.891702 0.705141 -0.546225
C93   C     C_3   0.430027 0.873929 0.679403 0.022938
H50   H     H_    0.344805 0.929427 0.694095 0.149551
H51   H     H_    0.443361 0.787186 0.682292 0.137064
C94   C     C_3   0.430873 0.901406 0.626903 -0.247951
H52   H     H_    0.518978 0.871152 0.614943 0.178126
H53   H     H_    0.395601 0.857194 0.605890 0.139375
C95   C     C_3   0.361243 0.026718 0.616371 -0.432206
H54   H     H_    0.274283 0.062837 0.630853 0.130468
H55   H     H_    0.354869 0.040276 0.577604 0.134565
H56   H     H_    0.403975 0.070375 0.631563 0.210230
O34   O     O_3   0.479935 0.183584 0.200776 -0.553438
C96   C     C_3   0.494459 0.078387 0.186897 0.015441
H57   H     H_    0.472683 0.040555 0.216821 0.159046
H58   H     H_    0.582777 0.018615 0.175472 0.132293
C97   C     C_3   0.413810 0.097602 0.145588 -0.257104
H59   H     H_    0.324843 0.152662 0.157024 0.161203
H60   H     H_    0.432096 0.140812 0.116583 0.194786
C98   C     C_3   0.426268 0.987838 0.126772 -0.480655
H61   H     H_    0.515160 0.930581 0.116120 0.180354
H62   H     H_    0.370498 0.005391 0.095446 0.147174
H63   H     H_    0.400977 0.946455 0.153979 0.129005
H64   H     H_    0.816747 0.182246 0.205656 0.117468
H65   H     H_    0.813021 0.193224 0.292117 0.116504
O35   O     O_3   0.017719 0.863459 0.309754 -0.522465
C99   C     C_3   0.082975 0.912812 0.324107 0.024799
H66   H     H_    0.058668 0.987878 0.301701 0.149616
H67   H     H_    0.176492 0.856268 0.320703 0.081375
C100  C     C_3   0.058364 0.948178 0.375968 -0.245666
H68   H     H_    0.070164 0.875795 0.397703 0.183804
H69   H     H_    0.119266 0.974016 0.389065 0.113166
C101  C     C_3   0.938141 0.045076 0.382867 -0.401747
H70   H     H_    0.926080 0.120507 0.363387 0.131311
H71   H     H_    0.923161 0.066228 0.420931 0.131986
H72   H     H_    0.875673 0.020860 0.370273 0.205746
O36   O     O_3   0.027242 0.880190 0.212107 -0.538620
C102  C     C_3   0.111402 0.905753 0.197332 0.011910
H73   H     H_    0.164229 0.847417 0.168967 0.138131
H74   H     H_    0.167961 0.899578 0.227223 0.096287
C103  C     C_3   0.054307 0.025481 0.177988 -0.248499
H75   H     H_    0.988146 0.036923 0.151790 0.190216
H76   H     H_    0.013575 0.085397 0.207484 0.146993
C104  C     C_3   0.139617 0.051097 0.154253 -0.494970
H77   H     H_    0.202306 0.047497 0.180481 0.140605
H78   H     H_    0.094588 0.136521 0.138606 0.142340
H79   H     H_    0.184563 0.990050 0.125533 0.154290
O37   O     O_3   0.227647 0.471728 0.203137 -0.544627
C105  C     C_3   0.141351 0.446942 0.190263 0.031772
H80   H     H_    0.162002 0.407842 0.154713 0.153395
H81   H     H_    0.055339 0.522757 0.187090 0.127382
C106  C     C_3   0.138173 0.362858 0.224981 -0.272791
H82   H     H_    0.219733 0.282499 0.223521 0.180616
H83   H     H_    0.126249 0.396334 0.261466 0.154776
C107  C     C_3   0.041429 0.340436 0.213141 -0.494450
H84   H     H_    0.958791 0.418328 0.217779 0.156891
H85   H     H_    0.044537 0.274791 0.237022 0.142621
H86   H     H_    0.048378 0.311283 0.176150 0.143122
O38   O     O_3   0.650790 0.517058 0.727120 -0.554898
C108  C     C_3   0.540354 0.549159 0.710569 0.018459
H87   H     H_    0.534693 0.565829 0.672043 0.130783
H88   H     H_    0.472882 0.624715 0.728368 0.168656
C109  C     C_3   0.515259 0.453994 0.719199 -0.242532
H89   H     H_    0.430593 0.476960 0.704477 0.118646
H90   H     H_    0.578874 0.378696 0.700367 0.179626
C110  C     C_3   0.517824 0.428225 0.771734 -0.398047
H91   H     H_    0.602527 0.402609 0.787176 0.210258
H92   H     H_    0.499816 0.358394 0.776607 0.116792
H93   H     H_    0.452864 0.503134 0.790780 0.164548
O39   O     O_3   0.859188 0.505753 0.778280 -0.513348
C111  C     C_3   0.825062 0.454467 0.812981 0.039349
H94   H     H_    0.843240 0.371352 0.799532 0.213271
H95   H     H_    0.732604 0.501216 0.821181 0.134466
C112  C     C_3   0.894226 0.437104 0.858189 -0.262072
H96   H     H_    0.978892 0.361242 0.854295 0.132760
H97   H     H_    0.908022 0.509669 0.863917 0.212607
C113  C     C_3   0.834870 0.423955 0.901421 -0.465198
H98   H     H_    0.756702 0.503847 0.909304 0.161636
H99   H     H_    0.892395 0.399264 0.932507 0.156486
H100  H     H_    0.809463 0.359885 0.895257 0.138320
O40   O     O_3   0.881408 0.647365 0.700765 -0.530986
C114  C     C_3   0.889326 0.742741 0.687468 0.006662
H101  H     H_    0.977341 0.711844 0.675623 0.164350
H102  H     H_    0.876370 0.798948 0.717947 0.119924
C115  C     C_3   0.810845 0.807266 0.645906 -0.281469
H103  H     H_    0.817758 0.747199 0.618012 0.178109
H104  H     H_    0.721553 0.854437 0.657948 0.197847
C116  C     C_3   0.842482 0.890560 0.624920 -0.470179
H105  H     H_    0.843043 0.947210 0.652783 0.155106
H106  H     H_    0.779809 0.941855 0.597300 0.162344
H107  H     H_    0.927833 0.845088 0.608658 0.142608
H108  H     H_    0.807818 0.200674 0.704742 0.147992
O41   O     O_3   0.832862 0.193832 0.795476 -0.589414
C117  C     C_3   0.926202 0.101725 0.817423 0.001397
H109  H     H_    0.003222 0.083609 0.797444 0.122540
H110  H     H_    0.921189 0.022736 0.817733 0.117783
C118  C     C_3   0.936427 0.136001 0.867860 -0.269863
H111  H     H_    0.972002 0.193408 0.867032 0.149101
H112  H     H_    0.850784 0.181392 0.883610 0.182351
C119  C     C_3   0.009895 0.036740 0.899723 -0.444168
H113  H     H_    0.997934 0.964451 0.891139 0.184435
H114  H     H_    0.986874 0.060705 0.937161 0.166040
H115  H     H_    0.099766 0.012496 0.895946 0.121727
H116  H     H_    0.562897 0.085236 0.789345 0.131190

loop_
_geom_bond_atom_site_label_1
_geom_bond_atom_site_label_2
_ccdc_geom_bond_type
C58   C62   A    
C15   C18   A    
C59   C60   A    
C113  H99   S    
Cr1   O25   S    
C89   H40   S    
C97   H60   S    
C21   C66   S    
C115  C116  S    
C33   C45   S    
O32   C90   S    
C14   C18   A    
Cr5   O16   S    
C45   O3    A    
C35   C36   A    
C85   C86   S    
C2    C12   S    
Cr2   O2    S    
C81   C82   S    
C63   C65   T    
C76   H6    S    
C16   O27   S    
C7    C8    S    
C66   O8    A    
C91   H45   S    
C94   H52   S    
C82   H22   S    
C108  C109  S    
C111  H94   S    
C79   H14   S    
C23   O1    A    
C78   H12   S    
C33   C42   T    
C118  H112  S    
C83   H24   S    
C12   O22   A    
C37   C40   A    
C69   O11   A    
C67   O33   S    
C77   H9    S    
C87   H36   S    
C5    C6    S    
C94   H53   S    
C78   H13   S    
C90   H43   S    
C68   C74   S    
O41   C117  S    
C23   O23   A    
C48   H64   S    
C5    O40   S    
C68   O9    A    
C110  H91   S    
C106  C107  S    
C18   C19   S    
C86   H32   S    
C37   H35   S    
C59   O37   S    
C117  C118  S    
O27   C75   S    
C24   H11   S    
Cr5   O8    S    
Cr1   O12   S    
C68   O10   A    
Cr4   O6    S    
C72   O13   A    
C56   O4    A    
C44   C53   T    
Cr6   O11   S    
C48   C51   A    
C62   C63   S    
C118  H111  S    
Cr4   O14   S    
C16   C17   A    
C95   H56   S    
C119  H115  S    
Cr2   O26   S    
C79   H15   S    
C86   H30   S    
C102  C103  S    
C98   H61   S    
C67   C73   S    
C92   H49   S    
C13   C14   A    
C39   C42   S    
C29   C30   S    
C25   O28   S    
Cr5   O9    S    
C70   O15   A    
O40   C114  S    
C80   H18   S    
C58   O36   S    
Cr2   O21   S    
C92   H48   S    
C113  H100  S    
Cr3   O3    S    
C1    C22   S    
C89   H41   S    
C8    O38   S    
O38   C108  S    
Cr6   O18   S    
Cr4   O19   S    
C25   C29   A    
C41   C43   T    
C104  H77   S    
C98   H63   S    
C4    C7    S    
O39   C111  S    
C8    C73   S    
C84   H27   S    
C52   C54   T    
C84   H26   S    
C66   O7    A    
C88   H39   S    
C99   H67   S    
Cr4   O7    S    
Cr2   O20   S    
C38   C39   A    
C71   O16   A    
C108  H88   S    
C11   C20   T    
C111  H95   S    
C50   C53   S    
C95   H55   S    
C22   C31   T    
C51   C52   S    
C96   C97   S    
C115  H103  S    
C118  C119  S    
C24   C25   A    
C38   O31   S    
C12   O21   A    
C114  H102  S    
C108  H87   S    
C93   H51   S    
C100  H68   S    
C103  H75   S    
C5    C7    S    
C14   O41   S    
C1    O12   A    
C78   C79   S    
C6    C8    S    
C79   C80   S    
C104  H78   S    
C93   H50   S    
C71   O17   A    
C7    O39   S    
C116  H107  S    
C15   C16   A    
O34   C96   S    
C60   C61   A    
C109  H90   S    
C96   H58   S    
Cr6   O10   S    
C61   C64   S    
C70   O14   A    
O36   C102  S    
C101  H70   S    
C81   H20   S    
C37   C38   A    
C35   C39   A    
C103  H76   S    
C88   C89   S    
C60   H1    S    
C44   C56   S    
C76   H7    S    
C105  H80   S    
C54   C70   S    
C36   C40   A    
Cr4   O13   S    
C102  H73   S    
C55   C64   T    
C101  H72   S    
C3    H2    S    
C87   H37   S    
C27   O30   S    
C26   C27   A    
C87   C88   S    
C75   H5    S    
C83   H23   S    
C83   H25   S    
C106  H83   S    
C107  H85   S    
Cr2   O5    S    
C56   O24   A    
C4    C73   S    
C32   C69   S    
C91   H46   S    
C116  H106  S    
C26   C29   A    
C112  C113  S    
C85   H29   S    
C117  H110  S    
C92   H47   S    
C101  H71   S    
Cr3   O4    S    
C49   C50   A    
C89   H42   S    
Cr6   O17   S    
O31   C87   S    
C119  H114  S    
C77   H10   S    
C45   O2    A    
C9    C74   T    
C34   O25   A    
C113  H98   S    
C2    C10   T    
C84   C85   S    
O33   C93   S    
C36   H34   S    
C112  H97   S    
C88   H38   S    
C72   O18   A    
C99   C100  S    
Cr1   O5    S    
C73   H3    S    
C115  H104  S    
C99   H66   S    
C46   C47   A    
C40   C41   S    
C59   C62   A    
C43   C71   S    
C93   C94   S    
C75   H4    S    
C105  H81   S    
C13   H108  S    
C17   C20   S    
Cr5   O15   S    
C28   C31   S    
C3    C67   S    
C24   C28   A    
C35   H33   S    
C114  H101  S    
C3    C5    S    
C102  H74   S    
C6    C10   S    
C47   C51   A    
C110  H93   S    
C57   C61   A    
C81   H19   S    
C65   C72   S    
C82   H21   S    
C46   C50   A    
C104  H79   S    
C46   O32   S    
C13   C17   A    
Cr6   O19   S    
O30   C84   S    
C109  C110  S    
C94   C95   S    
C96   H57   S    
C97   C98   S    
C114  C115  S    
Cr3   O23   S    
C80   H16   S    
C34   O26   A    
C95   H54   S    
C26   O29   S    
C6    C67   S    
C77   H8    S    
C103  C104  S    
C30   C32   T    
C109  H89   S    
Cr1   O1    S    
C57   C58   A    
O29   C81   S    
C90   H44   S    
C100  C101  S    
C48   C49   A    
C82   C83   S    
C57   O35   S    
C11   C23   S    
C49   H65   S    
C91   C92   S    
C110  H92   S    
C75   C76   S    
C85   H28   S    
C86   H31   S    
C47   O34   S    
C106  H82   S    
C107  H86   S    
C111  C112  S    
C76   C77   S    
C116  H105  S    
C97   H59   S    
C34   C55   S    
C105  C106  S    
O35   C99   S    
Cr3   O5    S    
Cr1   O24   S    
C100  H69   S    
O37   C105  S    
C27   C28   A    
O28   C78   S    
C119  H113  S    
Cr5   O19   S    
C15   H116  S    
C98   H62   S    
Cr3   O22   S    
C80   H17   S    
C4    C9    S    
C117  H109  S    
C1    O20   A    
C90   C91   S    
C3    C4    S    
C107  H84   S    
C112  H96   S    
C19   C21   T    
C69   O6    A    
