data_mof_unit_10883.cif
_audit_creation_date              2013-03-05T15:40:04-0500
_audit_creation_method            fapswitch 2.2
_symmetry_space_group_name_H-M    P1
_symmetry_Int_Tables_number       1
_space_group_crystal_system       triclinic
_cell_length_a                    7.830527
_cell_length_b                    8.590145
_cell_length_c                    10.621175
_cell_angle_alpha                 91.959818
_cell_angle_beta                  84.183537
_cell_angle_gamma                 93.363916
_cell_volume                      709.247193738

loop_
_atom_site_label
_atom_site_type_symbol
_atom_site_description
_atom_site_fract_x
_atom_site_fract_y
_atom_site_fract_z
_atom_type_partial_charge
O1    O     O_R   0.389250 0.738570 0.508180 -0.537821
O2    O     O_R   0.678390 0.711630 0.486820 -0.597601
C1    C     C_R   0.544928 0.794438 0.495659 0.970211
O3    O     O_R   0.355470 0.513470 0.691600 -0.562112
O4    O     O_R   0.644610 0.486520 0.670240 -0.628285
C2    C     C_R   0.496654 0.485575 0.737149 0.818617
Zn1   Zn    Zn3+2 0.306940 0.517990 0.514260 1.197958
Zn2   Zn    Zn3+2 0.693060 0.482010 0.485740 1.116638
O5    O     O_R   0.321610 0.288370 0.513180 -0.528338
O6    O     O_R   0.610750 0.261430 0.491820 -0.648281
O7    O     O_R   0.355390 0.513480 0.329760 -0.564124
O8    O     O_R   0.644530 0.486530 0.308400 -0.613619
C3    C     C_R   0.454668 0.205881 0.501086 0.810068
C4    C     C_R   0.501051 0.500907 0.262104 0.888893
C5    C     C_2   0.624867 0.423493 0.057162 -0.074991
C6    C     C_2   0.505712 0.501600 0.128314 -0.226351
H1    H     H_    0.725510 0.366320 0.098164 0.211204
H2    H     H_    0.409750 0.565892 0.088377 0.183047
C7    C     C_2   0.629573 0.425292 0.921122 -0.219636
C8    C     C_2   0.484426 0.432433 0.865081 0.118103
H3    H     H_    0.755663 0.442654 0.869459 0.232277
C9    C     C_2   0.567213 0.957827 0.494539 -0.493023
H4    H     H_    0.697632 0.008273 0.496721 0.212894
C10   C     C_2   0.429581 0.043423 0.495385 0.496218
N1    N     N_2   0.950320 0.457950 0.466680 0.210863
N2    N     N_2   0.049680 0.542050 0.533320 0.095238
N3    N     N_R   0.319591 0.374898 0.925001 0.212962
O9    O     O_R   0.179860 0.443933 0.909766 -0.328587
O10   O     O_R   0.308049 0.248319 0.990048 -0.329666
F1    F     F_    0.265829 0.983243 0.488173 -0.562958
F2    F     F_    0.028784 0.350271 0.391790 -0.508076
N4    N     N_R   0.973428 0.656893 0.610496 0.292872
O11   O     O_R   0.956794 0.638759 0.732166 -0.357325
O12   O     O_R   0.979754 0.798063 0.569362 -0.287268

loop_
_geom_bond_atom_site_label_1
_geom_bond_atom_site_label_2
_geom_bond_distance
_ccdc_geom_bond_type
N1    F2    1.335329 S    
O4    Zn2   1.957381 S    
C5    C7    1.442230 S    
N2    N4    1.384292 S    
C8    N3    1.447580 S    
N3    O10   1.301907 A    
C2    C8    1.440412 S    
C7    C8    1.340763 D    
Zn2   O8    1.961001 S    
N4    O11   1.299410 A    
O2    C1    1.292201 A    
Zn1   O7    1.957381 S    
Zn2   N1    2.026123 S    
Zn1   N2    2.026123 S    
O3    Zn1   1.961001 S    
C6    H2    1.085779 S    
C7    H3    1.084761 S    
O8    C4    1.285199 A    
C9    C10   1.338954 D    
O4    C2    1.296071 A    
O7    C4    1.293067 A    
C4    C6    1.417982 S    
C10   F1    1.362614 S    
C5    C6    1.337059 D    
Zn1   O5    1.982105 S    
Zn2   O6    1.966347 S    
O3    C2    1.288845 A    
N3    O9    1.301403 A    
C5    H1    1.086992 S    
O5    C3    1.287428 A    
C9    H4    1.087864 S    
C1    C9    1.404451 S    
N1    N2    1.280200 D    
O1    Zn1   1.966347 S    
O2    Zn2   1.982105 S    
C3    C10   1.397948 S    
O1    C1    1.279418 A    
O6    C3    1.281232 A    
N4    O12   1.299498 A    
