data_mof_unit_22479.cif
_audit_creation_date              2012-12-10T19:05:18-0500
_audit_creation_method            fapswitch 2.2
_symmetry_space_group_name_H-M    P1
_symmetry_Int_Tables_number       1
_space_group_crystal_system       triclinic
_cell_length_a                    9.57618
_cell_length_b                    10.812265
_cell_length_c                    17.30783
_cell_angle_alpha                 91.35527
_cell_angle_beta                  84.881276
_cell_angle_gamma                 90.124864
_cell_volume                      1784.41000336

loop_
_atom_site_label
_atom_site_type_symbol
_atom_type_description
_atom_site_fract_x
_atom_site_fract_y
_atom_site_fract_z
_atom_type_partial_charge
C1    C     C_R   0.499913 0.737366 0.501405 0.796515
C2    C     C_R   0.346056 0.460052 0.776639 -0.221396
C3    C     C_R   0.422131 0.438974 0.147743 -0.179946
C4    C     C_R   0.412688 0.453238 0.227628 -0.199761
C5    C     C_R   0.661402 0.497669 0.222161 -0.227133
C6    C     C_R   0.672637 0.484694 0.141013 0.119421
C7    C     C_R   0.550050 0.458025 0.103302 0.167021
C8    C     C_2   0.445012 0.490709 0.980882 -0.242340
C9    C     C_2   0.553375 0.451958 0.018041 -0.236333
C10   C     C_R   0.531516 0.484244 0.265366 -0.058602
C11   C     C_R   0.389431 0.933603 0.475444 0.116099
C12   C     C_R   0.480710 0.499642 0.649915 0.774634
C13   C     C_R   0.497986 0.870572 0.505720 -0.125267
C14   C     C_R   0.602364 0.937398 0.540569 -0.193469
C15   C     C_R   0.602643 0.066415 0.539123 -0.205433
C16   C     C_R   0.498941 0.128790 0.502546 -0.088240
C17   C     C_R   0.389968 0.061237 0.473343 0.082452
C18   C     C_3   0.345386 0.058641 0.392479 -0.519965
C19   C     C_3   0.342652 0.918938 0.395898 0.003317
C20   C     C_R   0.935647 0.438616 0.442887 0.252013
C21   C     C_R   0.915070 0.572876 0.550069 -0.055804
C22   C     C_R   0.063119 0.573720 0.551524 0.197671
C23   C     C_R   0.500040 0.262313 0.499347 0.802507
C24   C     C_R   0.082569 0.438973 0.442731 0.254460
C25   C     C_3   0.090797 0.304649 0.422746 -0.517829
C26   C     C_3   0.932342 0.304091 0.422849 -0.479695
C27   C     C_R   0.519461 0.496838 0.350019 0.803428
C28   C     C_R   0.469686 0.498950 0.734567 -0.021801
C29   C     C_R   0.585260 0.535724 0.773927 -0.203524
C30   C     C_R   0.577556 0.533487 0.854241 -0.153388
C31   C     C_R   0.454078 0.494256 0.896251 0.193263
C32   C     C_R   0.337552 0.459751 0.857369 -0.161109
Cu1   Cu    Cu3+1 0.359330 0.500020 0.500000 0.950368
Cu2   Cu    Cu3+1 0.640670 0.499980 0.500000 0.944512
H1    H     H_    0.681558 0.566710 0.742695 0.152093
H2    H     H_    0.684997 0.890130 0.566993 0.158418
H3    H     H_    0.685078 0.117021 0.565040 0.156749
H4    H     H_    0.240046 0.098006 0.388888 0.223632
H5    H     H_    0.427591 0.094447 0.349216 0.179934
H6    H     H_    0.422448 0.873063 0.354180 0.140473
H7    H     H_    0.849539 0.630513 0.590078 0.151579
H8    H     H_    0.145616 0.287829 0.364120 0.190252
H9    H     H_    0.311984 0.438598 0.259866 0.158428
H10   H     H_    0.128209 0.249687 0.470274 0.226300
H11   H     H_    0.895832 0.286021 0.364448 0.196979
H12   H     H_    0.879837 0.248207 0.470092 0.221046
H13   H     H_    0.753879 0.519699 0.251603 0.155943
H14   H     H_    0.648480 0.420963 0.984529 0.156258
H15   H     H_    0.241512 0.429824 0.889406 0.124965
H16   H     H_    0.328403 0.412269 0.120914 0.134892
H17   H     H_    0.256956 0.428510 0.747184 0.146990
H18   H     H_    0.347686 0.521308 0.012441 0.151727
H19   H     H_    0.667495 0.563795 0.883429 0.127172
N1    N     N_R   0.852130 0.499070 0.499500 -0.207801
N2    N     N_R   0.148040 0.499110 0.499500 -0.200438
O1    O     O_R   0.381190 0.680360 0.500000 -0.580408
O2    O     O_R   0.618770 0.680320 0.499990 -0.576200
O3    O     O_R   0.367430 0.500040 0.613600 -0.601141
O4    O     O_R   0.605020 0.500000 0.613590 -0.589714
O5    O     O_R   0.381230 0.319680 0.500010 -0.579055
O6    O     O_R   0.618810 0.319640 0.500000 -0.586766
O7    O     O_R   0.394980 0.500000 0.386410 -0.572074
O8    O     O_R   0.632570 0.499960 0.386400 -0.580795
C33   C     C_3   0.815565 0.500516 0.097070 -0.435025
C34   C     C_3   0.828833 0.626032 0.057498 -0.325826
C35   C     C_3   0.970605 0.638402 0.010457 -0.861394
H20   H     H_    0.057174 0.630540 0.048726 0.256249
H21   H     H_    0.982773 0.565323 0.964135 0.245962
H22   H     H_    0.977635 0.730115 0.982826 0.245773
H23   H     H_    0.744862 0.637444 0.018006 0.220905
H24   H     H_    0.817888 0.701503 0.102378 0.227581
H25   H     H_    0.899277 0.494357 0.137461 0.196618
H26   H     H_    0.835894 0.423355 0.054089 0.188056
I1    I     I_    0.135996 0.841498 0.398368 -0.419084
C36   C     C_3   0.117130 0.663640 0.610761 -0.347892
C37   C     C_3   0.068441 0.630689 0.695396 -0.394504
C38   C     C_3   0.966380 0.725646 0.735402 -0.864233
H27   H     H_    0.017067 0.818047 0.737279 0.259115
H28   H     H_    0.870049 0.732565 0.704733 0.241682
H29   H     H_    0.935929 0.697388 0.795869 0.244533
H30   H     H_    0.019894 0.537195 0.698606 0.218169
H31   H     H_    0.161182 0.629044 0.729455 0.227311
H32   H     H_    0.230710 0.671901 0.606612 0.234023
H33   H     H_    0.080785 0.757959 0.597745 0.195898

loop_
_geom_bond_atom_site_label_1
_geom_bond_atom_site_label_2
_ccdc_geom_bond_type
C10   C27   S    
Cu1   N2    S    
C35   H21   S    
Cu1   O3    S    
C18   H5    S    
C38   H27   S    
C24   N2    A    
C5    H13   S    
C11   C19   S    
C12   C28   S    
C28   C29   A    
C1    O1    A    
C3    C7    A    
C14   H2    S    
C21   N1    A    
C36   H33   S    
C35   H22   S    
C15   C16   A    
C2    C32   A    
C18   C19   S    
C6    C33   S    
C15   H3    S    
C26   H11   S    
C12   O4    A    
C20   C24   A    
C16   C17   A    
Cu2   O2    S    
C33   H26   S    
C8    H18   S    
C12   O3    A    
Cu1   O1    S    
C35   H20   S    
C13   C14   A    
C22   C36   S    
C25   H10   S    
C3    H16   S    
C17   C18   S    
C38   H28   S    
C23   O5    A    
C30   H19   S    
C24   C25   S    
C20   N1    A    
C2    H17   S    
C37   H31   S    
Cu1   O7    S    
C25   C26   S    
C34   H24   S    
Cu2   O6    S    
C37   H30   S    
C36   C37   S    
C29   C30   A    
C27   O7    A    
C1    O2    A    
C31   C32   A    
C30   C31   A    
Cu1   Cu2   S    
C8    C9    D    
C37   C38   S    
C6    C7    A    
C27   O8    A    
C21   H7    S    
Cu2   N1    S    
C16   C23   S    
Cu2   O4    S    
C1    C13   S    
C4    C10   A    
C3    C4    A    
C38   H29   S    
C7    C9    S    
C11   C17   A    
C8    C31   S    
C19   I1    S    
C25   H8    S    
C22   N2    A    
C4    H9    S    
Cu1   O5    S    
C29   H1    S    
C33   C34   S    
C18   H4    S    
C5    C10   A    
C11   C13   A    
C36   H32   S    
C5    C6    A    
C20   C26   S    
Cu2   O8    S    
C33   H25   S    
C32   H15   S    
C19   H6    S    
C26   H12   S    
C23   O6    A    
C9    H14   S    
C34   C35   S    
C14   C15   A    
C2    C28   A    
C21   C22   A    
C34   H23   S    
