data_mof_unit_66280.cif
_audit_creation_date              2013-03-05T16:36:56-0500
_audit_creation_method            fapswitch 2.2
_symmetry_space_group_name_H-M    P1
_symmetry_Int_Tables_number       1
_space_group_crystal_system       triclinic
_cell_length_a                    36.251704
_cell_length_b                    25.703635
_cell_length_c                    25.689735
_cell_angle_alpha                 89.999386
_cell_angle_beta                  90.002102
_cell_angle_gamma                 89.98321
_cell_volume                      23937.7086129

loop_
_atom_site_label
_atom_site_type_symbol
_atom_site_description
_atom_site_fract_x
_atom_site_fract_y
_atom_site_fract_z
_atom_type_partial_charge
Zn1   Zn    Zn3+2 0.719300 0.249980 0.438970 0.976448
Zn2   Zn    Zn3+2 0.280700 0.249980 0.438970 0.980538
Zn3   Zn    Zn3+2 0.280700 0.249980 0.561030 0.978502
Zn4   Zn    Zn3+2 0.719300 0.249980 0.561030 0.982427
Zn5   Zn    Zn3+2 0.219300 0.749980 0.938970 0.976688
Zn6   Zn    Zn3+2 0.780700 0.749980 0.938970 0.981757
Zn7   Zn    Zn3+2 0.780700 0.749980 0.061030 0.980805
Zn8   Zn    Zn3+2 0.219300 0.749980 0.061030 0.979429
Zn9   Zn    Zn3+2 0.780720 0.311020 0.500000 0.977068
Zn10  Zn    Zn3+2 0.219280 0.311020 0.500000 0.980081
Zn11  Zn    Zn3+2 0.280720 0.811020 0.000000 0.980659
Zn12  Zn    Zn3+2 0.719280 0.811020 0.000000 0.974537
Zn13  Zn    Zn3+2 0.780730 0.188950 0.500000 0.974878
Zn14  Zn    Zn3+2 0.219270 0.188950 0.500000 0.982144
Zn15  Zn    Zn3+2 0.280730 0.688950 0.000000 0.978579
Zn16  Zn    Zn3+2 0.719270 0.688950 0.000000 0.976984
O1    O     O_3   0.750020 0.249980 0.500000 -0.480236
O2    O     O_3   0.249980 0.249980 0.500000 -0.481915
O3    O     O_3   0.250020 0.749980 0.000000 -0.480570
O4    O     O_3   0.749980 0.749980 0.000000 -0.480481
O5    O     O_R   0.728520 0.310110 0.602800 -0.635483
O6    O     O_R   0.271480 0.310110 0.602800 -0.634354
O7    O     O_R   0.271480 0.310110 0.397200 -0.634486
O8    O     O_R   0.728520 0.310110 0.397200 -0.635825
O9    O     O_R   0.228520 0.810110 0.102800 -0.635694
O10   O     O_R   0.771480 0.810110 0.102800 -0.633466
O11   O     O_R   0.771480 0.810110 0.897200 -0.634362
O12   O     O_R   0.228520 0.810110 0.897200 -0.636390
O13   O     O_R   0.728520 0.189860 0.397190 -0.638561
O14   O     O_R   0.271480 0.189860 0.397190 -0.635444
O15   O     O_R   0.271480 0.189860 0.602810 -0.635403
O16   O     O_R   0.728520 0.189860 0.602810 -0.635200
O17   O     O_R   0.228520 0.689860 0.897190 -0.640364
O18   O     O_R   0.771480 0.689860 0.897190 -0.632762
O19   O     O_R   0.771480 0.689860 0.102810 -0.632385
O20   O     O_R   0.228520 0.689860 0.102810 -0.636240
O21   O     O_R   0.771490 0.352810 0.439870 -0.636992
O22   O     O_R   0.228510 0.352810 0.439870 -0.635103
O23   O     O_R   0.228510 0.352810 0.560130 -0.637566
O24   O     O_R   0.771490 0.352810 0.560130 -0.636128
O25   O     O_R   0.271490 0.852810 0.939870 -0.634046
O26   O     O_R   0.728510 0.852810 0.939870 -0.635929
O27   O     O_R   0.728510 0.852810 0.060130 -0.639186
O28   O     O_R   0.271490 0.852810 0.060130 -0.637270
O29   O     O_R   0.771530 0.147160 0.560090 -0.634364
O30   O     O_R   0.228470 0.147160 0.560090 -0.635231
O31   O     O_R   0.228470 0.147160 0.439910 -0.634266
O32   O     O_R   0.771530 0.147160 0.439910 -0.636675
O33   O     O_R   0.271530 0.647160 0.060090 -0.636346
O34   O     O_R   0.728470 0.647160 0.060090 -0.640042
O35   O     O_R   0.728470 0.647160 0.939910 -0.639611
O36   O     O_R   0.271530 0.647160 0.939910 -0.633193
O37   O     O_R   0.832000 0.292700 0.500000 -0.635248
O38   O     O_R   0.168000 0.292700 0.500000 -0.636968
O39   O     O_R   0.332000 0.792700 0.000000 -0.636322
O40   O     O_R   0.668000 0.792700 0.000000 -0.645122
O41   O     O_R   0.668030 0.249990 0.542720 -0.633449
O42   O     O_R   0.331970 0.249990 0.542720 -0.637132
O43   O     O_R   0.331970 0.249990 0.457280 -0.635964
O44   O     O_R   0.668030 0.249990 0.457280 -0.637634
O45   O     O_R   0.168030 0.749990 0.042720 -0.633965
O46   O     O_R   0.831970 0.749990 0.042720 -0.636566
O47   O     O_R   0.831970 0.749990 0.957280 -0.636175
O48   O     O_R   0.168030 0.749990 0.957280 -0.638401
O49   O     O_R   0.832010 0.207260 0.500000 -0.641171
O50   O     O_R   0.167990 0.207260 0.500000 -0.631038
O51   O     O_R   0.332010 0.707260 0.000000 -0.637510
O52   O     O_R   0.667990 0.707260 0.000000 -0.629579
C1    C     C_R   0.749994 0.349044 0.599062 0.825912
C2    C     C_R   0.250000 0.349047 0.599064 0.824942
C3    C     C_R   0.250003 0.349051 0.400938 0.827558
C4    C     C_R   0.749996 0.349043 0.400936 0.824964
C5    C     C_R   0.249999 0.849042 0.099066 0.825030
C6    C     C_R   0.749995 0.849042 0.099067 0.824580
C7    C     C_R   0.750000 0.849048 0.900935 0.828280
C8    C     C_R   0.249992 0.849047 0.900938 0.828375
C9    C     C_R   0.750021 0.150926 0.400969 0.825001
C10   C     C_R   0.249978 0.150932 0.400962 0.820538
C11   C     C_R   0.249977 0.150934 0.599039 0.819324
C12   C     C_R   0.750021 0.150923 0.599031 0.821799
C13   C     C_R   0.250024 0.650927 0.900967 0.824928
C14   C     C_R   0.749979 0.650934 0.900965 0.823276
C15   C     C_R   0.749980 0.650934 0.099036 0.821928
C16   C     C_R   0.250025 0.650927 0.099034 0.820743
C17   C     C_R   0.849501 0.249965 0.500003 0.820983
C18   C     C_R   0.150496 0.249989 0.499970 0.819505
C19   C     C_R   0.349538 0.749977 0.999901 0.823984
C20   C     C_R   0.650461 0.750020 0.999903 0.823415
C21   C     C_R   0.650325 0.249947 0.500000 0.826808
C22   C     C_R   0.349675 0.249947 0.500000 0.824202
C23   C     C_R   0.150325 0.749946 0.000001 0.825922
C24   C     C_R   0.849675 0.749947 0.000001 0.824080
C25   C     C_3   0.521429 0.221280 0.546397 -0.437429
C26   C     C_3   0.478801 0.225894 0.549215 -0.470315
C27   C     C_3   0.478582 0.222986 0.452551 -0.439334
C28   C     C_3   0.521208 0.227699 0.449903 -0.469876
C29   C     C_3   0.021429 0.719565 0.045257 -0.438622
C30   C     C_3   0.978802 0.724073 0.048246 -0.470438
C31   C     C_3   0.978581 0.724771 0.951541 -0.439124
C32   C     C_3   0.021208 0.729579 0.949070 -0.470107
H1    H     H_    0.466850 0.186086 0.551963 0.185412
H2    H     H_    0.529036 0.179664 0.540835 0.185153
H3    H     H_    0.533176 0.188017 0.445710 0.185518
H4    H     H_    0.470992 0.181195 0.456596 0.183924
H5    H     H_    0.966850 0.684190 0.049505 0.184790
H6    H     H_    0.029036 0.678186 0.038145 0.184285
H7    H     H_    0.033175 0.690082 0.943399 0.185160
H8    H     H_    0.970991 0.682859 0.954023 0.183770
H9    H     H_    0.529398 0.249039 0.414251 0.171331
H10   H     H_    0.465894 0.235818 0.415339 0.180879
H11   H     H_    0.470603 0.245925 0.585620 0.171625
H12   H     H_    0.534112 0.232751 0.584051 0.181992
H13   H     H_    0.029398 0.752235 0.914239 0.171102
H14   H     H_    0.965893 0.738982 0.914834 0.180893
H15   H     H_    0.970604 0.742732 0.085373 0.171583
H16   H     H_    0.034112 0.729624 0.083313 0.181335
C33   C     C_1   0.389319 0.250792 0.499998 -0.140466
C34   C     C_1   0.610681 0.250791 0.500009 -0.139098
C35   C     C_1   0.889319 0.750790 0.000006 -0.140344
C36   C     C_1   0.110681 0.750787 0.000017 -0.140063
C37   C     C_3   0.536583 0.254020 0.500128 0.300793
C38   C     C_3   0.463416 0.254023 0.499980 0.301929
C39   C     C_3   0.036582 0.754009 0.000243 0.301761
C40   C     C_3   0.963416 0.754018 0.000095 0.302216
C41   C     C_3   0.477752 0.312349 0.497486 0.185899
C42   C     C_3   0.522222 0.312217 0.504742 0.185347
C43   C     C_3   0.977753 0.812396 0.999780 0.185989
C44   C     C_3   0.022222 0.811993 0.007027 0.185924
C45   C     C_1   0.422614 0.251955 0.499990 -0.036903
C46   C     C_1   0.577385 0.251953 0.500047 -0.035675
C47   C     C_1   0.922614 0.751952 0.000031 -0.036999
C48   C     C_1   0.077385 0.751947 0.000088 -0.036504
C49   C     C_R   0.219703 0.494498 0.716550 -0.163669
C50   C     C_R   0.776742 0.500485 0.710522 -0.221854
C51   C     C_R   0.779275 0.496622 0.285621 -0.223057
C52   C     C_R   0.221166 0.497281 0.286237 -0.218560
C53   C     C_R   0.718023 0.990264 0.220794 -0.165858
C54   C     C_R   0.275490 0.002026 0.208971 -0.220624
C55   C     C_R   0.275590 0.001871 0.790871 -0.217571
C56   C     C_R   0.725990 0.003643 0.792608 -0.217953
H17   H     H_    0.196266 0.490596 0.690632 0.156910
H18   H     H_    0.797277 0.500838 0.679856 0.145158
H19   H     H_    0.801751 0.494013 0.313328 0.144547
H20   H     H_    0.198915 0.495093 0.314336 0.144937
H21   H     H_    0.693267 0.982971 0.198276 0.157265
H22   H     H_    0.294925 0.003726 0.176952 0.143938
H23   H     H_    0.295169 0.003403 0.822724 0.145414
H24   H     H_    0.707274 0.006160 0.825416 0.145143
C57   C     C_R   0.249952 0.461141 0.711440 0.087635
C58   C     C_R   0.750072 0.461188 0.711392 0.086939
C59   C     C_R   0.750091 0.461169 0.288592 0.087484
C60   C     C_R   0.250030 0.461284 0.288685 0.110745
C61   C     C_R   0.749950 0.961197 0.211362 0.064096
C62   C     C_R   0.250201 0.961055 0.211539 0.111351
C63   C     C_R   0.250115 0.961116 0.788517 0.111031
C64   C     C_R   0.750172 0.961434 0.788834 0.110765
C65   C     C_R   0.280185 0.466177 0.744880 -0.220527
C66   C     C_R   0.723472 0.460320 0.750780 -0.161753
C67   C     C_R   0.720972 0.464137 0.253038 -0.162247
C68   C     C_R   0.278895 0.463737 0.252685 -0.218360
C69   C     C_R   0.781876 0.970622 0.240430 -0.163335
C70   C     C_R   0.225024 0.958415 0.252672 -0.219919
C71   C     C_R   0.224747 0.958699 0.747602 -0.219982
C72   C     C_R   0.774460 0.957784 0.746724 -0.218498
H25   H     H_    0.303510 0.440123 0.740661 0.145289
H26   H     H_    0.702799 0.429862 0.751458 0.158739
H27   H     H_    0.698350 0.436658 0.255338 0.158074
H28   H     H_    0.301146 0.435641 0.254869 0.144652
H29   H     H_    0.806630 0.948101 0.233137 0.158786
H30   H     H_    0.205538 0.926483 0.254358 0.144255
H31   H     H_    0.205114 0.926936 0.746084 0.143955
H32   H     H_    0.793124 0.924931 0.744144 0.145059
C73   C     C_R   0.782155 0.009051 0.279021 0.086508
C74   C     C_R   0.224919 0.996739 0.291708 0.083505
C75   C     C_R   0.224643 0.997022 0.708565 0.083656
C76   C     C_R   0.774833 0.996392 0.707972 0.083867
C77   C     C_R   0.280405 0.504598 0.783850 0.102966
C78   C     C_R   0.723273 0.498610 0.789480 0.066853
C79   C     C_R   0.720746 0.502459 0.214371 0.066852
C80   C     C_R   0.279115 0.502159 0.213747 0.082817
C81   C     C_R   0.749958 0.038500 0.288646 0.066757
C82   C     C_R   0.250378 0.038132 0.288982 0.115912
C83   C     C_R   0.250301 0.038185 0.711065 0.115992
C84   C     C_R   0.750357 0.038886 0.711768 0.116088
C85   C     C_R   0.249896 0.538308 0.788825 0.091142
C86   C     C_R   0.750162 0.538370 0.788764 0.090467
C87   C     C_R   0.750165 0.538347 0.211214 0.090562
C88   C     C_R   0.250031 0.538545 0.211425 0.117395
C89   C     C_R   0.717753 0.028867 0.259215 0.087367
C90   C     C_R   0.275865 0.040771 0.247586 0.084106
C91   C     C_R   0.275972 0.040607 0.752249 0.083580
C92   C     C_R   0.725900 0.042691 0.754296 0.083545
C93   C     C_R   0.219422 0.533081 0.754956 0.068046
C94   C     C_R   0.777096 0.539252 0.749147 0.103927
C95   C     C_R   0.779634 0.535344 0.246950 0.104210
C96   C     C_R   0.220947 0.536219 0.247816 0.082848
C97   C     C_1   0.249969 0.421601 0.671773 -0.050077
C98   C     C_1   0.750020 0.421616 0.671756 -0.049489
C99   C     C_1   0.750037 0.421605 0.328235 -0.050597
C100  C     C_1   0.250027 0.421675 0.328293 -0.048122
C101  C     C_1   0.749961 0.921617 0.171746 -0.050551
C102  C     C_1   0.250105 0.921542 0.171835 -0.050078
C103  C     C_1   0.250041 0.921584 0.828203 -0.048027
C104  C     C_1   0.750095 0.921749 0.828366 -0.047445
C105  C     C_1   0.749974 0.078276 0.328382 -0.092987
C106  C     C_1   0.250200 0.078100 0.328535 -0.019569
C107  C     C_1   0.250149 0.078133 0.671494 -0.019918
C108  C     C_1   0.750190 0.078471 0.671834 -0.019090
C109  C     C_1   0.249951 0.578188 0.828461 -0.056514
C110  C     C_1   0.750086 0.578228 0.828423 -0.056458
C111  C     C_1   0.750098 0.578218 0.171569 -0.056730
C112  C     C_1   0.250029 0.578303 0.171665 -0.021468
C113  C     C_1   0.749996 0.111456 0.361531 -0.145886
C114  C     C_1   0.250080 0.111388 0.361585 -0.137449
C115  C     C_1   0.250056 0.111407 0.638431 -0.137821
C116  C     C_1   0.750093 0.111538 0.638565 -0.137718
C117  C     C_1   0.249986 0.611425 0.861555 -0.142110
C118  C     C_1   0.750030 0.611445 0.861539 -0.141207
C119  C     C_1   0.750038 0.611441 0.138458 -0.141560
C120  C     C_1   0.250027 0.611470 0.138495 -0.139013
C121  C     C_1   0.249987 0.388473 0.638564 -0.142680
C122  C     C_1   0.749996 0.388474 0.638560 -0.141958
C123  C     C_1   0.750006 0.388467 0.361434 -0.143440
C124  C     C_1   0.250019 0.388508 0.361465 -0.142662
C125  C     C_1   0.749979 0.888471 0.138558 -0.141284
C126  C     C_1   0.250041 0.888439 0.138599 -0.144855
C127  C     C_1   0.250004 0.888464 0.861423 -0.143264
C128  C     C_1   0.750046 0.888537 0.861494 -0.142714
C129  C     C_R   0.019163 0.295325 0.513123 0.350004
C130  C     C_R   0.980534 0.295684 0.510210 0.359040
C131  C     C_R   0.518938 0.800836 0.002648 0.371782
C132  C     C_R   0.480068 0.799176 0.999524 0.407695
C133  C     C_R   0.038561 0.249308 0.501539 -0.091426
C134  C     C_R   0.961424 0.249191 0.500330 -0.097325
C135  C     C_R   0.538634 0.753720 0.010332 -0.097775
C136  C     C_R   0.461480 0.751911 0.007857 -0.099552
C137  C     C_R   0.019541 0.203004 0.490518 0.064123
C138  C     C_R   0.980799 0.202733 0.490346 0.000289
C139  C     C_R   0.519731 0.707122 0.020594 0.064993
C140  C     C_R   0.481068 0.706277 0.020028 -0.005869
C141  C     C_1   0.078135 0.249746 0.500719 0.060329
C142  C     C_1   0.921852 0.249545 0.500233 0.020537
C143  C     C_1   0.578122 0.751885 0.005595 0.057932
C144  C     C_1   0.421926 0.750620 0.004099 0.033807
C145  C     C_1   0.888772 0.249851 0.500118 -0.152361
C146  C     C_1   0.111218 0.249961 0.500272 -0.145923
C147  C     C_1   0.388851 0.750053 0.001708 -0.157541
C148  C     C_1   0.611166 0.750406 0.002395 -0.160508
N1    N     N_3   0.533613 0.332674 0.556095 -0.447096
H33   H     H_    0.519257 0.315829 0.586908 0.169856
H34   H     H_    0.529369 0.372859 0.558022 0.179548
N2    N     N_3   0.458805 0.343665 0.537658 -0.453867
H35   H     H_    0.461187 0.328471 0.575068 0.166860
H36   H     H_    0.468858 0.381779 0.537687 0.172675
N3    N     N_3   0.466352 0.334658 0.446910 -0.448020
H37   H     H_    0.470580 0.374887 0.446446 0.178952
H38   H     H_    0.480715 0.318945 0.415505 0.169456
N4    N     N_3   0.541156 0.344972 0.465735 -0.453794
H39   H     H_    0.531087 0.383061 0.467092 0.172742
H40   H     H_    0.538779 0.331147 0.427797 0.166763
N5    N     N_3   0.033613 0.830520 0.059108 -0.447412
H41   H     H_    0.019258 0.812538 0.089271 0.169561
H42   H     H_    0.029370 0.870605 0.062534 0.179132
N6    N     N_3   0.958806 0.842192 0.041094 -0.453891
H43   H     H_    0.961188 0.825614 0.077910 0.167100
H44   H     H_    0.968859 0.880278 0.042545 0.172214
N7    N     N_3   0.966353 0.836576 0.950072 -0.448524
H45   H     H_    0.970580 0.876794 0.951111 0.178410
H46   H     H_    0.980715 0.822044 0.918103 0.169288
N8    N     N_3   0.041156 0.846180 0.969270 -0.454135
H47   H     H_    0.031088 0.884192 0.972048 0.172358
H48   H     H_    0.038780 0.833780 0.930842 0.166359
N9    N     N_3   0.684493 0.057786 0.267663 -0.461354
H49   H     H_    0.676457 0.052723 0.306420 0.192936
H50   H     H_    0.690215 0.097226 0.261842 0.196710
N10   N     N_3   0.301758 0.083038 0.244832 -0.445774
H51   H     H_    0.320356 0.078539 0.275614 0.182758
H52   H     H_    0.317237 0.080773 0.210559 0.181517
N11   N     N_3   0.302066 0.082644 0.754776 -0.445794
H53   H     H_    0.320513 0.077975 0.723841 0.184146
H54   H     H_    0.317679 0.080248 0.788919 0.182653
N12   N     N_3   0.700929 0.085993 0.758051 -0.445611
H55   H     H_    0.716723 0.119283 0.765114 0.185115
H56   H     H_    0.683448 0.081553 0.790122 0.182936
N13   N     N_3   0.187922 0.566539 0.758840 -0.460789
H57   H     H_    0.176875 0.562806 0.796249 0.190014
H58   H     H_    0.196761 0.604959 0.754053 0.196756
N14   N     N_3   0.804451 0.579726 0.748197 -0.442819
H59   H     H_    0.821809 0.574021 0.780198 0.184599
H60   H     H_    0.820984 0.576376 0.715010 0.179506
N15   N     N_3   0.809582 0.571876 0.243960 -0.442926
H61   H     H_    0.824180 0.563978 0.209760 0.183758
H62   H     H_    0.828012 0.566116 0.274740 0.179389
N16   N     N_3   0.191255 0.573224 0.245268 -0.450037
H63   H     H_    0.202022 0.609580 0.255369 0.188303
H64   H     H_    0.171087 0.564457 0.273013 0.181529
N17   N     N_3   0.815419 0.017497 0.307931 -0.459744
H65   H     H_    0.809699 0.011723 0.347401 0.198540
H66   H     H_    0.823465 0.056221 0.302822 0.192116
N18   N     N_3   0.198928 0.994154 0.333897 -0.445402
H67   H     H_    0.180857 0.962881 0.328691 0.181839
H68   H     H_    0.213812 0.986450 0.367897 0.184271
N19   N     N_3   0.198457 0.994667 0.666599 -0.446368
H69   H     H_    0.180263 0.963564 0.671969 0.181557
H70   H     H_    0.213156 0.986817 0.632474 0.184871
N20   N     N_3   0.799700 0.992539 0.664546 -0.445214
H71   H     H_    0.814448 0.957605 0.666106 0.182669
H72   H     H_    0.819067 0.022448 0.668225 0.184090
N21   N     N_3   0.311515 0.509869 0.818155 -0.444288
H73   H     H_    0.332450 0.483952 0.807566 0.179827
H74   H     H_    0.302864 0.498938 0.855407 0.188297
N22   N     N_3   0.695505 0.496378 0.829104 -0.458211
H75   H     H_    0.708622 0.493880 0.865267 0.193436
H76   H     H_    0.680451 0.531067 0.828065 0.196901
N23   N     N_3   0.690357 0.504232 0.178749 -0.459045
H77   H     H_    0.700689 0.500126 0.140973 0.194272
H78   H     H_    0.677904 0.540809 0.181685 0.195067
N24   N     N_3   0.308808 0.504713 0.176738 -0.449796
H79   H     H_    0.328976 0.476968 0.185504 0.181672
H80   H     H_    0.298042 0.494643 0.140351 0.188552
O53   O     O_3   0.961306 0.340974 0.520641 -0.633120
C149  C     C_3   0.957156 0.369081 0.473810 0.111367
H81   H     H_    0.942487 0.345273 0.443989 0.128503
H82   H     H_    0.984585 0.381033 0.458291 0.168982
C150  C     C_3   0.934380 0.417896 0.484637 -0.314850
H83   H     H_    0.907015 0.406462 0.500477 0.235894
H84   H     H_    0.948734 0.442142 0.514201 0.225430
C151  C     C_3   0.928713 0.449952 0.435282 -0.971973
H85   H     H_    0.955724 0.462537 0.419213 0.266405
H86   H     H_    0.912123 0.485081 0.444513 0.269830
H87   H     H_    0.913764 0.426744 0.405522 0.265796
O54   O     O_3   0.037761 0.341354 0.522974 -0.630690
C152  C     C_3   0.049886 0.342508 0.575380 0.104476
H88   H     H_    0.076032 0.365026 0.576430 0.169633
H89   H     H_    0.056403 0.303295 0.591690 0.112989
C153  C     C_3   0.021432 0.370000 0.609839 -0.314702
H90   H     H_    0.014336 0.408384 0.592584 0.240952
H91   H     H_    0.995946 0.346136 0.612051 0.242516
C154  C     C_3   0.036159 0.378181 0.664875 -0.983739
H92   H     H_    0.043023 0.340183 0.683071 0.267092
H93   H     H_    0.014826 0.397758 0.688930 0.271857
H94   H     H_    0.061214 0.403039 0.664059 0.268505
O55   O     O_3   0.460081 0.841334 0.980689 -0.605964
C155  C     C_3   0.457096 0.881397 0.018272 0.127412
H95   H     H_    0.444595 0.915528 0.998452 0.171541
H96   H     H_    0.484336 0.894831 0.032153 0.157916
C156  C     C_3   0.431942 0.866313 0.063998 -0.419488
H97   H     H_    0.404452 0.854630 0.048865 0.251937
H98   H     H_    0.444041 0.833019 0.085667 0.207841
C157  C     C_3   0.427060 0.911658 0.101693 -0.947168
H99   H     H_    0.454181 0.923592 0.117906 0.260859
H100  H     H_    0.408860 0.899613 0.134300 0.270487
H101  H     H_    0.414196 0.945327 0.081547 0.267405
O56   O     O_3   0.536321 0.847889 0.991968 -0.627787
C158  C     C_3   0.561363 0.864751 0.031327 0.085427
H102  H     H_    0.564110 0.907542 0.026678 0.171881
H103  H     H_    0.589355 0.849224 0.023804 0.167303
C159  C     C_3   0.549745 0.854304 0.088398 -0.453817
H104  H     H_    0.521680 0.869604 0.095959 0.218208
H105  H     H_    0.549716 0.811936 0.096699 0.221435
C160  C     C_3   0.576465 0.880110 0.126350 -0.912535
H106  H     H_    0.604839 0.864875 0.120408 0.265568
H107  H     H_    0.567847 0.871573 0.166940 0.265310
H108  H     H_    0.576485 0.922957 0.120706 0.261624
N25   N     N_3   0.039805 0.156326 0.479523 -0.431652
H109  H     H_    0.032150 0.128047 0.506709 0.204469
H110  H     H_    0.032172 0.143176 0.442546 0.204499
N26   N     N_3   0.961618 0.155092 0.479661 -0.458462
H111  H     H_    0.944642 0.146538 0.511427 0.200095
H112  H     H_    0.944889 0.160766 0.446994 0.195137
N27   N     N_3   0.540133 0.660304 0.030578 -0.431366
H113  H     H_    0.532698 0.632626 0.002658 0.208385
H114  H     H_    0.532458 0.646207 0.067187 0.201142
N28   N     N_3   0.462171 0.658309 0.030304 -0.457155
H115  H     H_    0.444443 0.664046 0.061892 0.194071
H116  H     H_    0.446253 0.648801 0.997726 0.204351

loop_
_geom_bond_atom_site_label_1
_geom_bond_atom_site_label_2
_geom_bond_distance
_ccdc_geom_bond_type
C149  H82   1.114596 S    
N3    H38   1.041660 S    
N15   H61   1.045543 S    
C86   C94   1.410600 A    
C10   C114  1.434051 S    
C103  C127  1.205416 T    
N19   H70   1.045549 S    
C152  H88   1.111053 S    
C101  C125  1.205311 T    
O26   C7    1.271506 A    
C43   N7    1.479028 S    
C24   C35   1.437318 S    
C25   C37   1.556633 S    
C6    C125  1.434020 S    
O30   C11   1.272172 A    
C149  C150  1.527361 S    
C26   H11   1.108149 S    
C60   C100  1.439391 S    
C159  C160  1.526140 S    
C41   N3    1.479028 S    
C133  C137  1.404502 A    
Zn12  O26   1.911064 S    
C73   N17   1.432807 S    
C106  C114  1.205389 T    
O11   C7    1.271542 A    
N26   H111  1.045552 S    
C52   C60   1.397978 A    
O34   C15   1.272189 A    
C61   C101  1.439021 S    
C160  H108  1.110833 S    
C142  C145  1.199226 T    
N23   H78   1.045567 S    
C42   N4    1.478012 S    
C22   C33   1.437318 S    
Zn14  O30   1.909911 S    
Zn1   O44   1.917240 S    
Zn2   O43   1.917207 S    
C112  C120  1.205339 T    
Zn5   O48   1.917240 S    
C61   C69   1.398552 A    
Zn6   O47   1.917207 S    
Zn7   O46   1.917240 S    
C129  C130  1.402415 A    
O16   C12   1.272071 A    
N19   H69   1.045698 S    
Zn16  O4    1.923859 S    
Zn12  O4    1.923325 S    
Zn1   O13   1.910874 S    
N20   H71   1.045692 S    
N12   H55   1.045547 S    
C53   C61   1.398577 A    
C44   N5    1.479028 S    
Zn3   O15   1.911014 S    
C135  C143  1.437444 S    
Zn4   O16   1.910842 S    
C56   C64   1.397985 A    
C40   C43   1.588166 S    
C26   C38   1.559916 S    
C27   C38   1.556636 S    
C87   C111  1.444855 S    
N8    H48   1.040944 S    
N18   H67   1.045699 S    
C75   C83   1.410427 A    
C152  C153  1.531869 S    
C76   C84   1.410419 A    
C89   N9    1.432797 S    
C44   N8    1.478009 S    
C153  H90   1.111715 S    
C129  O54   1.385215 S    
C19   C147  1.425951 S    
C137  N25   1.434713 S    
C28   H9    1.108146 S    
C144  C147  1.200688 T    
Zn10  O22   1.911064 S    
C109  C117  1.205284 T    
C66   C78   1.398968 A    
N13   H58   1.045569 S    
N25   H109  1.045588 S    
O25   C8    1.271629 A    
Zn13  O29   1.910041 S    
C88   C112  1.444885 S    
N16   H63   1.045553 S    
Zn10  O2    1.923325 S    
C74   N18   1.437712 S    
C130  C134  1.404611 A    
O29   C12   1.272055 A    
Zn15  O33   1.910041 S    
C157  H99   1.111004 S    
C25   H12   1.110904 S    
C78   C86   1.412621 A    
C50   C94   1.406308 A    
O53   C149  1.411323 S    
O37   C17   1.268330 A    
C82   C90   1.410444 A    
O48   C23   1.271409 A    
C59   C67   1.397960 A    
N2    H35   1.040942 S    
C39   C48   1.480114 S    
C83   C107  1.444918 S    
N4    H40   1.040941 S    
Zn16  O35   1.909952 S    
C37   C46   1.480114 S    
C71   C75   1.405715 A    
C74   C82   1.410413 A    
C31   H14   1.110902 S    
C29   C30   1.551526 S    
C80   N24   1.437721 S    
C30   C40   1.559913 S    
C31   H8    1.113781 S    
N1    H33   1.041659 S    
Zn7   O10   1.910937 S    
C28   C37   1.559917 S    
C42   N1    1.479030 S    
C77   N21   1.437692 S    
O33   C16   1.272041 A    
N15   H62   1.045692 S    
C97   C121  1.205364 T    
C134  C138  1.408765 A    
N5    H41   1.041658 S    
O40   C20   1.268127 A    
C130  O53   1.382886 S    
C132  C136  1.405836 A    
C2    C121  1.434115 S    
N22   H75   1.045569 S    
C150  H84   1.111825 S    
N28   H115  1.045575 S    
C68   C80   1.405705 A    
N24   H80   1.045551 S    
C16   C120  1.433960 S    
C31   C32   1.551556 S    
C67   H27   1.084079 S    
N6    H43   1.040943 S    
Zn5   O17   1.910874 S    
C35   C47   1.207375 T    
C33   C45   1.207376 T    
C69   H29   1.084066 S    
C68   H28   1.083943 S    
C13   C117  1.433885 S    
C90   N10   1.437702 S    
C137  C138  1.404511 A    
C17   C145  1.423646 S    
N17   H66   1.045561 S    
C150  H83   1.111875 S    
C153  C154  1.525867 S    
C63   C103  1.439417 S    
N21   H74   1.045549 S    
Zn8   O3    1.923145 S    
O54   C152  1.416514 S    
C65   H25   1.083933 S    
O38   C18   1.268196 A    
C63   C71   1.397986 A    
C75   N19   1.437718 S    
O5    C1    1.271699 A    
C82   C106  1.444967 S    
N14   H60   1.045690 S    
O32   C9    1.272013 A    
C20   C148  1.425982 S    
C15   C119  1.433902 S    
C55   C63   1.397994 A    
Zn15  O51   1.917773 S    
Zn11  O28   1.910970 S    
C131  O56   1.391274 S    
C159  H105  1.109690 S    
C134  C142  1.434599 S    
C158  H103  1.107311 S    
C143  C148  1.201321 T    
C93   N13   1.432821 S    
C72   H32   1.083944 S    
O8    C4    1.271701 A    
Zn9   O1    1.923857 S    
C3    C124  1.434178 S    
C62   C70   1.397980 A    
C78   N22   1.432824 S    
C155  H96   1.105331 S    
C151  H85   1.110887 S    
O50   C18   1.268076 A    
N7    H45   1.045438 S    
C111  C119  1.205294 T    
N12   H56   1.045699 S    
Zn13  O1    1.923327 S    
Zn2   O14   1.911019 S    
C38   C41   1.588168 S    
N4    H39   1.045351 S    
C29   C39   1.556633 S    
C156  C157  1.525613 S    
C54   C62   1.398000 A    
C30   H15   1.108147 S    
C54   H22   1.083961 S    
C56   C92   1.405701 A    
N9    H50   1.045564 S    
O9    C5    1.271747 A    
C129  C133  1.407694 A    
O36   C13   1.271992 A    
C105  C113  1.205222 T    
C154  H94   1.110878 S    
O13   C9    1.271995 A    
N10   H51   1.045549 S    
Zn1   O8    1.911077 S    
C49   C93   1.398972 A    
O56   C158  1.426368 S    
Zn2   O7    1.910905 S    
Zn3   O6    1.910937 S    
C131  C135  1.419472 A    
O18   C14   1.272206 A    
O31   C10   1.272229 A    
O6    C2    1.271515 A    
C31   C40   1.556638 S    
C96   N16   1.437715 S    
C139  C140  1.401842 A    
N26   H112  1.045565 S    
C9    C113  1.433792 S    
C102  C126  1.205406 T    
Zn15  O3    1.923327 S    
C160  H107  1.110471 S    
Zn11  O3    1.923857 S    
O41   C21   1.271351 A    
C53   H21   1.084093 S    
Zn16  O34   1.909911 S    
C52   C96   1.405691 A    
C55   C91   1.405712 A    
C5    C126  1.434191 S    
C138  N26   1.434860 S    
C79   C87   1.412613 A    
N27   H113  1.045630 S    
C77   C85   1.410591 A    
Zn8   O20   1.910842 S    
C80   C88   1.410423 A    
C81   C89   1.412829 A    
N20   H72   1.045542 S    
N11   H53   1.045541 S    
C84   C92   1.410414 A    
C71   H31   1.083945 S    
C38   C45   1.480116 S    
C149  H81   1.115491 S    
C73   C81   1.412772 A    
N23   H77   1.045569 S    
C8    C127  1.434205 S    
Zn8   O9    1.911082 S    
C151  H87   1.110944 S    
O15   C11   1.272234 A    
C62   C102  1.439413 S    
N18   H68   1.045556 S    
C152  H89   1.116733 S    
C141  C146  1.199410 T    
O7    C3    1.271533 A    
C153  H91   1.110589 S    
C156  H97   1.111103 S    
O19   C15   1.272176 A    
C157  H101  1.110859 S    
O44   C21   1.271398 A    
C4    C123  1.434109 S    
Zn9   O24   1.910970 S    
Zn6   O18   1.911019 S    
Zn10  O23   1.911061 S    
N13   H57   1.045565 S    
C34   C46   1.207377 T    
C50   H18   1.083936 S    
C69   C73   1.399526 A    
C154  H92   1.110933 S    
C70   H30   1.083946 S    
C155  C156  1.536903 S    
C107  C115  1.205360 T    
Zn15  O36   1.910042 S    
C29   H16   1.110904 S    
C157  H100  1.110406 S    
O42   C22   1.271387 A    
C91   N11   1.437718 S    
C29   H6    1.113784 S    
C86   C110  1.444861 S    
C41   C42   1.622822 S    
C99   C123  1.205361 T    
C43   C44   1.622824 S    
O12   C8    1.271695 A    
C92   N12   1.437718 S    
Zn11  O39   1.917569 S    
C66   H26   1.084079 S    
N2    H36   1.045352 S    
C12   C116  1.433977 S    
C58   C66   1.397974 A    
C135  C139  1.405018 A    
C132  O55   1.390254 S    
C67   C79   1.398940 A    
C27   H10   1.110900 S    
C25   H2    1.113785 S    
Zn5   O3    1.923080 S    
Zn6   O4    1.923147 S    
C49   H17   1.084084 S    
C84   C108  1.444900 S    
C32   C39   1.559918 S    
C52   H20   1.083944 S    
N11   H54   1.045693 S    
N7    H46   1.041659 S    
C51   C59   1.398592 A    
N22   H76   1.045564 S    
C72   C76   1.405711 A    
O28   C5    1.271606 A    
N28   H116  1.045575 S    
C21   C34   1.437316 S    
C51   C95   1.406320 A    
Zn3   O42   1.917240 S    
C95   N15   1.437690 S    
N6    H44   1.045351 S    
Zn7   O4    1.923078 S    
O21   C4    1.271577 A    
N8    H47   1.045349 S    
C57   C65   1.398568 A    
C58   C98   1.439250 S    
O55   C155  1.415719 S    
C60   C68   1.397985 A    
C25   C26   1.551534 S    
Zn2   O2    1.923147 S    
N17   H65   1.045568 S    
Zn14  O2    1.923859 S    
C27   C28   1.551549 S    
C56   H24   1.083946 S    
Zn13  O49   1.917773 S    
N21   H73   1.045692 S    
C43   N6    1.478012 S    
C140  N28   1.435152 S    
C55   H23   1.083948 S    
C30   H5    1.113512 S    
C7    C128  1.434185 S    
C98   C122  1.205381 T    
Zn12  O27   1.911061 S    
N25   H110  1.045583 S    
C50   C58   1.398589 A    
Zn3   O2    1.923078 S    
C1    C122  1.434146 S    
C139  N27   1.435421 S    
C158  H102  1.110859 S    
C26   H1    1.113511 S    
N27   H114  1.045583 S    
O46   C24   1.271374 A    
O47   C24   1.271371 A    
Zn16  O52   1.917506 S    
C104  C128  1.205406 T    
Zn8   O45   1.917207 S    
O27   C6    1.271398 A    
C11   C115  1.433996 S    
C108  C116  1.205347 T    
O39   C19   1.268745 A    
C54   C90   1.405741 A    
C94   N14   1.437692 S    
N1    H34   1.045437 S    
O24   C1    1.271627 A    
C100  C124  1.205400 T    
C59   C99   1.439215 S    
C49   C57   1.397989 A    
C151  H86   1.110376 S    
N5    H42   1.045437 S    
C136  C140  1.406189 A    
C40   C47   1.480115 S    
O43   C22   1.271357 A    
Zn4   O41   1.917207 S    
C150  C151  1.525983 S    
C81   C105  1.444782 S    
N24   H79   1.045690 S    
C156  H98   1.111006 S    
Zn5   O12   1.911077 S    
Zn6   O11   1.910905 S    
C14   C118  1.433908 S    
Zn9   O21   1.910934 S    
N9    H49   1.045560 S    
Zn14  O50   1.917506 S    
C65   C77   1.406277 A    
C155  H95   1.110870 S    
O35   C14   1.272194 A    
C88   C96   1.410417 A    
Zn12  O40   1.917833 S    
C53   C89   1.399591 A    
C133  C141  1.434795 S    
C154  H93   1.110389 S    
N10   H52   1.045696 S    
O52   C20   1.269408 A    
Zn4   O1    1.923145 S    
N3    H37   1.045438 S    
C64   C104  1.439398 S    
C27   H4    1.113784 S    
O22   C3    1.271513 A    
C32   H7    1.113509 S    
C87   C95   1.410627 A    
C76   N20   1.437717 S    
C36   C48   1.207376 T    
Zn7   O19   1.911014 S    
C41   N2    1.478012 S    
C32   H13   1.108148 S    
C85   C93   1.412628 A    
C83   C91   1.410415 A    
Zn13  O32   1.910042 S    
O49   C17   1.267823 A    
Zn14  O31   1.909952 S    
C70   C74   1.405704 A    
C160  H106  1.111065 S    
O51   C19   1.268741 A    
C110  C118  1.205292 T    
N14   H59   1.045538 S    
C136  C144  1.437502 S    
C37   C42   1.588169 S    
N16   H64   1.045693 S    
Zn4   O5    1.911082 S    
C39   C44   1.588168 S    
O20   C16   1.272071 A    
C51   H19   1.083953 S    
O10   C6    1.271520 A    
O23   C2    1.271449 A    
Zn11  O25   1.910934 S    
C85   C109  1.444839 S    
C159  H104  1.107820 S    
Zn10  O38   1.917833 S    
C79   N23   1.432826 S    
O14   C10   1.272233 A    
C158  C159  1.548937 S    
Zn9   O37   1.917569 S    
Zn1   O1    1.923080 S    
C64   C72   1.397986 A    
C18   C146  1.423898 S    
C131  C132  1.412030 A    
C23   C36   1.437319 S    
C28   H3    1.113509 S    
O17   C13   1.272051 A    
O45   C23   1.271336 A    
C57   C97   1.439216 S    
