data_mof_unit_15979.cif
_audit_creation_date              2012-12-11T15:54:04-0500
_audit_creation_method            fapswitch 2.2
_symmetry_space_group_name_H-M    P1
_symmetry_Int_Tables_number       1
_space_group_crystal_system       triclinic
_cell_length_a                    10.666176
_cell_length_b                    10.736604
_cell_length_c                    17.015207
_cell_angle_alpha                 80.945885
_cell_angle_beta                  99.053161
_cell_angle_gamma                 118.824192
_cell_volume                      1678.37276115

loop_
_atom_site_label
_atom_site_type_symbol
_atom_type_description
_atom_site_fract_x
_atom_site_fract_y
_atom_site_fract_z
_atom_type_partial_charge
C1    C     C_R   0.361031 0.229383 0.627426 0.561515
C2    C     C_1   0.321510 0.159914 0.778311 -0.029052
C3    C     C_1   0.334791 0.667385 0.278294 -0.052739
C4    C     C_R   0.368344 0.655939 0.584455 0.560106
C5    C     C_1   0.322321 0.677075 0.207461 -0.070767
C6    C     C_R   0.940941 0.716690 0.178903 -0.002567
C7    C     C_R   0.953348 0.612198 0.234120 0.017714
C8    C     C_R   0.921099 0.594750 0.311662 0.029485
C9    C     C_R   0.879230 0.799626 0.284897 -0.125650
C10   C     C_R   0.917341 0.819249 0.207083 -0.130497
C11   C     C_3   0.890207 0.455921 0.228867 -0.273276
C12   C     C_R   0.411688 0.824806 0.680879 -0.155018
C13   C     C_3   0.861055 0.435924 0.315159 -0.268761
C14   C     C_R   0.866558 0.677603 0.335091 0.010356
C15   C     C_R   0.342225 0.194906 0.150852 0.025415
C16   C     C_R   0.777026 0.619268 0.626712 0.546253
C17   C     C_R   0.279468 0.273371 0.169727 0.009702
C18   C     C_R   0.291141 0.300493 0.246808 0.005583
C19   C     C_R   0.457396 0.207297 0.286486 -0.164275
C20   C     C_R   0.443099 0.174549 0.208309 -0.171386
C21   C     C_3   0.141660 0.283751 0.150461 0.181264
C22   C     C_3   0.151112 0.301169 0.239314 0.133745
C23   C     C_R   0.394050 0.846448 0.756372 -0.161182
C24   C     C_R   0.372759 0.262638 0.307478 0.041173
C25   C     C_R   0.891702 0.701801 0.855993 0.555284
C26   C     C_R   0.281635 0.751257 0.883229 0.578566
C27   C     C_R   0.284903 0.114582 0.857858 0.546579
C28   C     C_R   0.379592 0.292575 0.388089 0.569954
C29   C     C_R   0.956986 0.719897 0.095065 0.578380
C30   C     C_R   0.312315 0.702180 0.124206 0.545887
C31   C     C_R   0.288403 0.113408 0.082520 0.562078
C32   C     C_R   0.364572 0.654924 0.361229 0.542468
C33   C     C_R   0.776772 0.624153 0.401389 0.535350
C34   C     C_3   0.052393 0.478561 0.771089 -0.216862
C35   C     C_R   0.284492 0.737540 0.800427 0.009704
C36   C     C_R   0.184473 0.618379 0.761366 -0.026122
C37   C     C_R   0.202041 0.596248 0.688488 0.047980
C38   C     C_3   0.912858 0.189836 0.086003 -0.017485
C39   C     C_3   0.775321 0.052646 0.069847 -0.348627
C40   C     C_3   0.955465 0.220345 0.663295 0.003032
C41   C     C_3   0.958566 0.079464 0.688710 -0.351141
C42   C     C_3   0.067292 0.456737 0.686289 0.136860
C43   C     C_R   0.320478 0.693159 0.648026 0.008068
C44   C     C_1   0.822580 0.657382 0.705906 -0.058846
C45   C     C_1   0.850237 0.684669 0.773853 -0.057501
C46   C     C_1   0.345300 0.187749 0.709740 -0.034978
Cr1   Cr    Cr6+3 0.608440 0.389080 0.519680 0.990032
Cr2   Cr    Cr6+3 0.288640 0.400090 0.490760 1.044062
Cr3   Cr    Cr6+3 0.602940 0.710800 0.489510 1.013357
Cr4   Cr    Cr6+3 0.052530 0.947560 0.964210 1.017711
Cr5   Cr    Cr6+3 0.059970 0.626800 0.992920 0.978646
Cr6   Cr    Cr6+3 0.373320 0.938440 0.995370 0.984483
H1    H     H_    0.503160 0.907633 0.651268 0.142302
H2    H     H_    0.955489 0.489557 0.774601 0.122543
H3    H     H_    0.070656 0.403989 0.818938 0.172335
H4    H     H_    0.986232 0.466072 0.638964 0.115033
H5    H     H_    0.844711 0.870492 0.302018 0.167379
H6    H     H_    0.913730 0.905526 0.167063 0.209970
H7    H     H_    0.970945 0.425770 0.218826 0.119835
H8    H     H_    0.947337 0.252367 0.027606 0.128468
H9    H     H_    0.888180 0.251775 0.122195 0.111329
H10   H     H_    0.734848 0.990439 0.127178 0.151635
H11   H     H_    0.691761 0.078611 0.035823 0.115202
H12   H     H_    0.789868 0.412683 0.187751 0.155417
H13   H     H_    0.795705 0.987134 0.034209 0.170521
H14   H     H_    0.961237 0.190381 0.274807 0.312109
H15   H     H_    0.932035 0.230245 0.597200 0.130344
H16   H     H_    0.865182 0.214780 0.691789 0.111282
H17   H     H_    0.979103 0.066107 0.754554 0.187185
H18   H     H_    0.852834 0.989693 0.670372 0.102885
H19   H     H_    0.042286 0.074818 0.660096 0.174229
H20   H     H_    0.744990 0.376379 0.322910 0.155231
H21   H     H_    0.928994 0.396962 0.356635 0.142865
H22   H     H_    0.525556 0.178512 0.331172 0.137150
H23   H     H_    0.499142 0.119422 0.195788 0.142011
H24   H     H_    0.160677 0.382089 0.109987 0.083108
H25   H     H_    0.162416 0.402480 0.253849 0.076573
H26   H     H_    0.470636 0.945164 0.781683 0.138404
O1    O     O_R   0.754020 0.497590 0.609930 -0.531892
O2    O     O_R   0.406180 0.826930 0.920660 -0.513566
O3    O     O_R   0.358620 0.062870 0.901950 -0.525449
O4    O     O_R   0.481420 0.271390 0.600630 -0.498484
O5    O     O_R   0.163910 0.085460 0.050210 -0.465250
O6    O     O_R   0.935200 0.815170 0.045770 -0.499628
O7    O     O_R   0.916120 0.596690 0.069430 -0.522634
O8    O     O_R   0.192310 0.631200 0.086170 -0.532544
O9    O     O_R   0.406770 0.819480 0.096420 -0.508675
O10   O     O_R   0.359170 0.055960 0.064880 -0.519813
O11   O     O_3   0.161940 0.837600 0.984160 -0.295059
O12   O     O_R   0.295080 0.533620 0.397890 -0.528510
O13   O     O_R   0.263810 0.254550 0.589590 -0.484945
O14   O     O_R   0.300820 0.531200 0.560890 -0.466978
O15   O     O_R   0.491480 0.744020 0.564270 -0.528342
O16   O     O_R   0.726290 0.693800 0.583010 -0.491285
O17   O     O_R   0.747830 0.500190 0.434090 -0.534631
O18   O     O_R   0.475680 0.273800 0.437630 -0.517026
O19   O     O_R   0.257620 0.257160 0.413750 -0.461150
O20   O     O_3   0.021034 0.156989 0.126671 -0.516513
O21   O     O_3   0.049665 0.179649 0.281145 -0.643068
O22   O     O_3   0.089426 0.337106 0.685931 -0.516109
O23   O     O_R   0.485280 0.746620 0.388440 -0.510148
O24   O     O_R   0.720550 0.696220 0.420010 -0.503851
O25   O     O_3   0.500010 0.499990 0.499980 -0.273117
O26   O     O_R   0.163320 0.092900 0.874450 -0.514670
O27   O     O_R   0.934650 0.822080 0.882840 -0.499877
O28   O     O_R   0.915520 0.604140 0.893670 -0.525271
O29   O     O_R   0.191760 0.638110 0.923230 -0.500918

loop_
_geom_bond_atom_site_label_1
_geom_bond_atom_site_label_2
_ccdc_geom_bond_type
C28   O19   A    
Cr4   O26   S    
C8    C13   S    
C19   C20   A    
C34   C42   S    
Cr1   O1    S    
C38   O20   S    
Cr5   O7    S    
C14   C33   S    
Cr4   O6    S    
C7    C8    A    
C2    C46   T    
C7    C11   S    
Cr2   O19   S    
C12   C23   A    
C18   C24   A    
C36   C37   A    
C10   H6    S    
C12   C43   A    
Cr3   O23   S    
C38   C39   S    
C1    C46   S    
C27   O26   A    
C31   O5    A    
Cr1   O4    S    
C37   C42   S    
C42   H4    S    
C32   O12   A    
C35   C36   A    
Cr2   O13   S    
C25   O28   A    
Cr4   O27   S    
Cr1   O18   S    
C2    C27   S    
C31   O10   A    
Cr3   O16   S    
C30   O8    A    
C9    C10   A    
C16   C44   S    
C29   O7    A    
C12   H1    S    
C41   H19   S    
C38   H9    S    
C34   H3    S    
C1    O13   A    
Cr2   O12   S    
C21   C22   S    
C39   H13   S    
Cr6   O11   S    
Cr6   O3    S    
C11   H7    S    
C33   O17   A    
Cr5   O8    S    
Cr4   O5    S    
Cr6   O9    S    
C15   C20   A    
Cr1   O25   S    
C25   O27   A    
C33   O24   A    
C27   O3    A    
C29   O6    A    
C11   H12   S    
Cr3   O24   S    
C1    O4    A    
Cr2   O25   S    
C40   H15   S    
C26   O2    A    
C20   H23   S    
H14   O21   S    
C37   C43   A    
C9    C14   A    
Cr3   O25   S    
C42   O22   S    
Cr4   O11   S    
C21   H24   S    
Cr6   O10   S    
C17   C18   A    
C38   H8    S    
C40   C41   S    
C13   H20   S    
C13   H21   S    
C34   H2    S    
C23   C35   A    
Cr2   O14   S    
C25   C45   S    
C44   C45   T    
C41   H17   S    
C5    C30   S    
C15   C17   A    
C39   H10   S    
C8    C14   A    
C22   O21   S    
C18   C22   S    
C19   H22   S    
C24   C28   S    
C22   H25   S    
C3    C5    T    
C26   O29   A    
C40   O22   S    
C15   C31   S    
C6    C7    A    
C4    C43   S    
C39   H11   S    
C16   O16   A    
C28   O18   A    
C16   O1    A    
C19   C24   A    
Cr5   O11   S    
C21   O20   S    
C11   C13   S    
Cr5   O28   S    
C34   C36   S    
C9    H5    S    
C23   H26   S    
C3    C32   S    
C17   C21   S    
C6    C10   A    
C4    O15   A    
C26   C35   S    
C6    C29   S    
Cr5   O29   S    
C40   H16   S    
Cr1   O17   S    
C32   O23   A    
Cr3   O15   S    
C30   O9    A    
Cr6   O2    S    
C41   H18   S    
C4    O14   A    
