data_mof_unit_51995.cif
_audit_creation_date              2012-12-10T17:57:52-0500
_audit_creation_method            fapswitch 2.2
_symmetry_space_group_name_H-M    P1
_symmetry_Int_Tables_number       1
_space_group_crystal_system       triclinic
_cell_length_a                    10.836194
_cell_length_b                    9.528573
_cell_length_c                    15.041792
_cell_angle_alpha                 90.389121
_cell_angle_beta                  90.338848
_cell_angle_gamma                 90.15652
_cell_volume                      1553.04820783

loop_
_atom_site_label
_atom_site_type_symbol
_atom_type_description
_atom_site_fract_x
_atom_site_fract_y
_atom_site_fract_z
_atom_type_partial_charge
C1    C     C_R   0.262085 0.499953 0.500713 0.842994
C2    C     C_R   0.737908 0.500145 0.499391 0.864685
C3    C     C_R   0.269624 0.507227 0.038928 -0.183332
C4    C     C_R   0.718398 0.566251 0.960189 -0.191526
C5    C     C_R   0.063515 0.373029 0.506931 -0.185485
C6    C     C_R   0.936451 0.627286 0.494230 -0.146358
C7    C     C_R   0.935844 0.373081 0.506121 -0.105136
C8    C     C_R   0.064154 0.627184 0.494714 -0.129857
C9    C     C_R   0.871777 0.500212 0.499749 0.021157
C10   C     C_R   0.128214 0.500021 0.500917 0.007176
C11   C     C_R   0.410714 0.073221 0.455652 -0.004018
C12   C     C_R   0.588906 0.926345 0.544994 -0.019384
C13   C     C_R   0.589118 0.075044 0.544735 -0.025884
C14   C     C_R   0.411003 0.924704 0.455232 -0.018990
C15   C     C_R   0.491958 0.499651 0.328954 0.909608
C16   C     C_R   0.505053 0.500525 0.670992 0.911584
C17   C     C_R   0.619215 0.510575 0.816142 0.332141
C18   C     C_R   0.376980 0.479467 0.183149 0.402087
C19   C     C_R   0.507424 0.502882 0.767518 -0.192621
C20   C     C_R   0.487704 0.500447 0.232083 -0.187514
C21   C     C_R   0.393810 0.506189 0.810228 -0.286796
C22   C     C_R   0.597313 0.534170 0.189100 -0.293745
C23   C     C_R   0.387416 0.512922 0.902723 0.111099
C24   C     C_R   0.602656 0.539618 0.096514 0.111298
C25   C     C_R   0.497874 0.522630 0.952749 -0.021019
C26   C     C_R   0.493092 0.521330 0.046507 -0.028783
C27   C     C_R   0.613270 0.532478 0.909225 -0.018242
C28   C     C_R   0.378765 0.501485 0.089987 -0.025213
C29   C     C_R   0.272764 0.512346 0.946281 0.219114
C30   C     C_R   0.714609 0.567812 0.052911 0.226404
Cu1   Cu    Cu3+1 0.500000 0.640660 0.500000 0.983857
Cu2   Cu    Cu3+1 0.500000 0.359340 0.500000 1.000305
H1    H     H_    0.310208 0.500444 0.770348 0.187051
H2    H     H_    0.679372 0.553446 0.228992 0.184879
H3    H     H_    0.180213 0.513327 0.069813 0.203358
H4    H     H_    0.804366 0.594697 0.929217 0.202410
H5    H     H_    0.111300 0.273691 0.512129 0.142887
H6    H     H_    0.888647 0.726647 0.489293 0.146399
H7    H     H_    0.887580 0.273730 0.510838 0.151286
H8    H     H_    0.112432 0.726514 0.489920 0.144189
H9    H     H_    0.338509 0.127470 0.420630 0.158056
H10   H     H_    0.660027 0.871066 0.581257 0.144492
H11   H     H_    0.660707 0.131256 0.580454 0.140086
H12   H     H_    0.339708 0.868232 0.419138 0.136798
N1    N     N_R   0.500000 0.852070 0.500000 -0.167234
N2    N     N_R   0.500000 0.147930 0.500000 -0.165122
O1    O     O_R   0.319640 0.618740 0.499990 -0.602478
O2    O     O_R   0.680360 0.381260 0.500010 -0.581800
O3    O     O_R   0.680360 0.618740 0.500010 -0.596939
O4    O     O_R   0.319640 0.381260 0.499990 -0.580310
O5    O     O_R   0.499970 0.618800 0.370260 -0.587546
O6    O     O_R   0.500030 0.381200 0.629740 -0.568077
O7    O     O_R   0.500030 0.618800 0.629740 -0.576590
O8    O     O_R   0.499970 0.381200 0.370260 -0.538010
S1    S     S_3+6 0.762544 0.479133 0.760973 -0.033046
O9    O     O_2   0.805423 0.612942 0.718708 -0.303457
O10   O     O_2   0.861061 0.427273 0.823275 -0.322273
O11   O     O_3   0.744204 0.356048 0.681717 -0.539125
H13   H     H_    0.722985 0.269404 0.714344 0.340647
S2    S     S_3+6 0.239032 0.422658 0.236930 -0.052807
O12   O     O_2   0.167302 0.549612 0.265745 -0.341917
O13   O     O_2   0.161505 0.334023 0.175055 -0.337527
O14   O     O_3   0.269411 0.324134 0.325875 -0.546398
H14   H     H_    0.188742 0.283369 0.342703 0.359590
N3    N     N_2   0.159723 0.515028 0.897484 -0.420284
H15   H     H_    0.089705 0.458200 0.926541 0.281126
C31   C     C_3   0.119922 0.654448 0.873176 -0.629924
H16   H     H_    0.097742 0.716657 0.933771 0.213824
H17   H     H_    0.035951 0.647025 0.830771 0.280589
H18   H     H_    0.192842 0.709214 0.834956 0.231168
N4    N     N_2   0.824333 0.597763 0.101873 -0.454629
H19   H     H_    0.879155 0.673437 0.073106 0.255845
C32   C     C_3   0.894275 0.474484 0.125442 -0.592325
H20   H     H_    0.933813 0.424905 0.064903 0.231474
H21   H     H_    0.835355 0.397074 0.160375 0.232503
H22   H     H_    0.970295 0.505785 0.170867 0.289556

loop_
_geom_bond_atom_site_label_1
_geom_bond_atom_site_label_2
_ccdc_geom_bond_type
S1    O9    D    
C4    H4    S    
C5    H5    S    
Cu2   O2    S    
C32   H20   S    
C6    C9    A    
C30   N4    S    
S2    O14   S    
C23   C29   A    
C3    C28   A    
C19   C21   A    
C24   C26   A    
C13   N2    A    
C11   C14   A    
C21   H1    S    
S2    O13   D    
C3    C29   A    
C16   O7    A    
Cu2   O6    S    
C12   H10   S    
N3    C31   S    
C6    H6    S    
C15   O5    A    
C1    O4    A    
C17   S1    S    
Cu1   O1    S    
C32   H21   S    
Cu1   O3    S    
Cu2   O8    S    
C14   N1    A    
C15   C20   S    
C22   H2    S    
C31   H16   S    
C17   C27   A    
C15   O8    A    
C18   C28   A    
C5    C7    A    
C1    O1    A    
C6    C8    A    
C2    O2    A    
O11   H13   S    
S2    O12   D    
C31   H17   S    
C2    O3    A    
Cu1   Cu2   S    
C3    H3    S    
Cu1   O7    S    
Cu2   O4    S    
C29   N3    S    
C18   S2    S    
C20   C22   A    
S1    O10   D    
C32   H22   S    
C22   C24   A    
C13   H11   S    
C4    C27   A    
C14   H12   S    
C7    C9    A    
Cu2   N2    S    
C1    C10   S    
C16   O6    A    
Cu1   O5    S    
C12   N1    A    
C25   C27   A    
C26   C28   A    
C31   H18   S    
C21   C23   A    
C25   C26   A    
N4    H19   S    
C16   C19   S    
C17   C19   A    
C11   H9    S    
C18   C20   A    
C23   C25   A    
C24   C30   A    
O14   H14   S    
C5    C10   A    
C12   C13   A    
C8    C10   A    
N3    H15   S    
Cu1   N1    S    
S1    O11   S    
N4    C32   S    
C7    H7    S    
C11   N2    A    
C8    H8    S    
C2    C9    S    
C4    C30   A    
