data_mof_unit_51412.cif
_audit_creation_date              2012-12-11T17:47:18-0500
_audit_creation_method            fapswitch 2.2
_symmetry_space_group_name_H-M    P1
_symmetry_Int_Tables_number       1
_space_group_crystal_system       triclinic
_cell_length_a                    14.839673
_cell_length_b                    14.869077
_cell_length_c                    15.146972
_cell_angle_alpha                 110.083725
_cell_angle_beta                  109.054614
_cell_angle_gamma                 108.517664
_cell_volume                      2596.23811541

loop_
_atom_site_label
_atom_site_type_symbol
_atom_type_description
_atom_site_fract_x
_atom_site_fract_y
_atom_site_fract_z
_atom_type_partial_charge
C1    C     C_R   0.975200 0.248514 0.061670 -0.038813
C2    C     C_R   0.062926 0.140150 0.160969 -0.199335
C3    C     C_R   0.276541 0.128666 0.877917 -0.108922
C4    C     C_R   0.851838 0.975294 0.263907 -0.155188
C5    C     C_R   0.202651 0.110228 0.916216 -0.228626
C6    C     C_R   0.943743 0.022255 0.254693 -0.182823
C7    C     C_R   0.658020 0.244886 0.098366 -0.262871
C8    C     C_R   0.311658 0.732896 0.860229 -0.231417
C9    C     C_R   0.712993 0.332705 0.203921 -0.232561
C10   C     C_R   0.226229 0.653461 0.756055 -0.211803
C11   C     C_R   0.776715 0.324844 0.289847 0.127274
C12   C     C_R   0.085928 0.802509 0.000669 -0.085272
C13   C     C_R   0.147471 0.676431 0.702209 0.124372
C14   C     C_R   0.773963 0.224231 0.270413 -0.279690
C15   C     C_R   0.160961 0.782553 0.749337 -0.290119
C16   C     C_R   0.315013 0.758234 0.223440 -0.058600
C17   C     C_R   0.701089 0.199099 0.792624 -0.096155
C18   C     C_R   0.717014 0.136143 0.165321 -0.212009
C19   C     C_R   0.244682 0.860537 0.854559 -0.281793
C20   C     C_R   0.661646 0.147110 0.078510 0.716248
C21   C     C_R   0.317672 0.834612 0.911997 0.699069
C22   C     C_R   0.856695 0.439879 0.488117 -0.115944
C23   C     C_R   0.322599 0.786437 0.324023 0.011122
C24   C     C_R   0.055056 0.573204 0.504748 -0.104799
C25   C     C_R   0.950969 0.517781 0.588672 0.037406
C26   C     C_R   0.961562 0.494834 0.404529 0.036065
C27   C     C_R   0.048520 0.588912 0.597291 -0.077896
C28   C     C_R   0.863700 0.424312 0.394826 -0.077475
C29   C     C_R   0.237988 0.169496 0.026842 0.110907
C30   C     C_R   0.939216 0.981712 0.153865 0.099228
C31   C     C_R   0.422290 0.262361 0.060336 -0.103304
C32   C     C_R   0.747333 0.853408 0.070872 -0.053935
C33   C     C_R   0.178617 0.003625 0.388308 -0.118554
C34   C     C_R   0.698318 0.138143 0.699452 0.046787
C35   C     C_R   0.876604 0.958286 0.693050 -0.111393
C36   C     C_R   0.270706 0.990667 0.404251 -0.110903
C37   C     C_R   0.779067 0.962067 0.668505 -0.117972
C38   C     C_R   0.314435 0.965205 0.483570 0.098607
C39   C     C_R   0.715505 0.946689 0.567014 0.109272
C40   C     C_R   0.213201 0.410423 0.905942 -0.150388
C41   C     C_R   0.775484 0.592851 0.025542 -0.148589
C42   C     C_R   0.266491 0.955398 0.548306 -0.181556
C43   C     C_R   0.750857 0.926199 0.490188 -0.172787
C44   C     C_R   0.173922 0.967839 0.531566 -0.123165
C45   C     C_R   0.305071 0.502803 0.938567 0.026598
C46   C     C_R   0.848683 0.922562 0.515199 -0.112988
C47   C     C_R   0.129843 0.991735 0.451468 -0.100470
C48   C     C_R   0.911569 0.938763 0.616589 -0.094880
C49   C     C_R   0.505810 0.032805 0.594528 -0.218217
C50   C     C_R   0.516804 0.867638 0.446747 -0.219934
C51   C     C_R   0.605238 0.036202 0.612799 0.078421
C52   C     C_R   0.418179 0.868929 0.425765 0.088650
C53   C     C_R   0.612118 0.951303 0.541726 0.021751
C54   C     C_R   0.412421 0.951772 0.501413 0.017182
C55   C     C_R   0.386639 0.203050 0.950241 -0.008974
C56   C     C_R   0.674694 0.501716 0.950562 0.049875
C57   C     C_R   0.753924 0.890127 0.172163 -0.104492
C58   C     C_R   0.034526 0.034618 0.142601 0.006807
C59   C     C_R   0.168478 0.129444 0.069824 0.011190
C60   C     C_R   0.348112 0.246640 0.098535 -0.097841
C61   C     C_R   0.839413 0.898873 0.061554 -0.125609
C62   C     C_R   0.083265 0.979721 0.095273 0.038344
C63   C     C_R   0.107115 0.175093 0.102509 0.061048
C64   C     C_R   0.007362 0.588835 0.304430 -0.118020
C65   C     C_R   0.942261 0.411489 0.686987 -0.106218
C66   C     C_3   0.463007 0.399956 0.875878 -0.160827
C67   C     C_R   0.966511 0.495768 0.311799 0.131492
C68   C     C_3   0.505622 0.608517 0.976020 -0.193917
C69   C     C_3   0.405296 0.452421 0.822989 -0.133741
C70   C     C_3   0.562338 0.556200 0.028654 -0.157711
C71   C     C_3   0.397094 0.505384 0.924265 0.178232
C72   C     C_3   0.572443 0.502828 0.928392 0.176437
C73   C     C_3   0.453504 0.453576 0.976660 -0.144139
C74   C     C_3   0.517129 0.555713 0.875362 -0.135291
C75   C     C_R   0.303281 0.592671 0.001054 -0.151062
C76   C     C_R   0.685045 0.409254 0.934746 -0.129444
C77   C     C_R   0.929962 0.406476 0.216392 -0.109886
C78   C     C_R   0.957404 0.506475 0.681193 0.164280
C79   C     C_R   0.018610 0.593375 0.783440 -0.123174
C80   C     C_R   0.219437 0.747445 0.311446 -0.068811
C81   C     C_R   0.790414 0.198381 0.699121 -0.102908
C82   C     C_R   0.072811 0.255669 0.976705 -0.147126
C83   C     C_R   0.997134 0.801862 0.093637 -0.148966
C84   C     C_R   0.058627 0.229174 0.052375 0.041559
C85   C     C_R   0.051729 0.864325 0.060312 0.050141
C86   C     C_2   0.750514 0.375128 0.479519 0.484840
C87   C     C_2   0.163318 0.633701 0.514329 0.496722
C88   C     C_R   0.161712 0.036362 0.074769 -0.190847
H1    H     H_    0.934349 0.226118 0.103342 0.096265
H2    H     H_    0.218865 0.573013 0.719147 0.145510
H3    H     H_    0.823057 0.216815 0.335599 0.144061
H4    H     H_    0.102316 0.802253 0.707540 0.147260
H5    H     H_    0.721296 0.061659 0.151184 0.187216
H6    H     H_    0.249298 0.939055 0.893213 0.176724
H7    H     H_    0.118963 0.046714 0.860589 0.116235
H8    H     H_    0.018176 0.090465 0.325929 0.116559
H9    H     H_    0.425059 0.417032 0.021091 0.127223
H10   H     H_    0.545643 0.597052 0.833668 0.130586
H11   H     H_    0.380967 0.779193 0.205474 0.129769
H12   H     H_    0.142388 0.829873 0.973688 0.116672
H13   H     H_    0.646596 0.172554 0.822229 0.161421
H14   H     H_    0.377414 0.289893 0.184418 0.122685
H15   H     H_    0.832944 0.870100 0.982491 0.128949
H16   H     H_    0.058255 0.001416 0.438879 0.103131
H17   H     H_    0.987139 0.935802 0.635804 0.088916
H18   H     H_    0.145639 0.023027 0.326986 0.120993
H19   H     H_    0.924632 0.970025 0.771292 0.112573
H20   H     H_    0.307566 0.999796 0.354635 0.142022
H21   H     H_    0.752876 0.976534 0.728528 0.154669
H22   H     H_    0.299974 0.936693 0.610491 0.124307
H23   H     H_    0.249212 0.082250 0.792855 0.113215
H24   H     H_    0.703513 0.914368 0.411589 0.106426
H25   H     H_    0.136402 0.958952 0.580632 0.098871
H26   H     H_    0.875776 0.907170 0.455982 0.102695
H27   H     H_    0.501455 0.099543 0.648779 0.132701
H28   H     H_    0.518926 0.801401 0.389369 0.128736
H29   H     H_    0.210642 0.003383 0.051484 0.170719
H30   H     H_    0.029109 0.183158 0.201199 0.127266
H31   H     H_    0.337949 0.410420 0.739138 0.117170
H32   H     H_    0.627641 0.598705 0.113678 0.116367
H33   H     H_    0.445104 0.314169 0.831707 0.107827
H34   H     H_    0.856141 0.005951 0.341940 0.111549
H35   H     H_    0.519995 0.693378 0.016946 0.143209
H36   H     H_    0.186497 0.327192 0.848371 0.103947
H37   H     H_    0.794074 0.677434 0.060159 0.114632
H38   H     H_    0.030904 0.671361 0.360894 0.078901
H39   H     H_    0.899847 0.328377 0.621042 0.089123
H40   H     H_    0.359229 0.677548 0.033708 0.134513
H41   H     H_    0.621145 0.325092 0.885767 0.092831
H42   H     H_    0.886418 0.322214 0.192644 0.106297
H43   H     H_    0.040698 0.677320 0.807219 0.117196
H44   H     H_    0.196923 0.754893 0.373309 0.119674
H45   H     H_    0.507270 0.321264 0.116157 0.113992
H46   H     H_    0.817488 0.171334 0.641752 0.098997
H47   H     H_    0.129285 0.251110 0.948042 0.123486
H48   H     H_    0.978362 0.829487 0.157695 0.116661
H49   H     H_    0.444129 0.214669 0.920781 0.113067
H50   H     H_    0.682832 0.854372 0.179544 0.119445
H51   H     H_    0.477733 0.988043 0.788485 0.362880
H52   H     H_    0.553045 0.946230 0.171551 0.356588
H53   H     H_    0.686266 0.300345 0.405458 0.054590
H54   H     H_    0.218434 0.718906 0.576128 0.026812
H55   H     H_    0.670975 0.790300 0.999220 0.136188
H56   H     H_    0.618549 0.255682 0.031996 0.144945
H57   H     H_    0.370688 0.713608 0.901378 0.159655
H58   H     H_    0.715605 0.410078 0.217224 0.137207
N1    N     N_R   0.947560 0.293820 0.002910 -0.040075
N2    N     N_R   0.789450 0.443190 0.997090 -0.044103
N3    N     N_R   0.945970 0.443180 0.152110 -0.050263
N4    N     N_R   0.054030 0.556820 0.847890 -0.050850
N5    N     N_R   0.151530 0.706170 0.208880 -0.053286
N6    N     N_R   0.848470 0.293830 0.791120 -0.040088
N7    N     N_R   0.004980 0.293810 0.946140 -0.046187
N8    N     N_R   0.995020 0.706190 0.053860 -0.041825
N9    N     N_R   0.052440 0.706180 0.997090 -0.042327
N10   N     N_R   0.208960 0.706170 0.152110 -0.036015
N11   N     N_R   0.791040 0.293830 0.847890 -0.043646
N12   N     N_R   0.154330 0.443160 0.946140 -0.041198
N13   N     N_R   0.845670 0.556840 0.053860 -0.044905
N14   N     N_R   0.002190 0.556820 0.208880 -0.043962
N15   N     N_R   0.997810 0.443180 0.791120 -0.053106
N16   N     N_R   0.210550 0.556810 0.002910 -0.037726
Ni1   Ni    Ni4+2 0.869690 0.369690 0.000000 0.246340
Ni2   Ni    Ni4+2 0.130310 0.630310 0.000000 0.259006
Ni3   Ni    Ni4+2 0.001390 0.369680 0.869810 0.217461
Ni4   Ni    Ni4+2 0.998610 0.630320 0.130190 0.218942
O1    O     O_2   0.693240 0.061777 0.913599 -0.367983
O2    O     O_2   0.567968 0.932783 0.938406 -0.261663
O3    O     O_3   0.500838 0.045113 0.861373 -0.584430
O4    O     O_2   0.448805 0.041023 0.074219 -0.288081
O5    O     O_2   0.347822 0.906766 0.111311 -0.374258
O6    O     O_3   0.513261 0.900758 0.091958 -0.568511
O7    O     O_2   0.731744 0.406818 0.553861 -0.572247
O8    O     O_2   0.193110 0.587358 0.455556 -0.573308
S1    S     S_3+6 0.606022 0.042702 0.945458 -0.066992
S2    S     S_3+6 0.408026 0.924768 0.050946 -0.076610

loop_
_geom_bond_atom_site_label_1
_geom_bond_atom_site_label_2
_ccdc_geom_bond_type
C24   C87   S    
C58   C62   A    
C80   N5    A    
C80   H44   S    
C45   C71   S    
C14   C18   A    
C8    H57   S    
C67   C77   A    
C24   C27   A    
C31   H45   S    
C26   C28   A    
N6    Ni3   S    
C2    H30   S    
C81   H46   S    
C74   H10   S    
C83   N8    A    
O4    S2    D    
C6    C30   A    
C1    C84   A    
C73   H9    S    
C34   C51   S    
C12   C85   A    
C75   N16   A    
C56   C76   A    
C26   C67   S    
C65   H39   S    
C40   N12   A    
C61   H15   S    
C24   C26   A    
C32   C61   A    
C38   C42   A    
C11   C14   A    
C66   C69   S    
C36   H20   S    
C68   C74   S    
C49   C54   A    
C9    H58   S    
C33   C36   A    
C75   H40   S    
N12   Ni3   S    
C82   H47   S    
C69   C71   S    
C17   H13   S    
C59   C88   A    
C32   H55   S    
C15   H4    S    
C41   N13   A    
C82   N7    A    
C3    C55   A    
C66   C72   S    
C29   C59   S    
C70   H32   S    
C49   C51   A    
C22   C25   A    
C4    C57   A    
C16   N10   A    
C50   C52   A    
N3    Ni1   S    
C34   C81   A    
N14   Ni4   S    
C23   C80   A    
C17   N11   A    
N11   Ni1   S    
C37   H21   S    
C83   C85   A    
C44   C47   A    
H52   O6    S    
C22   C28   A    
C42   C44   A    
C32   C57   A    
C60   H14   S    
C35   C48   A    
C68   H35   S    
C7    H56   S    
C5    H7    S    
C52   C54   A    
N16   Ni2   S    
C40   C45   A    
C40   H36   S    
C62   C85   S    
C46   C48   A    
C50   C53   A    
C46   H26   S    
C25   C78   S    
C64   C67   A    
C41   H37   S    
C72   C74   S    
C77   N3    A    
C71   C73   S    
C78   C79   A    
C39   C43   A    
C56   C72   S    
C66   C73   S    
C62   C88   A    
C69   H31   S    
C51   C53   A    
N2    N13   A    
C31   C60   A    
C15   C19   A    
C41   C56   A    
C76   H41   S    
C48   H17   S    
C38   C54   S    
C29   C60   A    
C82   C84   A    
C21   S2    S    
C79   H43   S    
C64   N14   A    
C70   C73   S    
C2    C58   A    
C8    C21   A    
O3    S1    S    
C66   H33   S    
C4    H34   S    
C69   C74   S    
N5    N10   A    
C9    C11   A    
C10   H2    S    
N8    N9    A    
C19   H6    S    
C79   N4    A    
C4    C6    A    
C49   H27   S    
C44   H25   S    
C16   C23   A    
C64   H38   S    
C13   C15   A    
C33   C47   A    
C1    N1    A    
C17   C34   A    
C12   N9    A    
C81   N6    A    
C5    C29   A    
C2    C63   A    
C35   C37   A    
O1    S1    D    
O5    S2    D    
C7    C9    A    
C87   O8    D    
N6    N11   A    
C1    H1    S    
C47   H16   S    
N7    Ni3   S    
N2    Ni1   S    
C59   C63   A    
C8    C10   A    
N8    Ni4   S    
C33   H18   S    
C3    C5    A    
C10   C13   A    
N4    N15   A    
C16   H11   S    
N9    Ni2   S    
C25   C27   A    
N5    Ni4   S    
N4    Ni2   S    
N3    N14   A    
C6    H8    S    
C55   H49   S    
N13   Ni4   S    
C45   C75   A    
C63   C84   S    
C65   C78   A    
C86   O7    D    
C36   C38   A    
C42   H22   S    
C37   C39   A    
N1    Ni1   S    
N10   Ni2   S    
C23   C52   S    
C39   C53   S    
C11   C28   S    
C68   C71   S    
C30   C58   S    
C57   H50   S    
H51   O3    S    
O2    S1    D    
C18   C20   A    
C77   H42   S    
C22   C86   S    
C87   H54   S    
N1    N7    A    
C43   C46   A    
C14   H3    S    
C12   H12   S    
C35   H19   S    
N12   N16   A    
C3    H23   S    
C20   S1    S    
C76   N2    A    
C68   C70   S    
C7    C20   A    
C43   H24   S    
C30   C61   A    
C65   N15   A    
C18   H5    S    
C13   C27   S    
C70   C72   S    
C50   H28   S    
C31   C55   A    
C88   H29   S    
N15   Ni3   S    
O6    S2    S    
C86   H53   S    
C19   C21   A    
C83   H48   S    
