data_mof_unit_41192.cif
_audit_creation_date              2012-12-11T15:26:40-0500
_audit_creation_method            fapswitch 2.2
_symmetry_space_group_name_H-M    P1
_symmetry_Int_Tables_number       1
_space_group_crystal_system       triclinic
_cell_length_a                    7.25167
_cell_length_b                    12.229191
_cell_length_c                    29.253059
_cell_angle_alpha                 90.000016
_cell_angle_beta                  90.000062
_cell_angle_gamma                 89.999979
_cell_volume                      2594.22146026

loop_
_atom_site_label
_atom_site_type_symbol
_atom_type_description
_atom_site_fract_x
_atom_site_fract_y
_atom_site_fract_z
_atom_type_partial_charge
O1    O     O_R   0.647170 0.849180 0.201220 -0.547557
O2    O     O_R   0.352830 0.150820 0.798780 -0.514744
O3    O     O_R   0.352830 0.150820 0.701220 -0.547556
O4    O     O_R   0.647170 0.849180 0.298780 -0.514745
O5    O     O_R   0.147170 0.650820 0.298780 -0.547556
O6    O     O_R   0.852830 0.349180 0.701220 -0.514745
O7    O     O_R   0.852830 0.349180 0.798780 -0.547556
O8    O     O_R   0.147170 0.650820 0.201220 -0.514744
O9    O     O_R   0.317430 0.862210 0.298450 -0.545243
O10   O     O_R   0.682570 0.137790 0.701550 -0.534372
O11   O     O_R   0.682570 0.137790 0.798450 -0.545244
O12   O     O_R   0.317430 0.862210 0.201550 -0.534372
O13   O     O_R   0.817430 0.637790 0.201550 -0.545244
O14   O     O_R   0.182570 0.362210 0.798450 -0.534372
O15   O     O_R   0.182570 0.362210 0.701550 -0.545243
O16   O     O_R   0.817430 0.637790 0.298450 -0.534372
H1    H     H_    0.032305 0.231036 0.456478 0.140189
H2    H     H_    0.936967 0.773024 0.546170 0.172876
H3    H     H_    0.967687 0.768963 0.956478 0.140189
H4    H     H_    0.063040 0.226976 0.046170 0.172876
H5    H     H_    0.532312 0.268963 0.043522 0.140189
H6    H     H_    0.436960 0.726976 0.953830 0.172877
H7    H     H_    0.467691 0.731036 0.543522 0.140189
H8    H     H_    0.563034 0.273024 0.453830 0.172876
C1    C     C_R   0.486205 0.887000 0.313321 0.673658
C2    C     C_R   0.514189 0.114258 0.686143 0.764060
C3    C     C_R   0.513795 0.113000 0.813321 0.673658
C4    C     C_R   0.485811 0.885742 0.186143 0.764059
C5    C     C_R   0.986204 0.613000 0.186679 0.673658
C6    C     C_R   0.014189 0.385742 0.813857 0.764059
C7    C     C_R   0.013795 0.387000 0.686679 0.673658
C8    C     C_R   0.985811 0.614258 0.313857 0.764060
H9    H     H_    0.913741 0.594670 0.691523 0.104415
H10   H     H_    0.109584 0.410669 0.312573 0.131068
H11   H     H_    0.086262 0.405331 0.191523 0.104415
H12   H     H_    0.890412 0.589330 0.812573 0.131069
H13   H     H_    0.413738 0.905331 0.808477 0.104415
H14   H     H_    0.609588 0.089330 0.187427 0.131068
H15   H     H_    0.586259 0.094670 0.308477 0.104415
H16   H     H_    0.390416 0.910669 0.687427 0.131068
O17   O     O_3   0.480630 0.680630 0.250000 -0.382049
O18   O     O_3   0.519370 0.319370 0.750000 -0.382049
O19   O     O_3   0.980630 0.819370 0.250000 -0.382049
O20   O     O_3   0.019370 0.180630 0.750000 -0.382049
V1    V     V_3+5 0.205800 0.762860 0.250000 1.500196
V2    V     V_3+5 0.794200 0.237140 0.750000 1.500194
V3    V     V_3+5 0.705800 0.737140 0.250000 1.500194
V4    V     V_3+5 0.294200 0.262860 0.750000 1.500195
H17   H     H_    0.969739 0.288442 0.532306 0.118913
H18   H     H_    0.982180 0.716825 0.469959 0.204743
H19   H     H_    0.030255 0.711558 0.032306 0.118914
H20   H     H_    0.017824 0.283175 0.969959 0.204743
H21   H     H_    0.469744 0.211558 0.967694 0.118914
H22   H     H_    0.482176 0.783175 0.030041 0.204743
H23   H     H_    0.530257 0.788442 0.467694 0.118912
H24   H     H_    0.517822 0.216825 0.530041 0.204743
C9    C     C_R   0.996274 0.540569 0.353403 -0.134190
C10   C     C_R   0.001180 0.463244 0.648137 -0.096503
C11   C     C_R   0.003726 0.459431 0.853403 -0.134190
C12   C     C_R   0.998820 0.536756 0.148137 -0.096504
C13   C     C_R   0.496274 0.959431 0.146597 -0.134190
C14   C     C_R   0.501180 0.036756 0.851863 -0.096504
C15   C     C_R   0.503726 0.040569 0.646597 -0.134190
C16   C     C_R   0.498820 0.963244 0.351863 -0.096502
C17   C     C_R   0.071294 0.360432 0.382029 0.201146
C18   C     C_R   0.930255 0.645794 0.621182 0.196819
C19   C     C_R   0.928702 0.639567 0.882029 0.201144
C20   C     C_R   0.069748 0.354207 0.121181 0.196819
C21   C     C_R   0.571298 0.139567 0.117971 0.201144
C22   C     C_R   0.430252 0.854207 0.878818 0.196818
C23   C     C_R   0.428705 0.860432 0.617971 0.201146
C24   C     C_R   0.569744 0.145794 0.378818 0.196819
C25   C     C_R   0.067348 0.435960 0.346530 -0.173832
C26   C     C_R   0.941278 0.569538 0.656641 -0.172200
C27   C     C_R   0.932649 0.564039 0.846530 -0.173832
C28   C     C_R   0.058724 0.430463 0.156640 -0.172198
C29   C     C_R   0.567351 0.064039 0.153470 -0.173831
C30   C     C_R   0.441276 0.930463 0.843359 -0.172198
C31   C     C_R   0.432651 0.935960 0.653470 -0.173832
C32   C     C_R   0.558722 0.069538 0.343359 -0.172200
C33   C     C_R   0.938911 0.573617 0.397575 -0.046602
C34   C     C_R   0.043992 0.429940 0.603263 -0.060828
C35   C     C_R   0.061089 0.426384 0.897575 -0.046601
C36   C     C_R   0.956005 0.570060 0.103263 -0.060829
C37   C     C_R   0.438910 0.926384 0.102425 -0.046601
C38   C     C_R   0.543994 0.070060 0.896737 -0.060829
C39   C     C_R   0.561089 0.073617 0.602425 -0.046600
C40   C     C_R   0.456007 0.929940 0.396737 -0.060830
C41   C     C_R   0.978173 0.504826 0.435905 -0.021443
C42   C     C_R   0.995583 0.499163 0.565722 0.040960
C43   C     C_R   0.021826 0.495174 0.935905 -0.021442
C44   C     C_R   0.004416 0.500837 0.065722 0.040961
C45   C     C_R   0.478173 0.995173 0.064095 -0.021442
C46   C     C_R   0.495584 0.000837 0.934278 0.040960
C47   C     C_R   0.521826 0.004826 0.564095 -0.021443
C48   C     C_R   0.504416 0.999163 0.434277 0.040960
C49   C     C_R   0.024524 0.393817 0.426889 0.061319
C50   C     C_R   0.955667 0.610621 0.575534 0.073913
C51   C     C_R   0.975473 0.606183 0.926888 0.061319
C52   C     C_R   0.044335 0.389379 0.075533 0.073914
C53   C     C_R   0.524527 0.106183 0.073111 0.061319
C54   C     C_R   0.455665 0.889379 0.924466 0.073914
C55   C     C_R   0.475475 0.893817 0.573111 0.061319
C56   C     C_R   0.544333 0.110621 0.424466 0.073914
C57   C     C_R   0.974697 0.541086 0.482763 0.044807
C58   C     C_R   0.989247 0.463232 0.518940 0.106731
C59   C     C_R   0.025304 0.458915 0.982763 0.044807
C60   C     C_R   0.010751 0.536768 0.018940 0.106731
C61   C     C_R   0.474696 0.958914 0.017237 0.044807
C62   C     C_R   0.489248 0.036768 0.981060 0.106730
C63   C     C_R   0.525303 0.041085 0.517237 0.044808
C64   C     C_R   0.510751 0.963232 0.481060 0.106730
C65   C     C_R   0.988716 0.351687 0.507204 -0.103037
C66   C     C_R   0.969628 0.652642 0.494728 -0.201922
C67   C     C_R   0.011279 0.648313 0.007203 -0.103036
C68   C     C_R   0.030376 0.347359 0.994728 -0.201920
C69   C     C_R   0.488720 0.148313 0.992796 -0.103036
C70   C     C_R   0.469624 0.847358 0.005272 -0.201921
C71   C     C_R   0.511281 0.851687 0.492796 -0.103039
C72   C     C_R   0.530373 0.152642 0.505272 -0.201920
C73   C     C_R   0.017836 0.317875 0.462616 -0.202947
C74   C     C_R   0.950473 0.686194 0.539701 -0.192174
C75   C     C_R   0.982158 0.682125 0.962616 -0.202948
C76   C     C_R   0.049531 0.313807 0.039701 -0.192175
C77   C     C_R   0.517841 0.182125 0.037384 -0.202948
C78   C     C_R   0.450469 0.813807 0.960299 -0.192174
C79   C     C_R   0.482161 0.817875 0.537384 -0.202947
C80   C     C_R   0.549527 0.186194 0.460299 -0.192174
N1    N     N_3   0.125862 0.250597 0.371582 -0.654641
H25   H     H_    0.015280 0.198110 0.378083 0.224754
H26   H     H_    0.233592 0.229327 0.393405 0.261947
N2    N     N_3   0.900477 0.759477 0.631540 -0.670340
H27   H     H_    0.887947 0.771517 0.666792 0.238226
H28   H     H_    0.775170 0.782509 0.617103 0.225862
N3    N     N_3   0.874131 0.749402 0.871582 -0.654642
H29   H     H_    0.984710 0.801890 0.878083 0.224755
H30   H     H_    0.766400 0.770670 0.893405 0.261947
N4    N     N_3   0.099530 0.240524 0.131539 -0.670341
H31   H     H_    0.112060 0.228485 0.166792 0.238226
H32   H     H_    0.224838 0.217493 0.117102 0.225863
N5    N     N_3   0.625870 0.249402 0.128418 -0.654642
H33   H     H_    0.515290 0.301890 0.121917 0.224755
H34   H     H_    0.733600 0.270669 0.106595 0.261947
N6    N     N_3   0.400471 0.740524 0.868460 -0.670341
H35   H     H_    0.387941 0.728484 0.833208 0.238226
H36   H     H_    0.275162 0.717493 0.882897 0.225863
N7    N     N_3   0.374138 0.750597 0.628418 -0.654641
H37   H     H_    0.484719 0.698110 0.621917 0.224754
H38   H     H_    0.266407 0.729327 0.606595 0.261947
N8    N     N_3   0.599522 0.259477 0.368460 -0.670340
H39   H     H_    0.612052 0.271517 0.333208 0.238225
H40   H     H_    0.724830 0.282510 0.382897 0.225862
C81   C     C_2   0.165715 0.333211 0.597846 0.385574
H41   H     H_    0.146806 0.261062 0.618930 0.047666
O21   O     O_2   0.294119 0.335737 0.570946 -0.525701
C82   C     C_2   0.812083 0.668354 0.402234 0.352828
H42   H     H_    0.697130 0.662792 0.425771 0.023449
O22   O     O_2   0.837954 0.753612 0.381500 -0.515792
C83   C     C_2   0.834280 0.666788 0.097846 0.385573
H43   H     H_    0.853186 0.738936 0.118931 0.047668
O23   O     O_2   0.705878 0.664261 0.070946 -0.525701
C84   C     C_2   0.187919 0.331648 0.902234 0.352823
H44   H     H_    0.302874 0.337210 0.925770 0.023451
O24   O     O_2   0.162048 0.246389 0.881501 -0.515794
C85   C     C_2   0.665720 0.166788 0.902154 0.385574
H45   H     H_    0.646813 0.238937 0.881070 0.047668
O25   O     O_2   0.794122 0.164261 0.929054 -0.525701
C86   C     C_2   0.312081 0.831648 0.097766 0.352824
H46   H     H_    0.197126 0.837210 0.074230 0.023451
O26   O     O_2   0.337952 0.746389 0.118499 -0.515794
C87   C     C_2   0.334282 0.833212 0.402153 0.385575
H47   H     H_    0.353193 0.761062 0.381070 0.047664
O27   O     O_2   0.205876 0.835740 0.429053 -0.525699
C88   C     C_2   0.687917 0.168353 0.597766 0.352825
H48   H     H_    0.802872 0.162791 0.574230 0.023450
O28   O     O_2   0.662046 0.253611 0.618499 -0.515793

loop_
_geom_bond_atom_site_label_1
_geom_bond_atom_site_label_2
_ccdc_geom_bond_type
C23   N7    S    
C87   H47   S    
C40   C48   A    
O9    V1    S    
C85   H45   S    
C22   C30   A    
C16   C32   A    
C21   C29   A    
C20   N4    S    
N7    H37   S    
C23   C31   A    
O4    C1    A    
O9    C1    A    
N3    H29   S    
C15   C31   A    
C14   C38   A    
H3    C75   S    
C33   C82   S    
O12   C4    A    
O8    C5    A    
C8    C9    S    
C60   C67   A    
O13   C5    A    
C82   H42   S    
H12   C27   S    
C11   C35   A    
C84   H44   S    
N5    H34   S    
O6    V2    S    
H21   C69   S    
H6    C78   S    
C21   N5    S    
C18   C26   A    
O3    V4    S    
C17   C25   A    
O16   V3    S    
N3    H30   S    
O12   V1    S    
C9    C25   A    
C88   H48   S    
C49   C73   A    
C38   C46   A    
O8    V1    S    
C34   C81   S    
C37   C45   A    
C44   C60   A    
C63   C64   A    
C13   C29   A    
N2    H27   S    
C47   C55   A    
C39   C47   A    
O10   V2    S    
O1    C4    A    
C53   C77   A    
C59   C60   A    
C83   O23   D    
O16   C8    A    
O2    C3    A    
C81   O21   D    
C55   C79   A    
C84   O24   D    
C19   C51   A    
O5    C8    A    
C33   C41   A    
C4    C13   S    
O10   C2    A    
C86   O26   D    
O6    C7    A    
C85   O25   D    
O7    C6    A    
H24   C72   S    
C38   C85   S    
O15   V4    S    
O14   C6    A    
C62   C69   A    
C36   C83   S    
O20   V2    S    
C61   C70   A    
C18   N2    S    
H20   C68   S    
H11   C28   S    
N7    H38   S    
C67   C75   A    
C58   C65   A    
O7    V2    S    
C43   C59   A    
C57   C66   A    
C42   C58   A    
N6    H36   S    
C45   C53   A    
H8    C80   S    
O13   V3    S    
C44   C52   A    
O1    V3    S    
O14   V4    S    
C24   C56   A    
O2    V4    S    
O5    V1    S    
C46   C62   A    
H19   C67   S    
C41   C49   A    
C63   C72   A    
H18   C66   S    
C1    C16   S    
C19   N3    S    
C2    C15   S    
C20   C52   A    
C3    C14   S    
C87   O27   D    
C83   H43   S    
C56   C80   A    
C5    C12   S    
O11   C3    A    
C6    C11   S    
C22   C54   A    
H17   C65   S    
O17   V3    S    
H16   C31   S    
O18   V4    S    
C36   C44   A    
O19   V1    S    
C13   C37   A    
H2    C74   S    
H1    C73   S    
C86   H46   S    
C35   C84   S    
C24   N8    S    
C48   C56   A    
C9    C33   A    
C19   C27   A    
H5    C77   S    
H22   C70   S    
C11   C27   A    
C10   C26   A    
H7    C79   S    
N1    H25   S    
C57   C58   A    
C51   C75   A    
C50   C74   A    
C39   C88   S    
C23   C55   A    
C16   C40   A    
C68   C76   A    
C15   C39   A    
C37   C86   S    
C14   C30   A    
O3    C2    A    
C52   C76   A    
N6    H35   S    
C54   C78   A    
C7    C10   S    
C64   C71   A    
C17   N1    S    
C72   C80   A    
O15   C7    A    
N4    H32   S    
H14   C29   S    
C21   C53   A    
C20   C28   A    
C35   C43   A    
H13   C30   S    
C22   N6    S    
C34   C42   A    
H15   C32   S    
C18   C50   A    
C10   C34   A    
C17   C49   A    
C24   C32   A    
C47   C63   A    
C61   C62   A    
C12   C36   A    
C82   O22   D    
C48   C64   A    
C12   C28   A    
N8    H40   S    
C88   O28   D    
C59   C68   A    
H4    C76   S    
N4    H31   S    
H10   C25   S    
C66   C74   A    
H9    C26   S    
H23   C71   S    
C65   C73   A    
C46   C54   A    
N2    H28   S    
C41   C57   A    
C40   C87   S    
N8    H39   S    
O11   V2    S    
C70   C78   A    
C43   C51   A    
C81   H41   S    
N5    H33   S    
C69   C77   A    
C42   C50   A    
C45   C61   A    
N1    H26   S    
O4    V3    S    
C71   C79   A    
