data_mof_unit_13843.cif
_audit_creation_date              2012-12-11T20:57:53-0500
_audit_creation_method            fapswitch 2.2
_symmetry_space_group_name_H-M    P1
_symmetry_Int_Tables_number       1
_space_group_crystal_system       triclinic
_cell_length_a                    8.350158
_cell_length_b                    18.866512
_cell_length_c                    22.909678
_cell_angle_alpha                 100.231709
_cell_angle_beta                  90.610806
_cell_angle_gamma                 91.558967
_cell_volume                      3550.00328052

loop_
_atom_site_label
_atom_site_type_symbol
_atom_type_description
_atom_site_fract_x
_atom_site_fract_y
_atom_site_fract_z
_atom_type_partial_charge
Ba1   Ba    Ba6+2 0.157800 0.534120 0.474430 1.671498
Ba2   Ba    Ba6+2 0.652390 0.465870 0.525520 1.665801
C1    C     C_3   0.369407 0.757249 0.270518 -0.365554
C2    C     C_R   0.080696 0.903975 0.552374 -0.110461
C3    C     C_R   0.171288 0.061080 0.577201 0.125473
C4    C     C_3   0.874415 0.714159 0.306485 0.392851
C5    C     C_R   0.039510 0.030186 0.539866 0.003595
C6    C     C_R   0.234072 0.129023 0.572816 -0.090934
C7    C     C_R   0.157110 0.174033 0.540000 -0.064584
C8    C     C_R   0.014444 0.148608 0.508453 -0.008469
C9    C     C_R   0.956832 0.076200 0.507531 0.002686
C10   C     C_R   0.213002 0.245724 0.541445 0.010126
C11   C     C_R   0.116564 0.293454 0.517396 -0.251289
C12   C     C_3   0.424079 0.726171 0.324485 0.437167
C13   C     C_R   0.979123 0.269286 0.483499 0.043237
C14   C     C_R   0.930055 0.195359 0.477428 -0.044620
C15   C     C_R   0.837416 0.932539 0.505239 0.024840
C16   C     C_3   0.920166 0.779674 0.276459 0.173257
C17   C     C_R   0.779357 0.859310 0.502207 -0.007502
C18   C     C_R   0.874766 0.809410 0.526380 -0.037132
C19   C     C_R   0.023799 0.834272 0.551346 -0.039964
C20   C     C_R   0.799260 0.166522 0.441317 -0.032870
C21   C     C_R   0.742336 0.096405 0.440502 -0.080865
C22   C     C_R   0.813910 0.051108 0.475632 0.024306
C23   C     C_3   0.528477 0.694822 0.632922 0.402829
C24   C     C_R   0.748322 0.981270 0.478672 0.000666
C25   C     C_R   0.593957 0.959343 0.456870 -0.118634
C26   C     C_R   0.627197 0.836539 0.475133 -0.007712
C27   C     C_R   0.532606 0.889429 0.455206 0.102742
C28   C     C_3   0.773914 0.336607 0.333201 0.383020
C29   C     C_R   0.578784 0.762189 0.469117 0.022430
C30   C     C_R   0.679739 0.713816 0.491169 -0.243399
C31   C     C_R   0.822703 0.735819 0.522263 0.001541
C32   C     C_R   0.646070 0.520772 0.333640 -0.288519
C33   C     C_R   0.457906 0.535103 0.935992 -0.026657
C34   C     C_3   0.581977 0.766087 0.671592 -0.319769
C35   C     C_R   0.426690 0.523525 0.873910 0.615876
C36   C     C_R   0.227603 0.433129 0.883541 0.583536
C37   C     C_R   0.288878 0.429881 0.940597 -0.007449
C38   C     C_R   0.396065 0.484410 0.968363 -0.089192
C39   C     C_R   0.552442 0.594408 0.966077 0.129995
C40   C     C_3   0.683654 0.273857 0.290387 0.157028
C41   C     C_R   0.581041 0.602554 0.028166 0.126604
C42   C     C_R   0.525802 0.548598 0.059705 -0.031344
C43   C     C_R   0.441496 0.487709 0.028557 -0.091785
C44   C     C_R   0.241812 0.374393 0.971137 -0.062607
C45   C     C_3   0.870097 0.267369 0.642034 0.342647
C46   C     C_R   0.304121 0.372483 0.027669 -0.068144
C47   C     C_R   0.402184 0.429693 0.057357 -0.010578
C48   C     C_R   0.462625 0.430347 0.115093 0.575741
C49   C     C_R   0.549922 0.553570 0.121764 0.642702
C50   C     C_2   0.154442 0.423291 0.753246 -0.115522
C51   C     C_3   0.107492 0.423581 0.688933 -0.043473
C52   C     C_3   0.006328 0.741098 0.660537 0.317072
C53   C     C_1   0.288726 0.526318 0.693940 -0.016182
C54   C     C_2   0.308536 0.534687 0.752072 -0.099800
C55   C     C_2   0.250242 0.476810 0.785472 0.190236
C56   C     C_3   0.828168 0.192655 0.656231 -0.082553
C57   C     C_R   0.722475 0.525735 0.232311 0.094979
C58   C     C_R   0.755913 0.541964 0.293816 -0.053435
C59   C     C_R   0.501202 0.485537 0.313654 0.077730
C60   C     C_R   0.457209 0.477973 0.252978 0.035710
C61   C     C_R   0.568789 0.497900 0.211304 0.221153
C62   C     C_2   0.160978 0.491752 0.668091 -0.023698
C63   C     C_3   0.005994 0.747576 0.728039 -0.093393
C64   C     C_3   0.275075 0.309184 0.375223 0.393023
C65   C     C_3   0.221453 0.237903 0.335283 -0.047332
C66   C     C_3   0.409473 0.300107 0.683359 0.413080
C67   C     C_3   0.449022 0.270717 0.740658 -0.096933
C68   C     C_R   0.986160 0.956242 0.533744 0.011204
H1    H     H_    0.590274 0.251289 0.316497 0.090289
H2    H     H_    0.516733 0.639177 0.270711 0.148073
H3    H     H_    0.332478 0.624152 0.294818 0.230215
H4    H     H_    0.541368 0.344501 0.256163 0.181553
H5    H     H_    0.690449 0.313048 0.211637 0.215894
H6    H     H_    0.877014 0.233321 0.241766 0.201854
H7    H     H_    0.838823 0.192971 0.301296 0.189739
H8    H     H_    0.131684 0.748914 0.647403 0.048106
H9    H     H_    0.890887 0.726321 0.742841 0.093204
H10   H     H_    0.019290 0.805556 0.748377 0.065381
H11   H     H_    0.109821 0.653969 0.738086 0.174265
H12   H     H_    0.931034 0.784119 0.648891 -0.077177
H13   H     H_    0.145480 0.722101 0.794423 0.180269
H14   H     H_    0.393910 0.340418 0.454046 0.223561
H15   H     H_    0.455482 0.262279 0.414346 0.186847
H16   H     H_    0.255253 0.730629 0.252442 0.142435
H17   H     H_    0.270154 0.266084 0.254727 0.223688
H18   H     H_    0.136729 0.198753 0.252216 0.170998
H19   H     H_    0.120777 0.212879 0.356541 0.070838
H20   H     H_    0.321076 0.199338 0.330268 0.063255
H21   H     H_    0.539020 0.753563 0.340201 0.004725
H22   H     H_    0.459057 0.747560 0.234904 0.104990
H23   H     H_    0.169009 0.341387 0.388561 0.078612
H24   H     H_    0.636408 0.663188 0.620142 0.061652
H25   H     H_    0.351186 0.742644 0.592279 0.180335
H26   H     H_    0.407082 0.662083 0.554322 0.217327
H27   H     H_    0.647131 0.755906 0.711456 0.098197
H28   H     H_    0.659960 0.797645 0.646092 0.058878
H29   H     H_    0.476253 0.798648 0.686558 0.118118
H30   H     H_    0.695885 0.822887 0.285676 0.172085
H31   H     H_    0.727563 0.770364 0.218819 0.183004
H32   H     H_    0.808062 0.271902 0.599745 0.071621
H33   H     H_    0.001678 0.271805 0.636101 -0.097837
H34   H     H_    0.353538 0.816202 0.282981 0.105699
H35   H     H_    0.831541 0.151812 0.614956 0.068797
H36   H     H_    0.050567 0.165411 0.680000 0.180460
H37   H     H_    0.950600 0.215101 0.736034 0.209808
H38   H     H_    0.705237 0.190874 0.673273 0.153446
H39   H     H_    0.277670 0.294381 0.675808 -0.028874
H40   H     H_    0.494759 0.397545 0.734429 0.165780
H41   H     H_    0.556927 0.383192 0.664979 0.262815
H42   H     H_    0.390650 0.304167 0.779040 0.078271
H43   H     H_    0.580160 0.275069 0.749614 0.154823
H44   H     H_    0.755446 0.696174 0.379416 0.114270
H45   H     H_    0.336673 0.148537 0.600399 0.106741
H46   H     H_    0.921020 0.748861 0.395532 0.210213
H47   H     H_    0.437782 0.164067 0.699295 0.206939
H48   H     H_    0.270216 0.193540 0.735586 0.182514
H49   H     H_    0.156202 0.349138 0.520949 0.077146
H50   H     H_    0.104164 0.800062 0.568744 0.085110
H51   H     H_    0.738041 0.197533 0.413117 0.078526
H52   H     H_    0.296562 0.910154 0.459707 0.173741
H53   H     H_    0.365427 0.885439 0.390367 0.169909
H54   H     H_    0.136447 0.002679 0.644607 0.190273
H55   H     H_    0.330971 0.004498 0.617863 0.171439
H56   H     H_    0.642786 0.657605 0.485913 0.061472
H57   H     H_    0.204018 0.914448 0.565624 0.073654
H58   H     H_    0.643011 0.078400 0.410561 0.060839
H59   H     H_    0.775201 0.683907 0.279474 -0.016732
H60   H     H_    0.161064 0.330992 0.950549 0.120604
H61   H     H_    0.785882 0.664567 0.039799 0.170618
H62   H     H_    0.614081 0.710796 0.053838 0.176366
H63   H     H_    0.884714 0.589728 0.199089 0.194168
H64   H     H_    0.939208 0.503097 0.195933 0.182096
H65   H     H_    0.737030 0.651807 0.938246 0.182923
H66   H     H_    0.565229 0.697990 0.952372 0.164391
H67   H     H_    0.513898 0.996817 0.442215 0.072799
H68   H     H_    0.336971 0.588642 0.775750 0.122118
H69   H     H_    0.121840 0.374090 0.768463 0.131107
H70   H     H_    0.254440 0.476919 0.201480 0.181065
H71   H     H_    0.297589 0.395924 0.221505 0.212421
H72   H     H_    0.677287 0.528530 0.380346 0.080422
H73   H     H_    0.098833 0.815579 0.338371 0.221311
H74   H     H_    0.930308 0.862548 0.349052 0.191731
H75   H     H_    0.102610 0.563769 0.614410 0.208951
H76   H     H_    0.980126 0.560987 0.672357 0.191398
H77   H     H_    0.998668 0.760337 0.238455 0.100807
H78   H     H_    0.269891 0.327680 0.049069 0.118210
H79   H     H_    0.913492 0.425659 0.330417 0.195195
H80   H     H_    0.949528 0.357120 0.275590 0.202665
H81   H     H_    0.684524 0.368335 0.361317 0.026614
N1    N     N_R   0.301240 0.477381 0.848073 -0.429775
N2    N     N_3   0.779479 0.809519 0.252194 -0.485445
N3    N     N_3   0.938918 0.172754 0.699832 -0.491916
N4    N     N_3   0.458007 0.376752 0.690844 -0.504430
N5    N     N_3   0.821156 0.738736 0.366993 -0.529338
N6    N     N_3   0.395009 0.195870 0.737626 -0.485434
N7    N     N_3   0.371826 0.874638 0.433539 -0.464342
N8    N     N_3   0.226079 0.032843 0.627872 -0.515692
N9    N     N_3   0.672571 0.663861 0.058644 -0.444551
N10   N     N_3   0.843642 0.536029 0.190424 -0.467209
N11   N     N_3   0.612190 0.648297 0.934119 -0.442448
N12   N     N_R   0.525826 0.493596 0.148582 -0.423049
N13   N     N_3   0.298127 0.451685 0.235230 -0.445864
N14   N     N_3   0.007474 0.837460 0.316563 -0.481134
N15   N     N_3   0.045896 0.529784 0.639293 -0.430714
N16   N     N_3   0.857694 0.384783 0.299632 -0.540943
N17   N     N_3   0.444010 0.648634 0.307839 -0.507946
N18   N     N_3   0.604395 0.298487 0.240525 -0.454725
N19   N     N_3   0.787016 0.214396 0.266757 -0.473966
N20   N     N_3   0.138904 0.708951 0.748143 -0.471635
N21   N     N_3   0.354608 0.292268 0.427527 -0.541569
N22   N     N_3   0.170690 0.249263 0.276584 -0.493221
N23   N     N_3   0.448790 0.710299 0.580084 -0.530828
O1    O     O_2   0.110690 0.676100 0.539200 -0.482522
O2    O     O_2   0.785449 0.463019 0.709732 -0.457983
O3    O     O_3   0.818423 0.321486 0.687806 -0.614052
O4    O     O_3   0.863220 0.586720 0.534720 -0.448406
O5    O     O_3   0.450900 0.461390 0.429220 -0.492052
O6    O     O_2   0.599830 0.538970 0.641850 -0.444437
O7    O     O_3   0.420902 0.659658 0.665590 -0.625841
O8    O     O_2   0.540462 0.242474 0.522170 -0.479774
O9    O     O_3   0.489932 0.259805 0.635239 -0.620952
O10   O     O_2   0.515911 0.552684 0.843014 -0.559995
O11   O     O_2   0.106229 0.397703 0.866834 -0.597419
O12   O     O_3   0.383240 0.345705 0.344097 -0.669183
O13   O     O_2   0.460179 0.374618 0.135216 -0.604093
O14   O     O_2   0.590565 0.611359 0.152067 -0.591758
O15   O     O_3   0.368310 0.629070 0.432760 -0.456201
O16   O     O_2   0.251212 0.752222 0.478849 -0.458265
O17   O     O_3   0.944827 0.673022 0.633434 -0.643402
O18   O     O_3   0.308782 0.740306 0.368734 -0.549349
O19   O     O_2   0.210480 0.460990 0.358130 -0.440196
O20   O     O_3   0.959520 0.592090 0.401630 -0.457501
O21   O     O_2   0.084674 0.537865 0.298820 -0.461725
O22   O     O_3   0.007143 0.669609 0.306689 -0.592887
O23   O     O_2   0.699610 0.323860 0.460780 -0.487887
O24   O     O_3   0.947090 0.413280 0.465240 -0.478426
O25   O     O_3   0.442000 0.370930 0.567190 -0.474551
O26   O     O_3   0.887334 0.307329 0.367022 -0.668403
O27   O     O_3   0.359410 0.538600 0.570730 -0.480861
O28   O     O_3   0.850780 0.407910 0.598320 -0.455419
P1    P     P_3+3 0.935930 0.665430 0.555670 0.975064
P2    P     P_3+3 0.382700 0.439650 0.365620 0.992683
P3    P     P_3+3 0.947569 0.585818 0.324453 0.966980
P4    P     P_3+3 0.874370 0.334570 0.444280 0.949635
P5    P     P_3+3 0.888971 0.404622 0.673021 0.979488
P6    P     P_3+3 0.383260 0.721969 0.436165 1.015112
P7    P     P_3+3 0.421581 0.565468 0.644664 0.977834
P8    P     P_3+3 0.418365 0.278786 0.567425 0.928840

loop_
_geom_bond_atom_site_label_1
_geom_bond_atom_site_label_2
_ccdc_geom_bond_type
C1    H34   S    
H30   N2    S    
C28   O26   S    
C53   C54   D    
C55   N1    S    
C66   O9    S    
C63   H9    S    
O24   P4    S    
Ba2   O23   S    
O18   P6    S    
C17   C18   A    
H79   N16   S    
O8    P8    D    
C66   N4    S    
Ba1   O27   S    
C5    C68   A    
C2    C68   A    
C52   C63   S    
H66   N11   S    
C42   C43   A    
O9    P8    S    
C61   N12   S    
C10   C11   A    
C67   H43   S    
C24   C25   A    
H62   N9    S    
O19   P2    D    
Ba2   O6    S    
C63   N20   S    
C15   C24   A    
O2    P5    D    
C64   N21   S    
C26   C27   A    
C33   C35   A    
H25   N23   S    
C22   C24   A    
C28   N16   S    
C19   H50   S    
H3    N17   S    
C59   P2    S    
C36   C37   A    
C51   C62   S    
C58   P3    S    
C25   C27   A    
O15   P6    S    
C13   C14   A    
H54   N8    S    
C9    C22   A    
C65   H19   S    
C50   H69   S    
C54   C55   S    
O7    P7    S    
Ba1   Ba2   S    
C30   H56   S    
O22   P3    S    
H73   N14   S    
H4    N18   S    
C62   N15   S    
H40   N4    S    
C40   N19   S    
C6    H45   S    
C51   P5    S    
C66   C67   S    
C23   N23   S    
C60   N13   S    
Ba1   O24   S    
C40   H1    S    
H7    N19   S    
H36   N3    S    
H13   N20   S    
H5    N18   S    
C67   N6    S    
C21   C22   A    
C49   N12   Am   
C34   H27   S    
Ba2   P4    S    
C43   C47   A    
C56   N3    S    
C7    C8    A    
C39   C41   A    
C12   O18   S    
H11   N20   S    
C64   C65   S    
H76   N15   S    
C23   H24   S    
C63   H10   S    
O4    P1    S    
C1    H16   S    
C32   C58   A    
H2    N17   S    
O23   P4    D    
C59   C60   A    
Ba2   O27   S    
O17   P1    S    
C4    H59   S    
H17   N22   S    
C48   O13   D    
O27   P7    S    
C11   H49   S    
C16   N14   S    
C23   O7    S    
C49   O14   D    
H75   N15   S    
C38   C43   A    
C4    C16   S    
C44   C46   A    
H15   N21   S    
C45   H33   S    
C52   O17   S    
H47   N6    S    
Ba2   O25   S    
C13   P4    S    
C32   H72   S    
C16   H77   S    
C8    C9    A    
C37   C38   A    
C3    C5    A    
C6    C7    A    
C3    N8    S    
C35   O10   D    
C31   P1    S    
C65   H20   S    
H18   N22   S    
O3    P5    S    
C1    H22   S    
Ba1   O19   S    
C41   C42   A    
C57   C58   A    
C60   C61   A    
C57   N10   S    
C40   N18   S    
C53   P7    S    
C54   H68   S    
Ba1   O4    S    
C5    C9    A    
C29   C30   A    
O21   P3    D    
C11   C13   A    
H31   N2    S    
C53   C62   D    
H52   N7    S    
O12   P2    S    
C25   H67   S    
O5    P2    S    
H6    N19   S    
C17   C26   A    
C16   N2    S    
C1    C12   S    
H26   N23   S    
C37   C44   A    
C18   C31   A    
C42   C49   A    
O16   P6    D    
C46   C47   A    
C41   N9    S    
O28   P5    S    
C64   H23   S    
H65   N11   S    
Ba2   O5    S    
C35   N1    Am   
C12   N17   S    
Ba1   P1    S    
C52   H12   S    
C50   C51   S    
C20   H51   S    
O20   P3    S    
Ba1   O1    S    
C14   C20   A    
C2    H57   S    
C48   N12   Am   
Ba2   O24   S    
H44   N5    S    
C26   C29   A    
H14   N21   S    
H63   N10   S    
C44   H60   S    
C3    C6    A    
H55   N8    S    
C27   N7    S    
H53   N7    S    
H70   N13   S    
C36   O11   D    
C57   C61   A    
H64   N10   S    
H74   N14   S    
C56   H35   S    
C30   C31   A    
O25   P8    S    
C64   O12   S    
Ba1   O20   S    
O1    P1    D    
C29   P6    S    
C36   N1    Am   
C8    C14   A    
C4    O22   S    
C45   C56   S    
C2    C19   A    
Ba1   O5    S    
C28   H81   S    
C65   N22   S    
H80   N16   S    
C46   H78   S    
Ba2   O28   S    
C67   H42   S    
C33   C38   A    
C34   H29   S    
C56   H38   S    
C66   H39   S    
C32   C59   A    
H61   N9    S    
C33   C39   A    
C7    C10   A    
O26   P4    S    
C12   H21   S    
H46   N5    S    
H37   N3    S    
C50   C55   D    
C23   C34   S    
C10   P8    S    
C15   C17   A    
C15   C68   A    
C18   C19   A    
H71   N13   S    
C45   O3    S    
C47   C48   A    
O6    P7    D    
C45   H32   S    
C20   C21   A    
C28   C40   S    
H48   N6    S    
C34   H28   S    
Ba2   O4    S    
C39   N11   S    
Ba1   P2    S    
H41   N4    S    
C4    N5    S    
C21   H58   S    
C52   H8    S    
Ba1   O15   S    
