data_mof_unit_39158.cif
_audit_creation_date              2013-03-05T16:37:43-0500
_audit_creation_method            fapswitch 2.2
_symmetry_space_group_name_H-M    P1
_symmetry_Int_Tables_number       1
_space_group_crystal_system       triclinic
_cell_length_a                    18.458245
_cell_length_b                    18.620216
_cell_length_c                    19.069492
_cell_angle_alpha                 109.986323
_cell_angle_beta                  109.468001
_cell_angle_gamma                 108.61629
_cell_volume                      5066.05614953

loop_
_atom_site_label
_atom_site_type_symbol
_atom_site_description
_atom_site_fract_x
_atom_site_fract_y
_atom_site_fract_z
_atom_type_partial_charge
O1    O     O_R   0.408360 0.551710 0.460090 -0.631007
O2    O     O_R   0.408390 0.448280 0.356670 -0.611349
C1    C     C_R   0.380973 0.502040 0.380819 0.888747
O3    O     O_R   0.591600 0.643340 0.551710 -0.628469
O4    O     O_R   0.591630 0.539900 0.448290 -0.627462
C2    C     C_R   0.620057 0.620278 0.499966 0.870720
Zn1   Zn    Zn3+2 0.499980 0.569070 0.569050 1.037852
Zn2   Zn    Zn3+2 0.500020 0.430930 0.430950 1.034343
O5    O     O_R   0.591610 0.551720 0.643330 -0.607410
O6    O     O_R   0.591640 0.448290 0.539910 -0.614710
O7    O     O_R   0.408370 0.460100 0.551710 -0.605229
O8    O     O_R   0.408400 0.356660 0.448290 -0.575091
C3    C     C_R   0.622561 0.501267 0.619193 0.883254
C4    C     C_R   0.379025 0.379952 0.499216 0.944579
H1    H     H_    0.809024 0.766958 0.872760 0.160573
C5    C     C_R   0.761539 0.813224 0.787775 -0.022375
H2    H     H_    0.740362 0.849156 0.826662 0.175002
C6    C     C_R   0.749667 0.812723 0.711232 -0.045684
H3    H     H_    0.718582 0.847790 0.690683 0.141260
C7    C     C_R   0.776182 0.765066 0.660562 0.098769
C8    C     C_R   0.816004 0.719850 0.687299 -0.143037
H4    H     H_    0.836868 0.683220 0.648532 0.173410
C9    C     C_R   0.828047 0.720770 0.763541 -0.155753
H5    H     H_    0.858326 0.684765 0.782103 0.146536
C10   C     C_R   0.800441 0.766927 0.813820 -0.089887
C11   C     C_R   0.822740 0.820219 0.574972 -0.201725
H6    H     H_    0.881075 0.874472 0.634688 0.194679
C12   C     C_R   0.811201 0.812491 0.496256 -0.109955
C13   C     C_R   0.735190 0.742873 0.418256 0.062556
C14   C     C_R   0.674125 0.678632 0.420744 -0.178179
H7    H     H_    0.616384 0.623402 0.361311 0.215732
C15   C     C_R   0.685850 0.686773 0.499762 -0.114897
C16   C     C_R   0.759368 0.758628 0.577341 -0.015031
C17   C     C_R   0.668632 0.772934 0.302140 -0.249404
H8    H     H_    0.642942 0.805069 0.338215 0.205538
C18   C     C_R   0.654027 0.769513 0.224107 0.571113
C19   C     C_R   0.687389 0.728896 0.177067 0.540112
C20   C     C_R   0.735440 0.690387 0.207778 0.173674
C21   C     C_R   0.749813 0.694493 0.286673 -0.350949
H9    H     H_    0.786453 0.665724 0.311704 0.197884
C22   C     C_R   0.717379 0.736248 0.334159 -0.006353
H10   H     H_    0.601777 0.891889 0.588741 0.198932
C23   C     C_R   0.466320 0.798897 0.536446 -0.200553
H11   H     H_    0.461630 0.836666 0.590634 0.197792
C24   C     C_R   0.393279 0.719171 0.467526 0.660550
C25   C     C_R   0.399324 0.669739 0.397354 -0.116325
C26   C     C_R   0.478702 0.701912 0.396255 0.609286
C27   C     C_R   0.551358 0.781986 0.465158 -0.206787
H12   H     H_    0.612360 0.807014 0.464174 0.173438
C28   C     C_R   0.545355 0.830113 0.535396 -0.289407
C29   C     C_R   0.256374 0.583232 0.259831 0.297596
C30   C     C_R   0.187131 0.501831 0.187561 -0.170651
C31   C     C_R   0.181788 0.421967 0.180125 0.181151
C32   C     C_R   0.246053 0.424616 0.245728 -0.134205
H13   H     H_    0.242751 0.363733 0.240922 0.165684
C33   C     C_R   0.315572 0.504639 0.316530 -0.126875
C34   C     C_R   0.322365 0.584758 0.324234 0.032870
C35   C     C_R   0.054473 0.270778 0.108729 0.516983
C36   C     C_R   0.991018 0.187669 0.035868 0.123951
C37   C     C_R   0.988596 0.167965 0.956280 0.117364
C38   C     C_R   0.047565 0.232610 0.950972 -0.288829
H14   H     H_    0.047108 0.217614 0.890837 0.255833
C39   C     C_R   0.109571 0.315137 0.023217 0.562709
C40   C     C_R   0.113428 0.335019 0.102617 -0.218680
C41   C     C_R   0.237989 0.537367 0.560548 -0.361012
H15   H     H_    0.263739 0.598372 0.617865 0.251130
C42   C     C_R   0.256935 0.472393 0.568944 0.322003
C43   C     C_R   0.222270 0.392038 0.493771 -0.098591
C44   C     C_R   0.170714 0.379571 0.413057 -0.357830
H16   H     H_    0.144444 0.318695 0.355239 0.242796
C45   C     C_R   0.152031 0.444601 0.405855 0.652069
C46   C     C_R   0.184797 0.524067 0.479790 0.217686
C47   C     C_R   0.174670 0.252890 0.494851 -0.188763
H17   H     H_    0.116207 0.255944 0.492443 0.174567
C48   C     C_R   0.187237 0.183758 0.498263 -0.199580
C49   C     C_R   0.263157 0.179206 0.502656 -0.074945
C50   C     C_R   0.325878 0.244919 0.502953 0.576566
C51   C     C_R   0.313116 0.314111 0.499672 -0.210962
C52   C     C_R   0.238008 0.319542 0.497065 0.061814
C53   C     C_R   0.343327 0.120048 0.579260 -0.183166
H18   H     H_    0.381807 0.183847 0.636991 0.163527
C54   C     C_R   0.359995 0.052000 0.579781 0.585890
C55   C     C_R   0.311677 0.969807 0.505245 -0.295146
H19   H     H_    0.325205 0.917399 0.505470 0.212409
C56   C     C_R   0.246167 0.955320 0.430261 0.610023
C57   C     C_R   0.228503 0.022916 0.429784 -0.259470
H20   H     H_    0.178063 0.011309 0.371245 0.151030
C58   C     C_R   0.277454 0.105839 0.504247 0.043649
H21   H     H_    0.625359 0.501878 0.758182 0.190935
C59   C     C_R   0.776357 0.499914 0.605983 -0.199503
H22   H     H_    0.735633 0.511691 0.560513 0.154512
C60   C     C_R   0.845245 0.490968 0.596700 -0.054022
H23   H     H_    0.854189 0.493172 0.544035 0.164495
C61   C     C_R   0.902482 0.479165 0.654907 -0.097784
H24   H     H_    0.955299 0.471153 0.646944 0.158950
C62   C     C_R   0.892251 0.478207 0.723779 -0.190881
H25   H     H_    0.937387 0.467210 0.766388 0.156238
C63   C     C_R   0.823460 0.488385 0.735133 0.088651
C64   C     C_R   0.762485 0.495525 0.673465 0.069911
C65   C     C_R   0.690759 0.500122 0.682677 -0.112949
C66   C     C_R   0.680769 0.499193 0.751766 -0.176092
H26   H     H_    0.733759 0.495718 0.867234 0.188417
C67   C     C_R   0.741340 0.494085 0.812813 -0.221970
C68   C     C_R   0.813087 0.490596 0.805919 -0.112365
O9    O     O_R   0.051730 0.908360 0.460070 -0.638157
O10   O     O_R   0.948280 0.908380 0.356650 -0.613216
C69   C     C_R   0.999256 0.877886 0.381035 0.849326
O11   O     O_R   0.960110 0.908350 0.551690 -0.614999
O12   O     O_R   0.856660 0.908370 0.448270 -0.620088
C70   C     C_R   0.879223 0.878534 0.497987 0.888788
Zn3   Zn    Zn3+2 0.069080 0.999960 0.569030 0.993100
Zn4   Zn    Zn3+2 0.930920 0.999990 0.430930 1.021822
O13   O     O_R   0.051720 0.091580 0.643310 -0.600985
O14   O     O_R   0.948270 0.091600 0.539890 -0.625343
O15   O     O_R   0.143340 0.091590 0.551680 -0.622628
O16   O     O_R   0.039890 0.091610 0.448270 -0.609442
C71   C     C_R   0.000551 0.121454 0.619333 0.873777
C72   C     C_R   0.120565 0.118486 0.498801 0.898434
O17   O     O_R   0.051710 0.460040 0.908380 -0.617833
O18   O     O_R   0.948270 0.356620 0.908410 -0.634625
C73   C     C_R   0.998063 0.379789 0.878087 0.885692
O19   O     O_R   0.143330 0.551680 0.091590 -0.563025
O20   O     O_R   0.039890 0.448260 0.091620 -0.615319
C74   C     C_R   0.120468 0.500516 0.120361 0.973239
Zn5   Zn    Zn3+2 0.069060 0.569020 0.999970 1.087830
Zn6   Zn    Zn3+2 0.930920 0.430910 0.000010 1.042287
O21   O     O_R   0.051700 0.643310 0.091570 -0.584142
O22   O     O_R   0.948260 0.539890 0.091600 -0.605535
O23   O     O_R   0.960080 0.551670 0.908360 -0.629294
O24   O     O_R   0.856640 0.448250 0.908390 -0.611636
C75   C     C_R   0.000410 0.620279 0.120440 0.884358
C76   C     C_R   0.879609 0.496445 0.877010 0.839463
C77   C     C_R   0.111464 0.783769 0.553374 -0.137796
H27   H     H_    0.173990 0.828366 0.612378 0.186503
C78   C     C_R   0.102264 0.787520 0.479195 -0.050370
H28   H     H_    0.157555 0.834707 0.482236 0.165083
C79   C     C_R   0.021284 0.733064 0.402355 0.098865
C80   C     C_R   0.951905 0.669641 0.398838 -0.214949
H29   H     H_    0.890733 0.623705 0.338927 0.189750
C81   C     C_R   0.960981 0.665421 0.472911 -0.199853
H30   H     H_    0.905746 0.616971 0.468856 0.174258
C82   C     C_R   0.040548 0.723386 0.551345 0.393119
C83   C     C_R   0.006158 0.677744 0.258086 -0.035207
H31   H     H_    0.009711 0.622019 0.261887 0.184720
C84   C     C_R   0.001177 0.686817 0.187150 -0.029846
C85   C     C_R   0.000639 0.760564 0.182727 0.056011
C86   C     C_R   0.999626 0.821934 0.247607 -0.146845
H32   H     H_    0.996819 0.877886 0.243696 0.152417
C87   C     C_R   0.003012 0.812456 0.317751 -0.069148
C88   C     C_R   0.010017 0.741803 0.325572 0.034401
C89   C     C_R   0.066639 0.849690 0.125822 -0.107511
H33   H     H_    0.119702 0.899033 0.190653 0.160819
C90   C     C_R   0.066808 0.860615 0.056911 -0.094519
H34   H     H_    0.119270 0.918329 0.068539 0.159255
C91   C     C_R   0.999724 0.796448 0.972923 -0.088179
H35   H     H_    0.000455 0.804447 0.919541 0.161731
C92   C     C_R   0.931865 0.722127 0.958174 -0.139757
H36   H     H_    0.879773 0.671900 0.894094 0.134404
C93   C     C_R   0.930810 0.711447 0.026551 -0.081019
H37   H     H_    0.877681 0.653425 0.013812 0.145164
C94   C     C_R   0.999057 0.774291 0.110659 0.098454
H38   H     H_    0.394831 0.286535 0.804431 0.179550
C95   C     C_R   0.305387 0.274853 0.854246 -0.182559
H39   H     H_    0.347297 0.273350 0.908564 0.184813
C96   C     C_R   0.224211 0.268534 0.842548 0.701389
C97   C     C_R   0.169035 0.269689 0.771578 -0.040915
C98   C     C_R   0.197104 0.278104 0.713374 -0.162451
H40   H     H_    0.155876 0.279441 0.658531 0.147170
C99   C     C_R   0.278211 0.283840 0.725296 -0.032474
H41   H     H_    0.299341 0.289179 0.679979 0.178657
C100  C     C_R   0.332231 0.282234 0.795565 -0.212883
C101  C     C_R   0.078052 0.323132 0.819270 -0.132717
H42   H     H_    0.138914 0.378291 0.875645 0.224958
C102  C     C_R   0.996863 0.314120 0.810262 -0.127010
C103  C     C_R   0.917141 0.244392 0.736664 0.000608
C104  C     C_R   0.920439 0.183481 0.673005 -0.187318
H43   H     H_    0.859522 0.129167 0.615912 0.165060
C105  C     C_R   0.001523 0.190318 0.683883 -0.083711
C106  C     C_R   0.081544 0.260413 0.757462 0.031214
C107  C     C_R   0.788034 0.198593 0.759843 -0.079678
H44   H     H_    0.818519 0.175286 0.799481 0.176288
C108  C     C_R   0.706484 0.192064 0.746924 -0.121377
H45   H     H_    0.674268 0.163730 0.776350 0.169820
C109  C     C_R   0.666594 0.222232 0.696158 -0.061289
H46   H     H_    0.603587 0.217339 0.686384 0.175187
C110  C     C_R   0.707853 0.258283 0.657636 -0.108924
H47   H     H_    0.676812 0.281338 0.618079 0.166871
C111  C     C_R   0.789300 0.264744 0.670295 -0.192518
H48   H     H_    0.820499 0.292241 0.639757 0.148956
C112  C     C_R   0.830437 0.236165 0.722525 0.094695
F1    F     F_    0.671157 0.725947 0.101018 -0.555744
N1    N     N_R   0.768926 0.646834 0.159508 0.236295
O25   O     O_R   0.772698 0.657484 0.096594 -0.338373
O26   O     O_R   0.795642 0.595531 0.177885 -0.421484
F2    F     F_    0.316899 0.690100 0.469144 -0.612503
F3    F     F_    0.484901 0.656447 0.327783 -0.663881
N2    N     N_R   0.258308 0.663773 0.268711 0.219959
O27   O     O_R   0.193793 0.677098 0.270590 -0.346466
O28   O     O_R   0.325666 0.725006 0.277778 -0.329615
F4    F     F_    0.057127 0.289947 0.185143 -0.571754
N3    N     N_R   0.927799 0.125308 0.042678 0.275751
O29   O     O_R   0.844979 0.081341 0.984014 -0.331180
O30   O     O_R   0.951072 0.118274 0.111319 -0.291873
N4    N     N_R   0.930515 0.081729 0.881978 0.258919
O31   O     O_R   0.916252 0.012874 0.890416 -0.346483
O32   O     O_R   0.903019 0.071524 0.805114 -0.423459
F5    F     F_    0.168073 0.374919 0.016610 -0.633209
N5    N     N_R   0.164040 0.590974 0.474001 0.273338
O33   O     O_R   0.196994 0.664998 0.543034 -0.354203
O34   O     O_R   0.112468 0.579101 0.400248 -0.290702
N6    N     N_R   0.312027 0.490130 0.653668 0.238661
O35   O     O_R   0.304627 0.427166 0.670752 -0.414854
O36   O     O_R   0.366504 0.570562 0.716177 -0.343057
F6    F     F_    0.101368 0.429330 0.326535 -0.560489
F7    F     F_    0.399821 0.241896 0.507064 -0.655368
F8    F     F_    0.423771 0.066045 0.652317 -0.655278
F9    F     F_    0.200812 0.876069 0.357686 -0.635734
N7    N     N_R   0.049455 0.720789 0.628215 0.211562
O37   O     O_R   0.124333 0.771538 0.699825 -0.351152
O38   O     O_R   0.982232 0.669175 0.627879 -0.437706
F10   F     F_    0.198697 0.259015 0.899194 -0.642841
F11   F     F_    0.607286 0.805804 0.193937 -0.574741

loop_
_geom_bond_atom_site_label_1
_geom_bond_atom_site_label_2
_geom_bond_distance
_ccdc_geom_bond_type
C24   F2    1.354535 S    
C2    C15   1.433271 S    
C92   H36   1.074178 S    
C91   C92   1.398401 A    
C47   C48   1.397450 A    
C47   H17   1.085256 S    
C32   H13   1.085560 S    
C95   H39   1.082417 S    
Zn4   O16   2.011384 S    
C48   C49   1.407267 A    
C103  C112  1.478196 S    
Zn4   O14   2.028402 S    
C105  C106  1.410588 A    
C59   H22   1.079685 S    
C96   F10   1.355264 S    
C78   H28   1.081733 S    
C21   C22   1.400058 A    
O10   Zn4   2.004658 S    
C50   C51   1.399420 A    
C30   C31   1.412160 A    
Zn1   O7    2.015885 S    
O9    C69   1.274008 A    
C35   F4    1.356037 S    
C11   H6    1.085593 S    
C96   C97   1.408699 A    
C46   N5    1.442772 S    
C55   H19   1.082762 S    
C18   C19   1.399164 A    
C95   C96   1.398354 A    
C19   C20   1.410913 A    
C81   C82   1.406832 A    
C6    H3    1.083224 S    
C44   H16   1.083528 S    
C93   H37   1.083193 S    
C56   C57   1.399433 A    
O4    C2    1.277541 A    
O7    C4    1.274324 A    
O18   Zn6   2.017725 S    
H1    C10   1.081288 S    
O10   C69   1.286044 A    
Zn6   O24   2.026857 S    
C83   H31   1.085288 S    
C83   C84   1.396444 A    
C109  H46   1.082533 S    
C111  C112  1.402840 A    
C17   H8    1.083216 S    
N3    O29   1.301396 A    
C38   C39   1.395766 A    
C56   F9    1.355258 S    
C108  H45   1.082282 S    
C82   N7    1.439111 S    
O5    C3    1.281857 A    
C29   N2    1.437788 S    
C86   H32   1.085671 S    
O1    Zn1   2.032582 S    
C102  C103  1.406691 A    
C59   C60   1.393212 A    
C37   N4    1.438210 S    
C83   C88   1.385390 A    
H38   C100  1.082416 S    
C103  C104  1.384150 A    
C107  C108  1.398858 A    
N5    O33   1.301308 A    
C41   C42   1.405989 A    
C62   C63   1.415592 A    
C26   C27   1.399155 A    
C9    H5    1.075501 S    
C93   C94   1.399208 A    
C42   N6    1.441931 S    
C29   C34   1.396330 A    
C90   C91   1.396906 A    
C95   C100  1.395651 A    
C49   C58   1.479860 S    
C17   C18   1.395660 A    
C55   C56   1.398259 A    
Zn2   O8    2.018402 S    
O23   C76   1.278186 A    
H21   C66   1.084163 S    
C43   C52   1.485498 S    
C104  C105  1.397360 A    
O9    Zn3   2.028320 S    
C36   C37   1.415501 A    
C92   C93   1.389900 A    
C39   F5    1.356528 S    
C8    H4    1.082974 S    
C39   C40   1.401003 A    
C89   C90   1.397610 A    
C77   C78   1.396329 A    
N3    O30   1.301285 A    
C97   C98   1.405437 A    
H26   C67   1.084173 S    
C48   C72   1.433100 S    
O3    Zn1   2.018402 S    
C101  C102  1.397009 A    
C84   C85   1.407198 A    
O21   C75   1.277846 A    
O17   C73   1.277142 A    
C35   C40   1.406202 A    
C85   C94   1.474116 S    
C32   C33   1.392456 A    
C86   C87   1.391732 A    
C44   C45   1.397391 A    
C57   C58   1.404317 A    
C42   C43   1.419225 A    
C99   H41   1.080474 S    
C26   F3    1.356660 S    
O20   C74   1.275704 A    
C81   H30   1.082514 S    
C98   C99   1.399577 A    
O12   Zn4   2.023200 S    
C21   H9    1.078471 S    
C51   C52   1.407722 A    
C5    H2    1.082296 S    
O20   Zn6   2.014718 S    
C12   C70   1.431302 S    
C35   C36   1.409028 A    
C31   C32   1.380537 A    
N2    O27   1.300733 A    
C29   C30   1.411141 A    
C111  H48   1.082593 S    
O1    C1    1.277666 A    
N1    O26   1.301142 A    
O24   C76   1.279244 A    
C23   H11   1.082409 S    
C73   C102  1.432137 S    
C17   C22   1.400130 A    
C13   C14   1.384625 A    
Zn5   O23   2.014840 S    
C1    C33   1.433182 S    
C36   N3    1.437312 S    
C11   C16   1.378314 A    
N7    O38   1.300936 A    
C64   C65   1.417061 A    
C14   H7    1.084589 S    
C89   H33   1.083402 S    
O15   C72   1.281177 A    
C62   H25   1.080608 S    
C7    C8    1.395662 A    
C60   C61   1.389207 A    
C77   C82   1.405673 A    
C61   H24   1.082502 S    
Zn3   O13   2.004784 S    
C49   C50   1.387080 A    
C61   C62   1.392859 A    
C23   C24   1.398616 A    
C80   C81   1.398576 A    
H10   C28   1.082441 S    
C54   F8    1.355829 S    
C7    C16   1.465298 S    
O17   Zn5   2.015026 S    
C101  C106  1.383833 A    
Zn2   O6    2.032582 S    
C104  H43   1.085231 S    
N6    O36   1.301608 A    
N4    O32   1.301660 A    
C41   H15   1.082218 S    
C20   N1    1.440822 S    
C8    C9    1.388754 A    
C25   C34   1.484023 S    
C77   H27   1.082302 S    
C78   C79   1.402215 A    
O13   C71   1.277494 A    
C79   C88   1.481618 S    
O3    C2    1.278207 A    
C33   C34   1.407607 A    
C110  C111  1.398442 A    
C101  H42   1.084509 S    
C41   C46   1.404697 A    
O22   C75   1.278320 A    
C18   F11   1.356135 S    
C59   C64   1.416467 A    
C98   H40   1.082996 S    
C71   C105  1.432259 S    
C50   F7    1.361207 S    
Zn5   O21   2.017848 S    
C85   C86   1.378217 A    
C66   C67   1.374884 A    
C5    C10   1.398443 A    
Zn1   O5    2.009016 S    
C25   C26   1.405242 A    
C12   C13   1.411030 A    
Zn6   O22   2.015108 S    
C13   C22   1.477340 S    
C57   H20   1.083290 S    
C43   C44   1.402479 A    
O2    Zn2   2.009017 S    
O8    C4    1.279999 A    
C53   H18   1.083405 S    
C47   C52   1.383400 A    
O6    C3    1.276910 A    
O4    Zn2   2.015885 S    
Zn3   O15   2.023454 S    
O11   C70   1.284167 A    
C23   C28   1.397331 A    
C45   F6    1.355228 S    
C79   C80   1.400771 A    
C11   C12   1.392467 A    
C109  C110  1.397806 A    
O11   Zn3   2.011297 S    
C15   C16   1.403492 A    
O19   Zn5   2.026777 S    
N2    O28   1.300992 A    
O2    C1    1.278234 A    
C110  H47   1.082534 S    
C45   C46   1.406131 A    
C53   C58   1.403976 A    
N5    O34   1.301449 A    
C107  C112  1.403735 A    
O12   C70   1.274952 A    
N1    O25   1.301152 A    
C14   C15   1.394956 A    
C30   C74   1.437040 S    
C89   C94   1.405238 A    
N7    O37   1.301530 A    
C20   C21   1.407865 A    
C3    C65   1.438612 S    
C27   H12   1.081853 S    
C27   C28   1.396846 A    
C60   H23   1.082536 S    
C31   C40   1.488181 S    
C53   C54   1.398455 A    
O16   C72   1.278498 A    
C75   C84   1.432780 S    
C6    C7    1.402475 A    
C4    C51   1.430100 S    
C38   H14   1.079919 S    
C108  C109  1.398404 A    
O14   C71   1.281659 A    
C80   H29   1.080413 S    
N6    O35   1.299170 A    
C69   C87   1.431817 S    
C24   C25   1.404786 A    
C9    C10   1.399827 A    
C67   C68   1.393015 A    
N4    O31   1.301047 A    
C5    C6    1.398142 A    
C63   C64   1.409800 A    
C68   C76   1.435786 S    
C91   H35   1.081738 S    
C19   F1    1.356969 S    
O18   C73   1.279380 A    
C37   C38   1.401487 A    
C65   C66   1.394844 A    
C97   C106  1.486838 S    
C54   C55   1.398042 A    
C90   H34   1.082288 S    
C87   C88   1.414065 A    
O19   C74   1.281273 A    
C63   C68   1.414142 A    
C107  H44   1.083026 S    
C99   C100  1.395181 A    
