data_mof_unit_45650.cif
_audit_creation_date              2012-12-10T18:43:46-0500
_audit_creation_method            fapswitch 2.2
_symmetry_space_group_name_H-M    P1
_symmetry_Int_Tables_number       1
_space_group_crystal_system       triclinic
_cell_length_a                    10.710641
_cell_length_b                    10.679418
_cell_length_c                    9.957628
_cell_angle_alpha                 90.696011
_cell_angle_beta                  106.338782
_cell_angle_gamma                 92.247866
_cell_volume                      1091.82930883

loop_
_atom_site_label
_atom_site_type_symbol
_atom_type_description
_atom_site_fract_x
_atom_site_fract_y
_atom_site_fract_z
_atom_type_partial_charge
C1    C     C_R   0.514802 0.260921 0.503560 0.892460
C2    C     C_2   0.883923 0.502039 0.605141 -0.031780
C3    C     C_2   0.056076 0.537291 0.488621 0.107634
C4    C     C_2   0.943922 0.462703 0.511379 0.107636
C5    C     C_R   0.516336 0.059504 0.379964 0.143308
C6    C     C_R   0.483662 0.940496 0.620036 0.143308
C7    C     C_R   0.467014 0.936404 0.368976 0.145244
C8    C     C_R   0.532985 0.063595 0.631023 0.145244
C9    C     C_R   0.467882 0.873274 0.492887 -0.173999
C10   C     C_R   0.532117 0.126726 0.507113 -0.173998
C11   C     C_3   0.955377 0.555642 0.748769 -0.921081
C12   C     C_R   0.485198 0.739079 0.496439 0.892460
C13   C     C_3   0.044622 0.444350 0.251231 -0.921088
C14   C     C_3   0.696625 0.649304 0.920527 -0.831542
C15   C     C_3   0.303375 0.350696 0.079473 -0.831542
C16   C     C_3   0.560676 0.113111 0.259635 -0.838333
C17   C     C_3   0.439322 0.886889 0.740365 -0.838330
C18   C     C_3   0.405165 0.877664 0.224611 -0.840605
C19   C     C_3   0.594835 0.122335 0.775389 -0.840602
C20   C     C_R   0.257639 0.501347 0.438358 0.895303
C21   C     C_R   0.742361 0.498652 0.561642 0.895303
C22   C     C_R   0.592642 0.569042 0.100014 0.114204
C23   C     C_R   0.407358 0.430957 0.899986 0.114204
C24   C     C_R   0.591720 0.570292 0.957050 0.217869
C25   C     C_R   0.408280 0.429708 0.042950 0.217868
C26   C     C_2   0.116076 0.497957 0.394858 -0.031778
H1    H     H_    0.971285 0.288459 0.447302 0.186031
H2    H     H_    0.061661 0.542837 0.775694 0.264425
H3    H     H_    0.936402 0.656674 0.755402 0.243780
H4    H     H_    0.079542 0.494924 0.171081 0.247171
H5    H     H_    0.063594 0.343317 0.244601 0.243782
H6    H     H_    0.938341 0.457159 0.224307 0.264428
H7    H     H_    0.678354 0.664173 0.808582 0.289768
H8    H     H_    0.703962 0.744372 0.969280 0.212726
H9    H     H_    0.791623 0.605264 0.961155 0.225650
H10   H     H_    0.321645 0.335827 0.191418 0.289769
H11   H     H_    0.208377 0.394735 0.038845 0.225649
H12   H     H_    0.822925 0.302679 0.462447 0.163358
H13   H     H_    0.296038 0.255627 0.030721 0.212726
H14   H     H_    0.477340 0.150804 0.179971 0.248998
H15   H     H_    0.639137 0.186906 0.296625 0.247863
H16   H     H_    0.603988 0.039679 0.209171 0.227816
H17   H     H_    0.522658 0.849196 0.820029 0.248998
H18   H     H_    0.396009 0.960321 0.790829 0.227815
H19   H     H_    0.360860 0.813095 0.703374 0.247862
H20   H     H_    0.332248 0.801740 0.227843 0.243178
H21   H     H_    0.350450 0.948130 0.152716 0.228379
H22   H     H_    0.480795 0.840633 0.180107 0.244916
H23   H     H_    0.028709 0.711537 0.552693 0.186029
H24   H     H_    0.667751 0.198260 0.772157 0.243178
H25   H     H_    0.519205 0.159364 0.819894 0.244915
H26   H     H_    0.649552 0.051868 0.847283 0.228378
H27   H     H_    0.177071 0.697318 0.537552 0.163359
H28   H     H_    0.765101 0.579575 0.252069 0.220693
H29   H     H_    0.659085 0.692734 0.266212 0.234731
H30   H     H_    0.234900 0.420426 0.747931 0.220693
H31   H     H_    0.340915 0.307266 0.733788 0.234731
H32   H     H_    0.920458 0.505063 0.828916 0.247173
N1    N     N_R   0.499970 0.499970 0.857200 -0.121109
N2    N     N_R   0.500030 0.500030 0.142800 -0.121109
N3    N     N_3   0.895008 0.350004 0.427841 -0.455854
N4    N     N_3   0.104989 0.649992 0.572157 -0.455854
N5    N     N_3   0.695211 0.640060 0.198315 -0.470976
N6    N     N_3   0.304789 0.359940 0.801685 -0.470975
O1    O     O_R   0.499990 0.316750 0.614620 -0.621921
O2    O     O_R   0.500010 0.683250 0.385380 -0.621921
O3    O     O_R   0.499990 0.316780 0.385290 -0.618121
O4    O     O_R   0.500010 0.683220 0.614710 -0.618120
O5    O     O_R   0.317810 0.500000 0.571850 -0.622875
O6    O     O_R   0.682190 0.500000 0.428150 -0.622874
O7    O     O_R   0.317810 0.500030 0.342520 -0.609899
O8    O     O_R   0.682190 0.499970 0.657480 -0.609899
Zn1   Zn    Zn3+2 0.500000 0.499980 0.653120 0.912587
Zn2   Zn    Zn3+2 0.500000 0.500020 0.346880 0.912587

loop_
_geom_bond_atom_site_label_1
_geom_bond_atom_site_label_2
_ccdc_geom_bond_type
C14   H8    S    
O7    Zn2   S    
C2    C4    D    
H30   N6    S    
C20   O7    A    
O5    Zn1   S    
C25   N2    A    
C16   H16   S    
C11   H32   S    
H27   N4    S    
N1    Zn1   S    
C13   H6    S    
C1    O1    A    
C21   O6    A    
H12   N3    S    
C18   H21   S    
C7    C18   S    
C2    C21   S    
C17   H17   S    
C22   N5    S    
C17   H18   S    
C5    C10   A    
C4    N3    S    
O3    Zn2   S    
C23   N1    A    
C12   O4    A    
C19   H24   S    
C15   H13   S    
C20   C26   S    
C11   H2    S    
C16   H14   S    
C24   N1    A    
C2    C11   S    
C18   H20   S    
N2    Zn2   S    
C23   N6    S    
C1    O3    A    
C17   H19   S    
C19   H26   S    
C5    C7    A    
C23   C25   A    
C22   N2    A    
C13   C26   S    
C14   H7    S    
C22   C24   A    
C20   O5    A    
C15   C25   S    
C8    C19   S    
H28   N5    S    
C21   O8    A    
C3    C4    S    
O2    Zn2   S    
C19   H25   S    
C15   H10   S    
C6    C9    A    
O1    Zn1   S    
C13   H4    S    
C11   H3    S    
H31   N6    S    
C8    C10   A    
C3    N4    S    
C14   C24   S    
C14   H9    S    
C7    C9    A    
C6    C17   S    
O6    Zn2   S    
C15   H11   S    
C5    C16   S    
C6    C8    A    
H23   N4    S    
H1    N3    S    
O4    Zn1   S    
C9    C12   S    
C12   O2    A    
C16   H15   S    
C13   H5    S    
C3    C26   D    
C1    C10   S    
C18   H22   S    
O8    Zn1   S    
H29   N5    S    
