data_mof_unit_62043.cif
_audit_creation_date              2012-12-10T18:30:06-0500
_audit_creation_method            fapswitch 2.2
_symmetry_space_group_name_H-M    P1
_symmetry_Int_Tables_number       1
_space_group_crystal_system       triclinic
_cell_length_a                    21.321196
_cell_length_b                    24.937348
_cell_length_c                    24.920763
_cell_angle_alpha                 100.4937
_cell_angle_beta                  115.299301
_cell_angle_gamma                 64.801314
_cell_volume                      10839.3691553

loop_
_atom_site_label
_atom_site_type_symbol
_atom_type_description
_atom_site_fract_x
_atom_site_fract_y
_atom_site_fract_z
_atom_type_partial_charge
C1    C     C_R   0.999826 0.918810 0.418737 0.908505
C2    C     C_3   0.035896 0.681233 0.270052 -0.409888
C3    C     C_3   0.999425 0.709685 0.208028 0.303566
C4    C     C_R   0.878166 0.000104 0.500201 0.866044
C5    C     C_3   0.917586 0.753951 0.197037 -0.399915
C6    C     C_3   0.917330 0.802226 0.245846 -0.367294
C7    C     C_1   0.999539 0.663884 0.162369 -0.095206
C8    C     C_1   0.999058 0.837093 0.336466 -0.078409
C9    C     C_1   0.999359 0.874438 0.374159 -0.201245
C10   C     C_3   0.192936 0.052686 0.479474 -0.168832
C11   C     C_3   0.238482 0.008724 0.444280 -0.164797
C12   C     C_3   0.738095 0.030541 0.547837 -0.173011
C13   C     C_3   0.310521 0.000207 0.500006 0.029298
C14   C     C_3   0.266138 0.044196 0.535231 -0.174964
C15   C     C_3   0.261261 0.991807 0.555722 -0.168969
C16   C     C_R   0.000046 0.081198 0.581268 0.913247
C17   C     C_3   0.306827 0.947812 0.520496 -0.155736
C18   C     C_3   0.233479 0.956292 0.464784 -0.158700
C19   C     C_3   0.189205 0.000273 0.499988 0.028443
C20   C     C_3   0.004909 0.186407 0.765301 -0.393440
C21   C     C_3   0.926695 0.265163 0.686150 -0.393929
C22   C     C_3   0.926619 0.313777 0.734659 -0.395288
C23   C     C_3   0.741431 0.056248 0.497711 -0.166688
C24   C     C_1   0.999809 0.374506 0.874323 -0.185641
C25   C     C_3   0.000023 0.208881 0.709066 0.362163
C26   C     C_3   0.004834 0.235023 0.813813 -0.395038
C27   C     C_3   0.999893 0.291159 0.791166 0.360720
C28   C     C_R   0.121841 0.000104 0.500023 0.865116
C29   C     C_3   0.068308 0.274180 0.774639 -0.391971
C30   C     C_3   0.068385 0.225565 0.726130 -0.396803
C31   C     C_1   0.999829 0.336931 0.836833 -0.125647
C32   C     C_1   0.000085 0.163131 0.663383 -0.126319
C33   C     C_1   0.000095 0.125617 0.625836 -0.193467
C34   C     C_3   0.810847 0.000072 0.500470 0.026586
C35   C     C_R   0.418787 0.081198 0.418755 0.913611
C36   C     C_R   0.622059 0.999875 0.500204 0.866351
C37   C     C_R   0.581277 0.918745 0.581323 0.912658
C38   C     C_R   0.378093 0.000022 0.500005 0.865830
C39   C     C_R   0.080974 0.418962 0.080950 0.906468
C40   C     C_3   0.762457 0.969514 0.453112 -0.154022
C41   C     C_R   0.999822 0.581305 0.080869 0.906641
C42   C     C_R   0.918831 0.581148 0.918770 0.904884
C43   C     C_R   0.999839 0.419042 0.918785 0.906294
C44   C     C_3   0.238868 0.264548 0.313116 -0.393517
C45   C     C_3   0.035466 0.729681 0.318661 -0.508490
C46   C     C_3   0.241215 0.185734 0.234037 -0.393107
C47   C     C_3   0.192632 0.234303 0.185485 -0.394972
C48   C     C_1   0.125411 0.374407 0.125429 -0.185904
C49   C     C_3   0.290909 0.208863 0.290853 0.361461
C50   C     C_3   0.190289 0.313115 0.264568 -0.395114
C51   C     C_3   0.208665 0.291083 0.208663 0.360244
C52   C     C_3   0.691738 0.025658 0.450319 -0.155463
C53   C     C_3   0.293570 0.275348 0.226399 -0.391680
C54   C     C_3   0.342151 0.226781 0.274947 -0.396659
C55   C     C_1   0.162920 0.336838 0.162943 -0.125418
C56   C     C_3   0.045373 0.792701 0.256463 0.393034
C57   C     C_1   0.336672 0.163134 0.336593 -0.125701
C58   C     C_1   0.374243 0.125632 0.374167 -0.193844
C59   C     C_3   0.778255 0.804984 0.755591 -0.470450
C60   C     C_3   0.737666 0.729920 0.681242 -0.404211
C61   C     C_3   0.783932 0.680635 0.729240 -0.486094
C62   C     C_1   0.874511 0.625439 0.874236 -0.179601
C63   C     C_3   0.709521 0.791819 0.709586 0.301596
C64   C     C_3   0.689625 0.999945 0.500460 0.026647
C65   C     C_3   0.830328 0.753219 0.800829 0.374415
C66   C     C_3   0.791645 0.708931 0.791492 0.239239
C67   C     C_3   0.044604 0.744287 0.207298 -0.450118
C68   C     C_3   0.709949 0.740946 0.789280 -0.421928
C69   C     C_3   0.662504 0.790921 0.742334 -0.402438
C70   C     C_1   0.837129 0.662929 0.836771 -0.078450
C71   C     C_1   0.663593 0.837260 0.663699 -0.092881
C72   C     C_1   0.625894 0.874489 0.625941 -0.198747
C73   C     C_3   0.759065 0.943774 0.503291 -0.164375
C74   C     C_3   0.808687 0.974328 0.550633 -0.171764
C75   C     C_3   0.815883 0.798478 0.890238 0.105441
C76   C     C_3   0.850113 0.834394 0.942106 -0.322846
C77   C     C_3   0.801968 0.862506 0.978675 -0.992217
C78   C     C_1   0.999648 0.626120 0.125062 -0.188699
C79   C     C_3   0.068951 0.865670 0.229871 0.071880
C80   C     C_3   0.096122 0.900583 0.286128 -0.343685
C81   C     C_3   0.152409 0.922178 0.284656 -0.978715
C82   C     C_3   0.999171 0.791729 0.290333 0.289005
H1    H     H_    0.642060 0.046592 0.409448 0.124947
H2    H     H_    0.890383 0.775221 0.152761 0.176482
H3    H     H_    0.231273 0.015775 0.398937 0.130746
H4    H     H_    0.774426 0.944633 0.414520 0.124120
H5    H     H_    0.144735 0.095533 0.462759 0.141778
H6    H     H_    0.280984 0.080162 0.564021 0.145068
H7    H     H_    0.268723 0.984942 0.601202 0.137502
H8    H     H_    0.355254 0.905079 0.537230 0.125745
H9    H     H_    0.218127 0.920432 0.436175 0.127350
H10   H     H_    0.956160 0.246106 0.825971 0.166640
H11   H     H_    0.956272 0.174138 0.754155 0.164890
H12   H     H_    0.104788 0.781578 0.289463 0.039684
H13   H     H_    0.921909 0.282200 0.645682 0.166116
H14   H     H_    0.876671 0.254290 0.673603 0.164488
H15   H     H_    0.876558 0.326257 0.745414 0.166377
H16   H     H_    0.764338 0.897915 0.505583 0.133302
H17   H     H_    0.921798 0.354166 0.717493 0.164532
H18   H     H_    0.121861 0.185769 0.742788 0.165065
H19   H     H_    0.066116 0.241898 0.686371 0.165014
H20   H     H_    0.121747 0.257737 0.814600 0.166061
H21   H     H_    0.057259 0.145917 0.782653 0.166423
H22   H     H_    0.057147 0.217885 0.854469 0.164699
H23   H     H_    0.103594 0.713287 0.214707 0.128722
H24   H     H_    0.066002 0.313865 0.758182 0.166056
H25   H     H_    0.129478 0.324690 0.252953 0.166572
H26   H     H_    0.201389 0.252796 0.324817 0.164790
H27   H     H_    0.277391 0.145662 0.217128 0.166561
H28   H     H_    0.858086 0.953410 0.591653 0.144109
H29   H     H_    0.203779 0.172581 0.244335 0.165129
H30   H     H_    0.131863 0.244476 0.172465 0.166699
H31   H     H_    0.205477 0.217556 0.145258 0.164723
H32   H     H_    0.378452 0.243615 0.315131 0.165178
H33   H     H_    0.380122 0.187440 0.258764 0.165189
H34   H     H_    0.019297 0.764825 0.162868 0.191486
H35   H     H_    0.306541 0.315505 0.243267 0.165872
H36   H     H_    0.273329 0.282054 0.353981 0.166219
H37   H     H_    0.201421 0.353945 0.282117 0.164457
H38   H     H_    0.308210 0.259332 0.186899 0.166236
H39   H     H_    0.879151 0.727895 0.787822 0.111548
H40   H     H_    0.726604 0.055445 0.586591 0.144659
H41   H     H_    0.810392 0.809646 0.732560 0.147486
H42   H     H_    0.688820 0.720788 0.646845 0.179883
H43   H     H_    0.773351 0.729223 0.658845 0.168680
H44   H     H_    0.840466 0.654354 0.727799 0.166308
H45   H     H_    0.883974 0.801120 0.269595 0.156554
H46   H     H_    0.755502 0.649366 0.719195 0.191371
H47   H     H_    0.643367 0.834347 0.764348 0.162047
H48   H     H_    0.611134 0.783791 0.710018 0.173588
H49   H     H_    0.708103 0.758688 0.832860 0.147595
H50   H     H_    0.758980 0.848050 0.777901 0.176384
H51   H     H_    0.736132 0.102124 0.495462 0.135282
H52   H     H_    0.682995 0.708388 0.777105 0.180653
H53   H     H_    0.094957 0.649377 0.278998 0.171875
H54   H     H_    0.094265 0.720870 0.351219 0.169917
H55   H     H_    0.811531 0.763569 0.908836 0.149512
H56   H     H_    0.889066 0.846767 0.225049 0.204449
H57   H     H_    0.759039 0.829022 0.861503 0.130268
H58   H     H_    0.907575 0.804939 0.971299 0.230989
H59   H     H_    0.854939 0.869885 0.924754 0.221927
H60   H     H_    0.744520 0.892918 0.950647 0.263494
H61   H     H_    0.828326 0.888297 0.015831 0.271533
H62   H     H_    0.797705 0.827674 0.997482 0.264045
H63   H     H_    0.042511 0.894771 0.190761 0.167987
H64   H     H_    0.117362 0.826959 0.224125 0.116580
H65   H     H_    0.046964 0.939450 0.290069 0.239493
H66   H     H_    0.123407 0.872205 0.325914 0.202753
H67   H     H_    0.883716 0.730109 0.196970 0.169507
H68   H     H_    0.203053 0.883901 0.282463 0.263976
H69   H     H_    0.170203 0.947879 0.325513 0.264738
H70   H     H_    0.126201 0.951332 0.245629 0.264379
H71   H     H_    0.003466 0.727850 0.343299 0.193363
H72   H     H_    0.004465 0.655927 0.271570 0.180495
O1    O     O_R   0.034680 0.903860 0.473250 -0.619945
O2    O     O_R   0.008840 0.438630 0.061310 -0.618873
O3    O     O_R   0.052380 0.561560 0.061290 -0.616788
O4    O     O_R   0.965310 0.973280 0.403900 -0.615036
O5    O     O_R   0.947370 0.561540 0.061320 -0.619466
O6    O     O_R   0.990910 0.561610 0.938440 -0.612785
O7    O     O_R   0.885900 0.561600 0.938470 -0.622136
O8    O     O_R   0.052380 0.438700 0.938430 -0.619178
O9    O     O_R   0.947370 0.438690 0.938460 -0.619129
O10   O     O_R   0.941660 0.965300 0.534680 -0.629388
O11   O     O_R   0.872290 0.034710 0.465330 -0.626748
O12   O     O_R   0.438620 0.026720 0.403950 -0.619622
O13   O     O_R   0.034690 0.026720 0.596100 -0.620311
O14   O     O_R   0.965320 0.096140 0.526750 -0.621000
O15   O     O_R   0.127710 0.965290 0.534670 -0.628146
O16   O     O_R   0.058340 0.034700 0.465320 -0.628719
O17   O     O_R   0.438600 0.096100 0.473280 -0.619276
O18   O     O_3   0.864652 0.771434 0.859984 -0.644564
O19   O     O_3   0.013237 0.849482 0.230543 -0.644183
O20   O     O_R   0.593070 0.034630 0.534720 -0.630049
O21   O     O_R   0.593090 0.965250 0.465380 -0.626900
O22   O     O_R   0.561490 0.973170 0.596160 -0.618709
O23   O     O_R   0.561500 0.903790 0.526820 -0.620911
O24   O     O_R   0.407020 0.034640 0.534730 -0.630805
O25   O     O_R   0.407040 0.965260 0.465390 -0.625619
O26   O     O_R   0.113850 0.438650 0.061280 -0.619195
Zn1   Zn    Zn3+2 0.046320 0.953650 0.546300 0.938917
Zn2   Zn    Zn3+2 0.953680 0.046350 0.453700 0.942345
Zn3   Zn    Zn3+2 0.500040 0.046270 0.546350 0.938126
Zn4   Zn    Zn3+2 0.500070 0.953620 0.453760 0.942143
Zn5   Zn    Zn3+2 0.069990 0.500130 0.999860 0.953706
Zn6   Zn    Zn3+2 0.929760 0.500110 0.999900 0.946821

loop_
_geom_bond_atom_site_label_1
_geom_bond_atom_site_label_2
_ccdc_geom_bond_type
C44   C49   S    
C48   C55   T    
C66   C68   S    
C20   H11   S    
C11   C18   S    
C36   O20   A    
C38   O24   A    
C12   C74   S    
O22   Zn3   S    
C35   O17   A    
C73   C74   S    
C79   O19   S    
C36   C64   S    
C45   C82   S    
C75   C76   S    
C39   O26   A    
C57   C58   T    
C42   O7    A    
C5    H67   S    
O26   Zn5   S    
C79   H63   S    
C20   H21   S    
O13   Zn1   S    
C53   C54   S    
C4    O11   A    
C56   H12   S    
C12   C23   S    
C26   C27   S    
C29   C30   S    
C35   C58   S    
C6    C82   S    
C18   H9    S    
O5    Zn6   S    
O17   Zn3   S    
C1    O4    A    
O3    Zn5   S    
C6    H45   S    
C3    C7    S    
C47   H31   S    
C5    C6    S    
C12   C64   S    
C53   H35   S    
C27   C29   S    
C20   C25   S    
C16   O13   A    
C26   H10   S    
C49   C54   S    
C30   H18   S    
C35   O12   A    
C49   C57   S    
C40   C73   S    
C62   C70   T    
C1    O1    A    
C18   C19   S    
C40   H4    S    
C60   H42   S    
C77   H60   S    
O10   Zn1   S    
C26   H22   S    
C41   O5    A    
C61   C66   S    
C80   H65   S    
C63   C69   S    
C8    C9    T    
C64   C73   S    
C4    O10   A    
C61   H44   S    
C22   H17   S    
C65   H39   S    
C42   C62   S    
O24   Zn3   S    
C11   H3    S    
C76   H59   S    
C25   C32   S    
C44   H26   S    
C2    H72   S    
C22   H15   S    
C80   H66   S    
C21   C22   S    
O16   Zn2   S    
O6    Zn5   S    
C50   C51   S    
C79   H64   S    
C76   H58   S    
C2    C45   S    
C59   H41   S    
C73   H16   S    
C59   H50   S    
C4    C34   S    
C10   H5    S    
C53   H38   S    
C23   H51   S    
C65   O18   S    
C27   C31   S    
C50   H37   S    
O12   Zn4   S    
C76   C77   S    
C75   H55   S    
C41   C78   S    
C5    H2    S    
C69   H48   S    
C47   C51   S    
C21   H13   S    
C81   H69   S    
C60   C61   S    
C51   C53   S    
C6    H56   S    
C52   H1    S    
C15   C19   S    
C67   H34   S    
C77   H61   S    
O7    Zn6   S    
C16   C33   S    
C15   H7    S    
C46   C49   S    
C44   H36   S    
C10   C19   S    
C23   C34   S    
C46   H29   S    
C54   H33   S    
C17   C18   S    
C1    C9    S    
C19   C28   S    
O4    Zn2   S    
O15   Zn1   S    
C13   C38   S    
C34   C74   S    
C7    C78   T    
C41   O3    A    
C56   C67   S    
C28   O16   A    
C21   H14   S    
C63   C71   S    
O14   Zn2   S    
C22   C27   S    
O9    Zn6   S    
C52   C64   S    
C50   H25   S    
C34   C40   S    
C29   H24   S    
C37   C72   S    
C45   H71   S    
O11   Zn2   S    
C81   H70   S    
O25   Zn4   S    
C44   C50   S    
C25   C30   S    
C15   C17   S    
C21   C25   S    
C46   C47   S    
C60   H43   S    
C45   H54   S    
C38   O25   A    
C68   C69   S    
C42   O6    A    
C17   H8    S    
C80   C81   S    
C3    C5    S    
O20   Zn3   S    
C74   H28   S    
O8    Zn5   S    
O1    Zn1   S    
C56   C82   S    
C68   H49   S    
O2    Zn6   S    
O23   Zn4   S    
C37   O23   A    
C47   H30   S    
C39   O2    A    
C59   C63   S    
C2    H53   S    
C13   C17   S    
C56   O19   S    
C32   C33   T    
C68   H52   S    
C2    C3    S    
C24   C31   T    
C14   H6    S    
C71   C72   T    
C40   C52   S    
C59   C65   S    
C37   O22   A    
C11   C13   S    
C23   C52   S    
C66   C70   S    
C20   C26   S    
C16   O14   A    
C54   H32   S    
C30   H19   S    
C29   H20   S    
C61   H46   S    
C51   C55   S    
C77   H62   S    
C60   C63   S    
C10   C11   S    
C79   C80   S    
C43   O8    A    
C28   O15   A    
C8    C82   S    
C12   H40   S    
C67   H23   S    
C36   O21   A    
C69   H47   S    
C65   C66   S    
C46   H27   S    
C75   O18   S    
C24   C43   S    
C14   C15   S    
C39   C48   S    
C75   H57   S    
C3    C67   S    
C13   C14   S    
C81   H68   S    
C10   C14   S    
O21   Zn4   S    
C43   O9    A    
