data_mof_unit_23605.cif
_audit_creation_date              2012-12-11T16:58:17-0500
_audit_creation_method            fapswitch 2.2
_symmetry_space_group_name_H-M    P1
_symmetry_Int_Tables_number       1
_space_group_crystal_system       triclinic
_cell_length_a                    16.847885
_cell_length_b                    7.262495
_cell_length_c                    16.848372
_cell_angle_alpha                 90.599067
_cell_angle_beta                  100.182582
_cell_angle_gamma                 89.064084
_cell_volume                      2028.72672864

loop_
_atom_site_label
_atom_site_type_symbol
_atom_type_description
_atom_site_fract_x
_atom_site_fract_y
_atom_site_fract_z
_atom_type_partial_charge
O1    O     O_R   0.413450 0.494370 0.415710 -0.534255
O2    O     O_R   0.586550 0.994370 0.584290 -0.533055
O3    O     O_R   0.578420 0.819350 0.429360 -0.531293
O4    O     O_R   0.421580 0.319350 0.570640 -0.529636
C1    C     C_R   0.604471 0.654102 0.413728 0.754805
C2    C     C_R   0.394154 0.158090 0.585154 0.752448
O5    O     O_R   0.413570 0.823780 0.406240 -0.546402
O6    O     O_R   0.586430 0.323780 0.593760 -0.543845
O7    O     O_R   0.420530 0.998740 0.561000 -0.530423
O8    O     O_R   0.579470 0.498740 0.439000 -0.532958
C3    C     C_R   0.386034 0.655751 0.383829 0.707787
C4    C     C_R   0.614422 0.154997 0.615782 0.695542
O9    O     O_3   0.502480 0.662320 0.550800 -0.376744
O10   O     O_3   0.497520 0.162320 0.449200 -0.381952
V1    V     V_3+5 0.499540 0.935370 0.490580 1.484617
V2    V     V_3+5 0.500460 0.435370 0.509420 1.491116
C5    C     C_R   0.710012 0.976792 0.720065 0.057427
C6    C     C_R   0.270355 0.486662 0.301028 0.097147
C7    C     C_R   0.686067 0.143736 0.681338 -0.050228
C8    C     C_R   0.315294 0.647480 0.317286 -0.066801
C9    C     C_R   0.735383 0.297420 0.704606 -0.128245
C10   C     C_R   0.290145 0.800431 0.267963 -0.122072
H1    H     H_    0.722606 0.427311 0.673712 0.140717
H2    H     H_    0.323017 0.927198 0.277528 0.155242
C11   C     C_R   0.800981 0.286347 0.769532 -0.101789
C12   C     C_R   0.225446 0.787496 0.202446 -0.070666
H3    H     H_    0.836481 0.408217 0.786096 0.157235
H4    H     H_    0.210023 0.905057 0.163977 0.162943
C13   C     C_R   0.818776 0.121763 0.813713 -0.065204
C14   C     C_R   0.184370 0.620962 0.183261 -0.036131
C15   C     C_R   0.772899 0.967414 0.785646 -0.003819
C16   C     C_R   0.209234 0.471742 0.233913 0.046323
C17   C     C_3   0.729050 0.831615 0.828003 0.347078
C18   C     C_3   0.236896 0.281285 0.215880 0.305423
C19   C     C_3   0.661389 0.838721 0.754711 -0.418535
C20   C     C_3   0.299376 0.294316 0.292694 -0.442589
H5    H     H_    0.760331 0.695478 0.836538 0.044192
H6    H     H_    0.189544 0.178405 0.218360 0.061033
H7    H     H_    0.603027 0.897231 0.766266 0.208350
H8    H     H_    0.363284 0.286176 0.284010 0.218544
H9    H     H_    0.655815 0.708423 0.719174 0.143552
H10   H     H_    0.285561 0.205987 0.341830 0.155210
C21   C     C_R   0.328981 0.163055 0.634461 -0.170376
C22   C     C_R   0.670882 0.643792 0.366766 -0.157842
C23   C     C_R   0.164562 0.112144 0.859806 -0.158011
C24   C     C_R   0.834501 0.623461 0.139713 -0.139666
C25   C     C_R   0.292957 0.993027 0.832471 -0.059190
C26   C     C_R   0.699258 0.541585 0.156908 -0.069538
C27   C     C_R   0.236779 0.012815 0.883893 -0.128698
C28   C     C_R   0.759806 0.543555 0.110122 -0.117595
C29   C     C_R   0.148948 0.192114 0.782303 0.442912
C30   C     C_R   0.849104 0.696305 0.219521 0.422931
C31   C     C_R   0.212786 0.202102 0.737094 -0.148726
C32   C     C_R   0.794074 0.655714 0.272420 -0.140086
C33   C     C_R   0.281565 0.086003 0.758772 0.039417
C34   C     C_R   0.715533 0.597439 0.237954 0.045533
C35   C     C_R   0.338718 0.066744 0.707338 -0.182811
C36   C     C_R   0.654520 0.593715 0.285062 -0.204484
C37   C     C_R   0.263512 0.289306 0.615942 0.079785
C38   C     C_R   0.751231 0.676057 0.404063 0.072809
C39   C     C_R   0.210798 0.322860 0.671178 0.457360
C40   C     C_R   0.814092 0.665849 0.358127 0.459850
H11   H     H_    0.391364 0.978404 0.724416 0.144765
H12   H     H_    0.593640 0.556570 0.257715 0.139199
H13   H     H_    0.346265 0.907876 0.851171 0.145913
H14   H     H_    0.640448 0.489713 0.130507 0.146110
H15   H     H_    0.248177 0.943825 0.941603 0.170751
H16   H     H_    0.747188 0.489221 0.049104 0.156934
O11   O     O_R   0.920630 0.775410 0.061150 -0.477561
O12   O     O_R   0.079370 0.275410 0.938850 -0.507590
O13   O     O_R   0.086500 0.441450 0.093690 -0.531546
O14   O     O_R   0.913500 0.941450 0.906310 -0.530350
C41   C     C_R   0.115192 0.609484 0.114986 0.733566
C42   C     C_R   0.885732 0.110528 0.884076 0.787521
O15   O     O_R   0.921670 0.445960 0.070740 -0.559903
O16   O     O_R   0.078330 0.945960 0.929260 -0.534405
O17   O     O_R   0.913380 0.271130 0.915780 -0.547102
O18   O     O_R   0.086620 0.771130 0.084220 -0.545203
C43   C     C_R   0.897250 0.615747 0.087649 0.758342
C44   C     C_R   0.103106 0.112188 0.912908 0.836342
O19   O     O_3   0.997500 0.603030 0.949220 -0.376032
O20   O     O_3   0.002500 0.103030 0.050780 -0.374868
V3    V     V_3+5 0.000470 0.329940 0.009420 1.616343
V4    V     V_3+5 0.999530 0.829940 0.990580 1.670071
S1    S     S_3+6 0.164450 0.545692 0.671957 0.115254
O21   O     O_2   0.088363 0.554307 0.610140 -0.228958
O22   O     O_2   0.145642 0.592091 0.753850 -0.302690
O23   O     O_3   0.228407 0.704191 0.649197 -0.503692
H17   H     H_    0.195095 0.817443 0.636981 0.381204
S2    S     S_3+6 0.912486 0.600501 0.408802 0.163434
O24   O     O_2   0.964297 0.531018 0.350537 -0.292572
O25   O     O_2   0.952472 0.760651 0.456153 -0.216783
O26   O     O_3   0.903482 0.429564 0.473094 -0.453977
H18   H     H_    0.959502 0.397230 0.498436 0.431992
S3    S     S_3+6 0.046457 0.211913 0.732890 0.075269
O27   O     O_2   0.008290 0.384763 0.759693 -0.294988
O28   O     O_2   0.040671 0.212076 0.642850 -0.280946
O29   O     O_3   0.995677 0.029298 0.757042 -0.516883
H19   H     H_    0.945008 0.028167 0.716957 0.371474
S4    S     S_3+6 0.919156 0.878872 0.242605 0.079908
O30   O     O_2   0.912614 0.970760 0.321513 -0.271570
O31   O     O_2   0.003680 0.806965 0.244922 -0.321911
O32   O     O_3   0.898128 0.038966 0.170245 -0.484821
H20   H     H_    0.932138 0.145272 0.190628 0.363839
S5    S     S_3+6 0.697236 0.922246 0.917080 -0.016911
O33   O     O_2   0.634229 0.799046 0.939928 -0.321780
O34   O     O_2   0.767893 0.929624 0.985170 -0.344337
O35   O     O_3   0.658116 0.135534 0.899183 -0.507885
H21   H     H_    0.648833 0.182058 0.952306 0.368882
S6    S     S_3+6 0.284617 0.267615 0.128465 -0.043435
O36   O     O_2   0.338812 0.100115 0.133930 -0.340885
O37   O     O_2   0.221721 0.253902 0.053824 -0.368773
O38   O     O_3   0.339994 0.456488 0.123552 -0.499422
H22   H     H_    0.360851 0.442980 0.072369 0.374252
I1    I     I_    0.238648 0.419872 0.501029 -0.201603
I2    I     I_    0.776656 0.734345 0.530953 -0.215643

loop_
_geom_bond_atom_site_label_1
_geom_bond_atom_site_label_2
_ccdc_geom_bond_type
O26   H18   S    
C20   H10   S    
S3    O27   D    
O1    C3    A    
O2    C4    A    
O16   V4    S    
C2    O7    A    
S3    O29   S    
C25   C27   A    
S1    O21   D    
O5    C3    A    
S5    O34   D    
O15   C43   A    
C7    C9    A    
C24   C43   S    
C23   C29   A    
C24   C30   A    
O35   H21   S    
C38   C40   A    
S6    O36   D    
C17   C19   S    
C31   C39   A    
C22   C36   A    
C42   O17   A    
C41   O18   A    
C15   C17   S    
C18   C20   S    
C21   C37   A    
O5    V1    S    
O6    V2    S    
C11   C13   A    
C30   C32   A    
C35   H11   S    
O13   V3    S    
C31   C33   A    
C36   H12   S    
S5    O35   S    
C32   C34   A    
C3    C8    S    
C37   C39   A    
S1    O22   D    
O12   C44   A    
C20   H8    S    
C17   S5    S    
O14   C42   A    
O13   C41   A    
C14   C41   S    
C13   C42   S    
C32   C40   A    
C30   S4    S    
S4    O32   S    
C17   H5    S    
C29   C31   A    
C16   C18   S    
O4    V2    S    
C19   H7    S    
O12   V3    S    
S2    O25   D    
C23   C27   A    
O6    C4    A    
S4    O31   D    
O1    V2    S    
O2    V1    S    
S6    O38   S    
O14   V4    S    
C39   S1    S    
O4    C2    A    
C1    C22   S    
C8    C10   A    
C12   C14   A    
C2    C21   S    
C33   C35   A    
C5    C15   A    
C10   H2    S    
C38   I2    S    
C6    C16   A    
O19   V4    S    
O3    V1    S    
S2    O26   S    
C25   C33   A    
O38   H22   S    
S1    O23   S    
C26   C34   A    
C9    C11   A    
C27   H15   S    
C18   H6    S    
O16   C44   A    
O3    C1    A    
S3    O28   D    
C11   H3    S    
S5    O33   D    
C24   C28   A    
C12   H4    S    
C26   H14   S    
C9    H1    S    
O7    V1    S    
C1    O8    A    
C13   C15   A    
O11   V4    S    
O8    V2    S    
C14   C16   A    
O15   V3    S    
S2    O24   D    
C28   H16   S    
C22   C38   A    
C18   S6    S    
C40   S2    S    
C4    C7    S    
C26   C28   A    
S4    O30   D    
C5    C7    A    
C34   C36   A    
C23   C44   S    
C6    C8    A    
C19   H9    S    
S6    O37   D    
O11   C43   A    
C21   C35   A    
O18   V4    S    
O23   H17   S    
C37   I1    S    
O29   H19   S    
C10   C12   A    
O9    V2    S    
O32   H20   S    
O17   V3    S    
O10   V1    S    
C5    C19   S    
O20   V3    S    
C6    C20   S    
C25   H13   S    
C29   S3    S    
