data_mof_unit_37844.cif
_audit_creation_date              2013-03-05T15:54:38-0500
_audit_creation_method            fapswitch 2.2
_symmetry_space_group_name_H-M    P1
_symmetry_Int_Tables_number       1
_space_group_crystal_system       triclinic
_cell_length_a                    6.985367
_cell_length_b                    18.835902
_cell_length_c                    20.674514
_cell_angle_alpha                 107.172187
_cell_angle_beta                  89.136409
_cell_angle_gamma                 90.921281
_cell_volume                      2598.51119287

loop_
_atom_site_label
_atom_site_type_symbol
_atom_site_description
_atom_site_fract_x
_atom_site_fract_y
_atom_site_fract_z
_atom_type_partial_charge
O1    O     O_R   0.494330 0.423860 0.422200 -0.582829
O2    O     O_R   0.819690 0.434890 0.556180 -0.593148
O3    O     O_R   0.994310 0.576140 0.577800 -0.587400
C1    C     C_R   0.649544 0.420565 0.576271 0.973869
O4    O     O_R   0.823770 0.415220 0.421380 -0.587903
O5    O     O_R   0.998410 0.556340 0.442040 -0.588194
C2    C     C_R   0.655090 0.393863 0.395538 0.980206
O6    O     O_R   0.490230 0.443660 0.557960 -0.589367
O7    O     O_3   0.662220 0.546320 0.506940 -0.274030
V1    V     V_3+5 0.935390 0.491410 0.498710 1.169733
O8    O     O_R   0.328380 0.565110 0.443820 -0.585964
C3    C     C_R   0.161314 0.579448 0.423692 0.981150
O9    O     O_R   0.324310 0.584780 0.578620 -0.589877
C4    C     C_R   0.155253 0.606158 0.604451 0.967997
V2    V     V_3+5 0.435920 0.508590 0.501290 1.174308
O10   O     O_3   0.159220 0.453680 0.493060 -0.274678
C5    C     C_1   0.144867 0.668266 0.666807 -0.307687
C6    C     C_1   0.134339 0.719758 0.719116 0.056401
C7    C     C_1   0.121195 0.780235 0.780801 0.057713
C8    C     C_1   0.110625 0.831717 0.833116 -0.305928
C9    C     C_3   0.194058 0.791853 0.308471 0.225261
C10   C     C_3   0.006399 0.807766 0.276408 -0.209957
H1    H     H_    0.909938 0.855377 0.298173 0.131018
C11   C     C_1   0.098268 0.874749 0.121763 -0.300318
C12   C     C_1   0.156393 0.625165 0.378227 -0.277226
C13   C     C_3   0.300728 0.776204 0.239122 -0.303033
C14   C     C_3   0.111667 0.790803 0.207186 0.062883
C15   C     C_3   0.238945 0.693569 0.223114 0.326594
C16   C     C_3   0.138127 0.708781 0.292575 -0.066668
C17   C     C_3   0.053003 0.707919 0.190525 0.053580
C18   C     C_3   0.951540 0.724241 0.260400 0.103087
C19   C     C_1   0.102753 0.836867 0.160182 0.035414
C20   C     C_1   0.150329 0.662953 0.339782 0.078605
H2    H     H_    0.443185 0.798498 0.229923 0.148183
C21   C     C_3   0.579141 0.179541 0.715982 0.193046
C22   C     C_3   0.755926 0.221646 0.698684 0.077298
C23   C     C_1   0.637573 0.374828 0.621685 -0.303864
C24   C     C_1   0.617853 0.125062 0.878233 -0.264116
C25   C     C_3   0.452208 0.248635 0.723969 -0.135732
C26   C     C_3   0.629306 0.290731 0.707157 -0.047886
C27   C     C_3   0.503648 0.277184 0.800449 -0.118325
C28   C     C_3   0.629625 0.208171 0.791993 -0.101768
C29   C     C_3   0.679418 0.319536 0.782979 0.067452
C30   C     C_3   0.803361 0.250530 0.774665 0.307975
C31   C     C_1   0.631330 0.336902 0.660071 0.023157
C32   C     C_1   0.625107 0.162693 0.839604 0.135169
H3    H     H_    0.408983 0.299691 0.844841 0.215155
H4    H     H_    0.307573 0.249001 0.702760 0.158018
C33   C     C_1   0.644730 0.331763 0.333169 -0.296889
C34   C     C_1   0.634052 0.280280 0.280857 0.067099
C35   C     C_1   0.620694 0.219803 0.219176 0.064742
C36   C     C_1   0.610058 0.168312 0.166868 -0.298729
O11   O     O_R   0.764940 0.056420 0.942120 -0.580650
O12   O     O_R   0.431180 0.084790 0.078640 -0.587783
O13   O     O_R   0.256690 0.943640 0.057940 -0.589109
C37   C     C_R   0.599809 0.106196 0.104506 0.973383
O14   O     O_R   0.435470 0.065130 0.943840 -0.582719
O15   O     O_R   0.261010 0.923840 0.922180 -0.587570
C38   C     C_R   0.605646 0.079488 0.923783 0.969460
O16   O     O_R   0.760620 0.076220 0.077880 -0.586723
O17   O     O_3   0.592970 0.953720 0.993110 -0.277105
V3    V     V_3+5 0.319740 0.008590 0.001280 1.183817
O18   O     O_R   0.931020 0.915140 0.921290 -0.589761
C39   C     C_R   0.100126 0.893807 0.895483 0.975696
O19   O     O_R   0.926730 0.934800 0.056090 -0.593254
C40   C     C_R   0.093754 0.920505 0.076278 0.974169
V4    V     V_3+5 0.819230 0.991300 0.998610 1.178027
O20   O     O_3   0.095870 0.046270 0.006890 -0.265986
C41   C     C_3   0.728175 0.401172 0.818927 -0.303387
C42   C     C_3   0.713493 0.419332 0.895878 -0.784273
H5    H     H_    0.561823 0.416205 0.911782 0.247378
H6    H     H_    0.798649 0.380233 0.914393 0.286476
H7    H     H_    0.767866 0.476703 0.919745 0.241906
H8    H     H_    0.874799 0.414106 0.803843 0.213081
H9    H     H_    0.626694 0.436960 0.802313 0.185695
C43   C     C_3   0.259417 0.841386 0.377539 -0.351771
C44   C     C_3   0.342378 0.915096 0.372874 -0.894444
H10   H     H_    0.472891 0.905471 0.340249 0.254321
H11   H     H_    0.235175 0.944763 0.351642 0.261538
H12   H     H_    0.381925 0.950565 0.424204 0.250916
H13   H     H_    0.134518 0.852301 0.412845 0.188843
H14   H     H_    0.367449 0.812507 0.398753 0.189142
C45   C     C_3   0.756444 0.694747 0.274318 -0.245471
C46   C     C_3   0.692866 0.728428 0.347650 -0.927682
H15   H     H_    0.794317 0.714839 0.382847 0.263610
H16   H     H_    0.683503 0.789718 0.359782 0.254314
H17   H     H_    0.550617 0.705051 0.355279 0.266164
H18   H     H_    0.653571 0.709039 0.240433 0.207763
H19   H     H_    0.761807 0.633497 0.263209 0.221316
C47   C     C_3   0.973701 0.663966 0.121307 -0.364901
C48   C     C_3   0.934597 0.582308 0.115189 -0.715025
H20   H     H_    0.065510 0.555060 0.125377 0.275557
H21   H     H_    0.819164 0.576536 0.150626 0.265638
H22   H     H_    0.887350 0.553031 0.062941 0.242861
H23   H     H_    0.838710 0.689985 0.112597 0.210396
H24   H     H_    0.078827 0.667457 0.081481 0.214761
N1    N     N_R   0.362568 0.630944 0.191620 0.221080
O21   O     O_R   0.440707 0.625008 0.132798 -0.435447
O22   O     O_R   0.389584 0.579361 0.220574 -0.425411
C49   C     C_3   0.893665 0.196253 0.638211 -0.332281
C50   C     C_3   0.999502 0.125726 0.636478 -0.886293
H25   H     H_    0.104131 0.137635 0.677866 0.293891
H26   H     H_    0.901008 0.081146 0.641532 0.264796
H27   H     H_    0.076145 0.105069 0.587282 0.245819
H28   H     H_    0.811083 0.186502 0.590839 0.197829
H29   H     H_    0.999540 0.241449 0.640114 0.182844
C51   C     C_3   0.513502 0.099373 0.682025 -0.305599
C52   C     C_3   0.482246 0.084049 0.606133 -0.942158
H30   H     H_    0.407577 0.130947 0.595601 0.264421
H31   H     H_    0.620528 0.075614 0.578151 0.268654
H32   H     H_    0.394662 0.032600 0.586789 0.257231
H33   H     H_    0.620005 0.060153 0.690667 0.181449
H34   H     H_    0.377980 0.089133 0.706661 0.204029
N2    N     N_R   0.991229 0.250884 0.804256 0.229755
O23   O     O_R   0.070328 0.313425 0.838034 -0.457365
O24   O     O_R   0.069162 0.188698 0.804388 -0.439454

loop_
_geom_bond_atom_site_label_1
_geom_bond_atom_site_label_2
_geom_bond_distance
_ccdc_geom_bond_type
C15   N1    1.457198 S    
O15   V3    1.961795 S    
C9    C13   1.556613 S    
C27   C28   1.546842 S    
C50   H25   1.103130 S    
C51   H33   1.109408 S    
C21   C25   1.553392 S    
C21   C22   1.550658 S    
C46   H17   1.108309 S    
C1    O6    1.302509 A    
N2    O23   1.298321 A    
O11   C38   1.302381 A    
C47   H23   1.110793 S    
C25   C27   1.557962 S    
C44   H10   1.110660 S    
C9    C43   1.528794 S    
C49   H28   1.110450 S    
C15   C16   1.540580 S    
C46   H16   1.109464 S    
O5    C3    1.302623 A    
C17   C18   1.548456 S    
O14   C38   1.303541 A    
V2    O10   2.162477 S    
O13   V3    1.968816 S    
C16   C20   1.485700 S    
C18   C45   1.518853 S    
C52   H30   1.109792 S    
C6    C7    1.440312 S    
C28   C32   1.483183 S    
C21   C28   1.547551 S    
C51   H34   1.109241 S    
O8    V2    1.977116 S    
C13   H2    1.109404 S    
C26   C29   1.543512 S    
C7    C8    1.223188 T    
O16   V4    1.965948 S    
O19   V4    1.976891 S    
C51   C52   1.527645 S    
C42   H5    1.110402 S    
O1    V2    1.961417 S    
O7    V1    2.165559 S    
C17   C47   1.532882 S    
C45   H18   1.101084 S    
C30   N2    1.455340 S    
C50   H26   1.104750 S    
O9    C4    1.308140 A    
C14   C17   1.545972 S    
C27   C29   1.549086 S    
C4    C5    1.464642 S    
O17   V3    2.165673 S    
C28   C30   1.536983 S    
N1    O22   1.300282 A    
N1    O21   1.300393 A    
O18   V4    1.966564 S    
C44   H11   1.110838 S    
O15   C39   1.304432 A    
C26   C31   1.484354 S    
C45   H19   1.108978 S    
O12   C37   1.308618 A    
C10   C18   1.551949 S    
V4    O20   2.162553 S    
O14   V3    1.971843 S    
C43   C44   1.524550 S    
C2    C33   1.464788 S    
C43   H14   1.105357 S    
C48   H20   1.108502 S    
O4    C2    1.308612 A    
O12   V3    1.967272 S    
C34   C35   1.440470 S    
C9    C16   1.545843 S    
C35   C36   1.223290 T    
C8    C39   1.464647 S    
O2    C1    1.303434 A    
C29   C30   1.538953 S    
C11   C19   1.215396 T    
C48   H21   1.106876 S    
O17   V4    1.712866 S    
C45   C46   1.522872 S    
C22   C26   1.550503 S    
C42   H7    1.110458 S    
C5    C6    1.223188 T    
C27   H3    1.104672 S    
C41   H8    1.110333 S    
C22   C49   1.530717 S    
C46   H15   1.108414 S    
O3    C4    1.304413 A    
O19   C40   1.303488 A    
C50   H27   1.108660 S    
C10   C14   1.548155 S    
O9    V2    1.966469 S    
C13   C14   1.549478 S    
C22   C30   1.542301 S    
C23   C31   1.214402 T    
O2    V1    1.971958 S    
C25   C26   1.548596 S    
O13   C40   1.302944 A    
C44   H12   1.110446 S    
C14   C19   1.484082 S    
O1    C2    1.304607 A    
C49   H29   1.110889 S    
O18   C39   1.308128 A    
C43   H13   1.110964 S    
O5    V1    1.968636 S    
N2    O24   1.300320 A    
O8    C3    1.303523 A    
C47   H24   1.110734 S    
C11   C40   1.452042 S    
O6    V2    1.971506 S    
C13   C15   1.548227 S    
C52   H32   1.110333 S    
V3    O20   1.715900 S    
C3    C12   1.451245 S    
C15   C17   1.535996 S    
O7    V2    1.714066 S    
O4    V1    1.967307 S    
C16   C18   1.542335 S    
O3    V1    1.961737 S    
V1    O10   1.715971 S    
C48   H22   1.110402 S    
C47   C48   1.526126 S    
C49   C50   1.521614 S    
C52   H31   1.107618 S    
C41   H9    1.111002 S    
C41   C42   1.527559 S    
O11   V4    1.971435 S    
C24   C32   1.214370 T    
C21   C51   1.531259 S    
C24   C38   1.450379 S    
C37   O16   1.304578 A    
C1    C23   1.450407 S    
C29   C41   1.532581 S    
C33   C34   1.223281 T    
C10   H1    1.110292 S    
C42   H6    1.109133 S    
C9    C10   1.550417 S    
C36   C37   1.464817 S    
C12   C20   1.215001 T    
C25   H4    1.108353 S    
