data_mof_unit_34713.cif
_audit_creation_date              2012-12-11T15:21:35-0500
_audit_creation_method            fapswitch 2.2
_symmetry_space_group_name_H-M    P1
_symmetry_Int_Tables_number       1
_space_group_crystal_system       triclinic
_cell_length_a                    19.142219
_cell_length_b                    7.129832
_cell_length_c                    17.695808
_cell_angle_alpha                 89.998806
_cell_angle_beta                  109.102882
_cell_angle_gamma                 89.998707
_cell_volume                      2282.14239407

loop_
_atom_site_label
_atom_site_type_symbol
_atom_type_description
_atom_site_fract_x
_atom_site_fract_y
_atom_site_fract_z
_atom_type_partial_charge
O1    O     O_R   0.562310 0.505770 0.439670 -0.544048
O2    O     O_R   0.437690 0.005770 0.560330 -0.544074
O3    O     O_R   0.411650 0.169150 0.405330 -0.536074
O4    O     O_R   0.588350 0.669150 0.594670 -0.536058
C1    C     C_R   0.384736 0.345436 0.382851 0.635265
C2    C     C_R   0.615265 0.845432 0.617148 0.635289
O5    O     O_R   0.560140 0.175610 0.430010 -0.530305
O6    O     O_R   0.439860 0.675610 0.569990 -0.530375
O7    O     O_R   0.587240 0.012100 0.585200 -0.541630
O8    O     O_R   0.412760 0.512100 0.414800 -0.541653
C3    C     C_R   0.580673 0.344075 0.414574 0.748036
C4    C     C_R   0.419332 0.844078 0.585433 0.747965
O9    O     O_3   0.508720 0.341420 0.550890 -0.374630
O10   O     O_3   0.491280 0.841420 0.449110 -0.374667
V1    V     V_3+5 0.498380 0.063930 0.490560 1.378171
V2    V     V_3+5 0.501620 0.563930 0.509440 1.378148
C5    C     C_R   0.185509 0.795866 0.881163 -0.259005
C6    C     C_R   0.814503 0.295848 0.118853 -0.258998
C7    C     C_R   0.124656 0.917252 0.859104 -0.111396
C8    C     C_R   0.875349 0.417256 0.140904 -0.111396
C9    C     C_R   0.109666 0.027314 0.788190 0.099986
C10   C     C_R   0.890320 0.527377 0.211803 0.099913
C11   C     C_R   0.158522 0.014801 0.741936 0.045615
C12   C     C_R   0.841473 0.514835 0.258066 0.045651
C13   C     C_R   0.220145 0.892323 0.766295 0.034881
C14   C     C_R   0.779860 0.392320 0.233715 0.034862
C15   C     C_R   0.233177 0.783488 0.836144 0.112350
C16   C     C_R   0.766827 0.283489 0.163864 0.112334
C17   C     C_R   0.147157 0.120363 0.671520 -0.232917
C18   C     C_R   0.852827 0.620434 0.328475 -0.232859
C19   C     C_R   0.194873 0.108714 0.626023 0.150973
C20   C     C_R   0.805118 0.608763 0.373975 0.150995
C21   C     C_R   0.257369 0.988578 0.651482 0.074391
C22   C     C_R   0.742636 0.488582 0.348528 0.074363
C23   C     C_R   0.269118 0.877869 0.721009 -0.027402
C24   C     C_R   0.730890 0.377857 0.279004 -0.027395
C25   C     C_R   0.330273 0.753087 0.746011 0.019103
C26   C     C_R   0.669734 0.253074 0.254000 0.019072
C27   C     C_R   0.343049 0.651495 0.817412 -0.168027
C28   C     C_R   0.656938 0.151549 0.182576 -0.168080
C29   C     C_R   0.294727 0.664998 0.861271 -0.190752
C30   C     C_R   0.705261 0.165047 0.138721 -0.190710
C31   C     C_R   0.308526 0.976477 0.609672 -0.305436
C32   C     C_R   0.691479 0.476490 0.390338 -0.305378
C33   C     C_R   0.368391 0.851563 0.633073 -0.169649
C34   C     C_R   0.631620 0.351552 0.366942 -0.169594
C35   C     C_R   0.378050 0.733631 0.699888 0.348517
C36   C     C_R   0.621970 0.233593 0.300136 0.348405
H1    H     H_    0.196738 0.712606 0.935185 0.124448
H2    H     H_    0.803279 0.212573 0.064836 0.124451
H3    H     H_    0.100993 0.215423 0.650557 0.137383
H4    H     H_    0.898978 0.715542 0.349432 0.137365
H5    H     H_    0.302284 0.062563 0.557619 0.146347
H6    H     H_    0.697712 0.562606 0.442381 0.146319
H7    H     H_    0.390646 0.560663 0.840093 0.157704
H8    H     H_    0.609321 0.060780 0.159878 0.157638
H9    H     H_    0.305867 0.582867 0.915491 0.121929
H10   H     H_    0.694109 0.082960 0.084487 0.121926
C37   C     C_3   0.789534 0.698786 0.795844 -0.288985
C38   C     C_3   0.210488 0.198786 0.204136 -0.289017
H11   H     H_    0.834416 0.618521 0.783290 0.139372
H12   H     H_    0.165611 0.118474 0.216681 0.139381
H13   H     H_    0.782026 0.636983 0.850456 0.137056
H14   H     H_    0.218006 0.137030 0.149520 0.137039
C39   C     C_3   0.717172 0.672614 0.724903 -0.332158
C40   C     C_3   0.282850 0.172623 0.275078 -0.332150
H15   H     H_    0.675463 0.600188 0.746035 0.146303
H16   H     H_    0.324568 0.100237 0.253946 0.146322
H17   H     H_    0.727993 0.581211 0.678941 0.133807
H18   H     H_    0.272032 0.081184 0.321032 0.133822
H19   H     H_    0.866932 0.915633 0.719819 0.117692
H20   H     H_    0.133060 0.415533 0.280176 0.117691
H21   H     H_    0.759589 0.874563 0.614105 0.125661
H22   H     H_    0.240407 0.374453 0.385884 0.125669
C41   C     C_3   0.820648 0.988540 0.732639 -0.335711
C42   C     C_3   0.179341 0.488478 0.267362 -0.335706
C43   C     C_3   0.747045 0.014610 0.826373 -0.331233
C44   C     C_3   0.252950 0.514670 0.173633 -0.331209
C45   C     C_3   0.812159 0.910517 0.810903 0.120146
C46   C     C_3   0.187843 0.410514 0.189093 0.120182
H23   H     H_    0.759857 0.166889 0.835354 0.138527
H24   H     H_    0.240123 0.666950 0.164662 0.138531
H25   H     H_    0.739430 0.960739 0.882176 0.124268
H26   H     H_    0.260574 0.460842 0.117828 0.124254
C47   C     C_3   0.686837 0.864586 0.687863 0.121733
C48   C     C_3   0.313165 0.364592 0.312134 0.121762
C49   C     C_3   0.747973 0.960996 0.660994 -0.316353
C50   C     C_3   0.252017 0.460935 0.339006 -0.316404
C51   C     C_3   0.674155 0.987581 0.755048 -0.308114
C52   C     C_3   0.325840 0.487648 0.244960 -0.308119
H27   H     H_    0.631683 0.921050 0.776775 0.138083
H28   H     H_    0.368321 0.421170 0.223234 0.138057
H29   H     H_    0.652521 0.127802 0.730867 0.144590
H30   H     H_    0.347457 0.627869 0.269153 0.144577
H31   H     H_    0.834829 0.140326 0.739815 0.138315
H32   H     H_    0.165149 0.640266 0.260197 0.138285
H33   H     H_    0.728349 0.100175 0.633871 0.140217
H34   H     H_    0.271627 0.600105 0.366142 0.140204
O11   O     O_R   0.087220 0.271820 0.085230 -0.540556
O12   O     O_R   0.912780 0.771820 0.914770 -0.540552
O13   O     O_R   0.939860 0.595540 0.069990 -0.534894
O14   O     O_R   0.060140 0.095540 0.930010 -0.534899
C53   C     C_R   0.921224 0.426614 0.087470 0.703358
C54   C     C_R   0.078779 0.926613 0.912535 0.703383
O15   O     O_R   0.088340 0.601930 0.094680 -0.538979
O16   O     O_R   0.911660 0.101930 0.905320 -0.538965
O17   O     O_R   0.062310 0.765410 0.939660 -0.536794
O18   O     O_R   0.937690 0.265410 0.060340 -0.536782
C55   C     C_R   0.116071 0.431435 0.118090 0.634470
C56   C     C_R   0.883930 0.931438 0.881908 0.634481
O19   O     O_3   0.991270 0.429630 0.949130 -0.370481
O20   O     O_3   0.008730 0.929630 0.050870 -0.370456
V3    V     V_3+5 0.001620 0.707150 0.009440 1.369915
V4    V     V_3+5 0.998380 0.207150 0.990560 1.369929
C57   C     C_3   0.040337 0.149231 0.760289 -0.367684
C58   C     C_3   0.058074 0.355704 0.782112 -0.670996
H35   H     H_    0.084246 0.372363 0.847696 0.242139
H36   H     H_    0.096287 0.413461 0.752497 0.209593
H37   H     H_    0.006213 0.439061 0.762749 0.193770
H38   H     H_    0.012194 0.134038 0.694954 0.154054
H39   H     H_    0.997717 0.101486 0.785883 0.168780
C59   C     C_3   0.959584 0.649535 0.239636 -0.367713
C60   C     C_3   0.941712 0.855909 0.217708 -0.670844
H40   H     H_    0.915438 0.872341 0.152139 0.242054
H41   H     H_    0.903548 0.913642 0.247383 0.209565
H42   H     H_    0.993516 0.939445 0.236929 0.193842
H43   H     H_    0.987752 0.634550 0.304975 0.154015
H44   H     H_    0.002226 0.601869 0.214057 0.168859
C61   C     C_3   0.175294 0.224075 0.549692 -0.361008
C62   C     C_3   0.217459 0.409430 0.563031 -0.768908
H45   H     H_    0.208330 0.488628 0.613095 0.235052
H46   H     H_    0.277309 0.384006 0.576685 0.205997
H47   H     H_    0.197778 0.496151 0.507965 0.211085
H48   H     H_    0.185070 0.143554 0.500408 0.163246
H49   H     H_    0.115184 0.256881 0.528035 0.171802
C63   C     C_3   0.824686 0.724180 0.450281 -0.361107
C64   C     C_3   0.782577 0.909600 0.436891 -0.769244
H50   H     H_    0.722746 0.884336 0.423295 0.206058
H51   H     H_    0.802302 0.996421 0.491902 0.211169
H52   H     H_    0.791695 0.988604 0.386792 0.235132
H53   H     H_    0.814864 0.643785 0.499568 0.163276
H54   H     H_    0.884799 0.756845 0.471957 0.171841
O21   O     O_3   0.439775 0.618507 0.725842 -0.562234
C65   C     C_3   0.419108 0.430523 0.703677 0.103609
H55   H     H_    0.403914 0.412291 0.638013 0.146888
H56   H     H_    0.371648 0.383562 0.722217 0.111761
C66   C     C_3   0.484476 0.302663 0.743363 -0.673721
H57   H     H_    0.500516 0.314824 0.809427 0.205239
H58   H     H_    0.469329 0.154781 0.725970 0.180417
H59   H     H_    0.532320 0.342299 0.724309 0.218086
O22   O     O_3   0.560254 0.118449 0.274204 -0.562284
C67   C     C_3   0.580944 0.930454 0.296344 0.103946
H60   H     H_    0.596347 0.912261 0.362047 0.146549
H61   H     H_    0.628274 0.883439 0.277583 0.111802
C68   C     C_3   0.515483 0.802627 0.256875 -0.673518
H62   H     H_    0.530685 0.654551 0.273930 0.180312
H63   H     H_    0.467881 0.841926 0.276396 0.218183
H64   H     H_    0.499053 0.815401 0.190786 0.205288

loop_
_geom_bond_atom_site_label_1
_geom_bond_atom_site_label_2
_ccdc_geom_bond_type
C40   H16   S    
O12   C56   A    
C57   H39   S    
C68   H63   S    
O13   V3    S    
C66   H57   S    
O1    C3    A    
C9    C57   S    
O2    C4    A    
C30   H10   S    
O11   V4    S    
C41   H31   S    
C60   H40   S    
C27   C29   A    
C8    C53   S    
C44   C52   S    
O5    C3    A    
C64   H51   S    
C43   C51   S    
C2    C47   S    
O16   V4    S    
C11   C17   A    
O15   V3    S    
C26   C28   A    
C12   C14   A    
O16   C56   A    
C44   C46   S    
C60   H41   S    
C43   H25   S    
C57   C58   S    
O11   C55   A    
C35   O21   S    
C14   C24   A    
C58   H35   S    
C6    C8    A    
C38   H12   S    
O18   V4    S    
C59   H43   S    
C44   H24   S    
O17   V3    S    
C63   H54   S    
C5    C7    A    
C61   H49   S    
C31   H5    S    
C27   H7    S    
C39   H15   S    
C46   C55   S    
O22   C67   S    
C19   C21   A    
C10   C59   S    
C53   O18   A    
C51   H27   S    
C42   C50   S    
C26   C36   A    
H20   C42   S    
C43   C45   S    
C38   C40   S    
O6    V2    S    
C68   H64   S    
C17   C19   A    
C2    O7    A    
C65   C66   S    
C19   C61   S    
O20   V3    S    
C32   C34   A    
C52   H30   S    
C33   C35   A    
C64   H52   S    
C34   C36   A    
C37   H11   S    
C47   C49   S    
C5    C15   A    
C66   H59   S    
C6    C16   A    
C65   H56   S    
C48   C52   S    
C37   C45   S    
C20   C63   S    
C47   C51   S    
C4    C33   S    
C60   H42   S    
C49   H33   S    
O5    V1    S    
C28   H8    S    
C21   C31   A    
O4    V2    S    
C62   H46   S    
C63   H53   S    
O14   V4    S    
C18   C20   A    
C32   H6    S    
C7    C54   S    
C15   C29   A    
C52   H28   S    
C67   C68   S    
C43   H23   S    
O6    C4    A    
C22   C32   A    
O1    V2    S    
O14   C54   A    
O2    V1    S    
C31   C33   A    
C13   C23   A    
C1    C48   S    
O4    C2    A    
C67   H61   S    
C9    C11   A    
C10   C12   A    
C36   O22   S    
C62   H47   S    
C25   C35   A    
C5    H1    S    
H21   C49   S    
O3    V1    S    
C6    H2    S    
C61   C62   S    
C17   H3    S    
C41   C49   S    
O15   C55   A    
C38   C46   S    
C45   C56   S    
C23   C25   A    
C14   C16   A    
O12   V3    S    
C42   C46   S    
C8    C10   A    
C28   C30   A    
O3    C1    A    
C40   C48   S    
C59   H44   S    
C39   C47   S    
C13   C15   A    
C66   H58   S    
C64   H50   S    
C37   H13   S    
C58   H37   S    
C38   H14   S    
C65   H55   S    
C24   C26   A    
C62   H45   S    
O7    V1    S    
C29   H9    S    
C1    O8    A    
C25   C27   A    
O8    V2    S    
C37   C39   S    
H19   C41   S    
C40   H18   S    
C18   H4    S    
C39   H17   S    
C16   C30   A    
C21   C23   A    
C22   C24   A    
C58   H36   S    
O19   V4    S    
C48   C50   S    
C11   C13   A    
C51   H29   S    
C12   C18   A    
C61   H48   S    
C50   H34   S    
C44   H26   S    
C67   H60   S    
O13   C53   A    
C57   H38   S    
O9    V2    S    
C68   H62   S    
O10   V1    S    
C63   C64   S    
C3    C34   S    
H22   C50   S    
C59   C60   S    
C41   C45   S    
C54   O17   A    
C42   H32   S    
O21   C65   S    
C20   C22   A    
C7    C9    A    
