data_mof_unit_11170.cif
_audit_creation_date              2012-12-11T14:57:54-0500
_audit_creation_method            fapswitch 2.2
_symmetry_space_group_name_H-M    P1
_symmetry_Int_Tables_number       1
_space_group_crystal_system       triclinic
_cell_length_a                    6.938074
_cell_length_b                    16.647833
_cell_length_c                    17.181723
_cell_angle_alpha                 100.541452
_cell_angle_beta                  90.383552
_cell_angle_gamma                 90.159996
_cell_volume                      1951.0022315

loop_
_atom_site_label
_atom_site_type_symbol
_atom_type_description
_atom_site_fract_x
_atom_site_fract_y
_atom_site_fract_z
_atom_type_partial_charge
O1    O     O_R   0.506180 0.438940 0.579430 -0.549679
O2    O     O_R   0.170520 0.406230 0.413590 -0.547703
O3    O     O_R   0.005180 0.561060 0.420570 -0.518272
C1    C     C_R   0.339258 0.383408 0.385050 0.660302
O4    O     O_R   0.176140 0.429310 0.578370 -0.516917
O5    O     O_R   0.010830 0.584300 0.586530 -0.527835
C2    C     C_R   0.344513 0.412750 0.604293 0.754143
O6    O     O_R   0.500520 0.415700 0.413470 -0.549639
O7    O     O_3   0.340830 0.550820 0.502480 -0.349264
V1    V     V_3+5 0.064040 0.490570 0.499540 1.533806
O8    O     O_R   0.681400 0.593770 0.586410 -0.526868
C3    C     C_R   0.850527 0.619268 0.612467 0.788232
O9    O     O_R   0.675790 0.570690 0.421630 -0.530172
C4    C     C_R   0.842674 0.585045 0.393705 0.800365
V2    V     V_3+5 0.564650 0.509430 0.500460 1.527484
O10   O     O_3   0.837730 0.449180 0.497520 -0.381403
C5    C     C_R   0.929366 0.862777 0.168019 -0.083648
C6    C     C_R   0.840768 0.639579 0.333598 -0.071040
C7    C     C_R   0.649331 0.700297 0.239469 -0.170910
C8    C     C_R   0.671244 0.643009 0.288700 -0.202350
C9    C     C_R   0.992530 0.694785 0.327416 0.331651
C10   C     C_R   0.972949 0.751645 0.274792 0.051393
C11   C     C_R   0.797933 0.755147 0.232051 0.137306
C12   C     C_R   0.775556 0.811801 0.180585 -0.189211
C13   C     C_R   0.102629 0.858350 0.210171 -0.118358
C14   C     C_R   0.124618 0.803827 0.262211 -0.125258
H1    H     H_    0.642181 0.813421 0.147667 0.118794
H2    H     H_    0.224960 0.896322 0.201679 0.146288
H3    H     H_    0.515640 0.701281 0.206664 0.119284
H4    H     H_    0.264115 0.801623 0.290085 0.171494
H5    H     H_    0.552035 0.601884 0.292888 0.147679
H6    H     H_    0.708955 0.619182 0.965791 0.107162
C15   C     C_R   0.033969 0.903776 0.732392 -0.222737
C16   C     C_R   0.071585 0.922041 0.658188 0.246777
C17   C     C_R   0.001041 0.869231 0.590215 0.329073
C18   C     C_R   0.916447 0.794371 0.598040 0.311228
C19   C     C_R   0.909908 0.768872 0.672837 -0.067214
C20   C     C_R   0.950757 0.828361 0.741514 -0.066288
C21   C     C_R   0.857236 0.688090 0.681627 -0.089960
C22   C     C_R   0.819013 0.671269 0.758250 -0.070325
C23   C     C_R   0.840895 0.733529 0.826937 0.045255
C24   C     C_R   0.905363 0.812875 0.817866 -0.105952
C25   C     C_R   0.756966 0.592359 0.767186 -0.139277
C26   C     C_R   0.715056 0.573944 0.840836 0.366014
C27   C     C_R   0.738909 0.634129 0.908283 -0.286976
C28   C     C_R   0.803443 0.713098 0.902736 0.311065
H7    H     H_    0.077018 0.949200 0.782837 0.158717
H8    H     H_    0.738494 0.543305 0.716904 0.152547
H9    H     H_    0.371701 0.492179 0.138783 0.113659
C29   C     C_R   0.345349 0.213982 0.404044 -0.209010
C30   C     C_R   0.362250 0.133855 0.416303 -0.128350
C31   C     C_R   0.396904 0.070758 0.352826 0.441871
C32   C     C_R   0.412727 0.087383 0.276375 -0.206320
C33   C     C_R   0.396758 0.168194 0.262143 0.009572
C34   C     C_R   0.364080 0.232939 0.327538 0.069954
C35   C     C_R   0.414319 0.185028 0.184416 -0.154658
C36   C     C_R   0.402059 0.266989 0.172608 0.066634
C37   C     C_R   0.372034 0.331831 0.238208 0.065311
C38   C     C_R   0.352262 0.314905 0.315780 -0.153538
C39   C     C_R   0.419049 0.285978 0.095982 -0.131514
C40   C     C_R   0.408200 0.366520 0.084277 -0.099119
C41   C     C_R   0.379962 0.429732 0.148223 -0.124978
C42   C     C_R   0.361671 0.412920 0.224381 -0.155255
H10   H     H_    0.317265 0.260845 0.455146 0.104365
H11   H     H_    0.348960 0.120952 0.475575 0.161405
H12   H     H_    0.439909 0.036599 0.228656 0.123849
H13   H     H_    0.441690 0.238934 0.044423 0.092412
H14   H     H_    0.421892 0.379935 0.025225 0.126252
H15   H     H_    0.338336 0.464081 0.272126 0.099813
C43   C     C_R   0.421233 0.136370 0.832170 -0.077000
C44   C     C_R   0.345423 0.359811 0.665796 -0.205697
C45   C     C_R   0.182906 0.320948 0.780528 0.248814
C46   C     C_R   0.208342 0.376109 0.727240 0.265468
C47   C     C_R   0.470532 0.291643 0.662267 0.227669
C48   C     C_R   0.455579 0.241110 0.719907 0.050484
C49   C     C_R   0.309241 0.254606 0.778033 0.022308
C50   C     C_R   0.291359 0.200936 0.832888 -0.137276
C51   C     C_R   0.566298 0.124174 0.774756 -0.141931
C52   C     C_R   0.582155 0.175035 0.718977 -0.062405
H16   H     H_    0.181820 0.210944 0.878255 0.162155
H17   H     H_    0.668876 0.074929 0.773177 0.129731
H18   H     H_    0.695932 0.162694 0.675628 0.174946
O11   O     O_R   0.265840 0.084300 0.086750 -0.538915
O12   O     O_R   0.589750 0.070740 0.921690 -0.544178
O13   O     O_R   0.755020 0.915730 0.913400 -0.526721
C53   C     C_R   0.421615 0.086045 0.895023 0.688757
O14   O     O_R   0.595830 0.093740 0.086480 -0.539155
O15   O     O_R   0.761150 0.938890 0.079360 -0.530871
C54   C     C_R   0.427179 0.116501 0.115174 0.688947
O16   O     O_R   0.259710 0.061140 0.920790 -0.543206
O17   O     O_3   0.425260 0.949200 0.997610 -0.365088
V3    V     V_3+5 0.702060 0.009430 0.000450 1.461677
O18   O     O_R   0.090530 0.929220 0.078150 -0.544933
C55   C     C_R   0.924082 0.914596 0.105853 0.756279
O19   O     O_R   0.084440 0.906220 0.913360 -0.542340
C56   C     C_R   0.915237 0.882086 0.886248 0.800287
V4    V     V_3+5 0.201450 0.990520 0.999290 1.450994
O20   O     O_3   0.928380 0.050800 0.002390 -0.374768
O21   O     O_3   0.002649 0.890372 0.516061 -0.587533
H19   H     H_    0.005367 0.950648 0.521998 0.321122
Cl1   Cl    Cl    0.776045 0.746949 0.516881 -0.600408
O22   O     O_3   0.652438 0.496046 0.844854 -0.646319
H20   H     H_    0.629006 0.492479 0.901001 0.287440
O23   O     O_3   0.834874 0.769503 0.971197 -0.658891
H21   H     H_    0.806116 0.744417 0.017877 0.273730
Cl2   Cl    Cl    0.422561 0.970372 0.369339 -0.645317
O24   O     O_3   0.034507 0.329955 0.834691 -0.650488
H22   H     H_    0.925301 0.357584 0.813270 0.323754
O25   O     O_3   0.103428 0.447542 0.734671 -0.637611
H23   H     H_    0.070030 0.465766 0.791081 0.308121
O26   O     O_3   0.605875 0.271320 0.603189 -0.639446
H24   H     H_    0.569796 0.295326 0.556733 0.289757
O27   O     O_3   0.153351 0.693365 0.374933 -0.627631
H25   H     H_    0.199607 0.750080 0.392576 0.339457
O28   O     O_3   0.170839 0.993318 0.655049 -0.639367
H26   H     H_    0.237712 0.987101 0.603563 0.314437

loop_
_geom_bond_atom_site_label_1
_geom_bond_atom_site_label_2
_ccdc_geom_bond_type
O18   C55   A    
C34   C38   A    
C43   C51   A    
C6    C9    A    
C29   H10   S    
C23   C24   A    
C4    C6    S    
O2    C1    A    
C7    C8    A    
C40   H14   S    
C12   H1    S    
C1    O6    A    
V4    O20   S    
V3    O20   S    
C27   C28   A    
C31   C32   A    
C13   H2    S    
C19   C20   A    
C24   C56   S    
C18   C19   A    
C16   O28   S    
O12   C53   A    
C20   C24   A    
C2    C44   S    
O13   C56   A    
V2    O10   S    
C35   C36   A    
C16   C17   A    
C30   H11   S    
O8    V2    S    
C22   C25   A    
O15   V3    S    
C39   H13   S    
C23   C28   A    
O1    V2    S    
C25   H8    S    
O16   V4    S    
C45   C49   A    
C31   Cl2   S    
O9    C4    A    
C43   C50   A    
O22   H20   S    
C17   O21   S    
O23   H21   S    
O13   V3    S    
C29   C30   A    
O15   C55   A    
O11   C54   A    
C33   C35   A    
C5    C12   A    
C47   C48   A    
C30   C31   A    
C42   H15   S    
C49   C50   A    
C9    O27   S    
C53   O16   A    
O17   V3    S    
C44   C46   A    
C26   O22   S    
C51   C52   A    
C36   C39   A    
C13   C14   A    
C32   C33   A    
C28   O23   S    
C18   Cl1   S    
C17   C18   A    
C7    C11   A    
C48   C49   A    
C41   C42   A    
C52   H18   S    
O21   H19   S    
C45   O24   S    
O24   H22   S    
C15   C16   A    
H6    C27   S    
O17   V4    S    
C32   H12   S    
O3    C4    A    
C43   C53   S    
C22   C23   A    
C14   H4    S    
O6    V2    S    
O9    V2    S    
C25   C26   A    
O11   V4    S    
C15   H7    S    
C7    H3    S    
O18   V4    S    
C47   O26   S    
O14   V3    S    
C26   C27   A    
O4    C2    A    
O27   H25   S    
O7    V1    S    
C50   H16   S    
C37   C42   A    
C33   C34   A    
C35   C54   S    
H9    C41   S    
O26   H24   S    
O1    C2    A    
C29   C34   A    
C45   C46   A    
O5    V1    S    
C44   C47   A    
O8    C3    A    
O19   V4    S    
C46   O25   S    
C15   C20   A    
C5    C13   A    
C3    C21   S    
O14   C54   A    
C37   C38   A    
O4    V1    S    
C19   C21   A    
O3    V1    S    
V1    O10   S    
O25   H23   S    
O5    C3    A    
C51   H17   S    
C36   C37   A    
C1    C38   S    
C6    C8    A    
O7    V2    S    
C40   C41   A    
C11   C12   A    
C21   C22   A    
C10   C14   A    
O19   C56   A    
C10   C11   A    
C39   C40   A    
C5    C55   S    
O12   V3    S    
C9    C10   A    
C48   C52   A    
O28   H26   S    
C8    H5    S    
O2    V1    S    
