data_mof_unit_35373.cif
_audit_creation_date              2013-03-05T15:55:31-0500
_audit_creation_method            fapswitch 2.2
_symmetry_space_group_name_H-M    P1
_symmetry_Int_Tables_number       1
_space_group_crystal_system       triclinic
_cell_length_a                    20.066631
_cell_length_b                    7.281931
_cell_length_c                    13.748244
_cell_angle_alpha                 89.999755
_cell_angle_beta                  103.085655
_cell_angle_gamma                 90.002373
_cell_volume                      1956.77902516

loop_
_atom_site_label
_atom_site_type_symbol
_atom_site_description
_atom_site_fract_x
_atom_site_fract_y
_atom_site_fract_z
_atom_type_partial_charge
O1    O     O_R   0.449560 0.506810 0.599700 -0.584306
O2    O     O_R   0.550440 0.006810 0.400300 -0.584292
O3    O     O_R   0.587960 0.180060 0.595760 -0.573231
O4    O     O_R   0.412040 0.680060 0.404240 -0.573228
C1    C     C_R   0.617189 0.342193 0.610821 1.071843
C2    C     C_R   0.382810 0.842189 0.389179 1.071838
O5    O     O_R   0.452380 0.177430 0.611700 -0.593726
O6    O     O_R   0.547620 0.677430 0.388300 -0.593723
O7    O     O_R   0.413900 0.001890 0.416350 -0.537097
O8    O     O_R   0.586100 0.501890 0.583650 -0.537087
C3    C     C_R   0.436464 0.346072 0.636944 1.083638
C4    C     C_R   0.563536 0.846078 0.363054 1.083632
O9    O     O_3   0.487530 0.337490 0.435890 -0.274159
O10   O     O_3   0.512470 0.837490 0.564110 -0.274160
V1    V     V_3+5 0.502310 0.064660 0.511890 1.345754
V2    V     V_3+5 0.497690 0.564660 0.488110 1.345762
C5    C     C_R   0.604180 0.965054 0.116968 0.262634
C6    C     C_R   0.395830 0.465009 0.883036 0.262653
C7    C     C_R   0.599810 0.859915 0.282654 -0.231746
C8    C     C_R   0.400191 0.359894 0.717345 -0.231766
C9    C     C_R   0.926997 0.837804 0.309844 -0.396469
C10   C     C_R   0.072998 0.337698 0.690163 -0.396408
C11   C     C_R   0.890635 0.827945 0.385128 0.627955
C12   C     C_R   0.109359 0.327772 0.614880 0.627936
C13   C     C_R   0.819473 0.836753 0.359923 -0.189128
C14   C     C_R   0.180520 0.336633 0.640078 -0.189098
C15   C     C_R   0.782446 0.853061 0.259366 -0.023388
C16   C     C_R   0.217549 0.353073 0.740627 -0.023315
C17   C     C_R   0.819740 0.866594 0.182860 -0.014064
C18   C     C_R   0.180253 0.366731 0.817127 -0.014249
C19   C     C_R   0.709502 0.863504 0.233988 0.086024
C20   C     C_R   0.290497 0.363507 0.766006 0.086050
C21   C     C_R   0.674990 0.916257 0.136023 -0.213804
C22   C     C_R   0.325014 0.416258 0.863972 -0.214111
C23   C     C_R   0.711808 0.916363 0.059717 0.234694
C24   C     C_R   0.288186 0.416470 0.940262 0.235208
C25   C     C_R   0.783130 0.884742 0.082041 0.333341
C26   C     C_R   0.216865 0.385019 0.917932 0.332854
C27   C     C_R   0.669778 0.824689 0.303967 -0.263194
C28   C     C_R   0.330221 0.324683 0.696029 -0.263165
C29   C     C_R   0.566920 0.937188 0.191469 0.429467
C30   C     C_R   0.433088 0.437136 0.808536 0.429492
C31   C     C_R   0.892808 0.858007 0.209986 -0.140997
C32   C     C_R   0.107188 0.358046 0.790012 -0.140993
H1    H     H_    0.691896 0.767929 0.376584 0.163006
H2    H     H_    0.308104 0.267944 0.623407 0.162991
H3    H     H_    0.982430 0.831204 0.329135 0.123242
H4    H     H_    0.017566 0.331025 0.670880 0.123240
H5    H     H_    0.794711 0.836994 0.421779 0.150364
H6    H     H_    0.205278 0.336785 0.578218 0.150344
C33   C     C_R   0.201038 0.003167 0.267599 0.400144
C34   C     C_R   0.798967 0.503174 0.732400 0.400391
C35   C     C_R   0.266463 0.992916 0.334016 0.544565
C36   C     C_R   0.733540 0.492923 0.665984 0.544522
C37   C     C_R   0.309367 0.841340 0.331240 -0.460072
C38   C     C_R   0.690633 0.341343 0.668757 -0.460046
C39   C     C_R   0.278414 0.681090 0.282097 0.373563
C40   C     C_R   0.721584 0.181087 0.717895 0.373769
C41   C     C_R   0.215527 0.693158 0.213114 -0.192939
C42   C     C_R   0.784476 0.193160 0.786868 -0.193561
H7    H     H_    0.194639 0.570709 0.173064 0.221357
H8    H     H_    0.805373 0.070714 0.826900 0.220933
C43   C     C_R   0.177788 0.856360 0.199971 -0.391955
C44   C     C_R   0.822215 0.356361 0.800020 -0.391611
O11   O     O_R   0.913920 0.203370 0.916260 -0.575921
O12   O     O_R   0.086080 0.703370 0.083740 -0.575705
O13   O     O_R   0.047620 0.535540 0.888290 -0.596050
O14   O     O_R   0.952380 0.035540 0.111710 -0.596243
C45   C     C_R   0.064413 0.368091 0.863460 1.054219
C46   C     C_R   0.935590 0.868083 0.136544 1.054299
O15   O     O_R   0.912040 0.532780 0.904220 -0.567823
O16   O     O_R   0.087960 0.032780 0.095780 -0.568114
O17   O     O_R   0.949550 0.708160 0.099720 -0.582361
O18   O     O_R   0.050450 0.208160 0.900280 -0.582656
C47   C     C_R   0.887348 0.364561 0.878603 0.974415
C48   C     C_R   0.112654 0.864563 0.121392 0.974368
O19   O     O_3   0.012480 0.375300 0.064060 -0.280035
O20   O     O_3   0.987520 0.875300 0.935940 -0.280026
V3    V     V_3+5 0.997690 0.648180 0.988110 1.248627
V4    V     V_3+5 0.002310 0.148180 0.011890 1.248284
O21   O     O_3   0.498799 0.986190 0.179182 -0.690482
H9    H     H_    0.483476 0.059755 0.117846 0.394989
O22   O     O_3   0.501214 0.486106 0.820828 -0.690449
H10   H     H_    0.516532 0.559728 0.882143 0.395006
O23   O     O_3   0.286132 0.116289 0.411145 -0.698791
H11   H     H_    0.245303 0.182663 0.421831 0.360833
O24   O     O_3   0.713872 0.616306 0.588862 -0.698792
H12   H     H_    0.754699 0.682707 0.578184 0.360839
N1    N     N_R   0.303751 0.502203 0.314175 0.273508
O25   O     O_R   0.298735 0.368510 0.250290 -0.317957
O26   O     O_R   0.314920 0.463510 0.408871 -0.400568
N2    N     N_R   0.696239 0.002194 0.685827 0.273542
O27   O     O_R   0.701316 0.868490 0.749700 -0.318161
O28   O     O_R   0.685054 0.963512 0.591128 -0.400538
N3    N     N_R   0.676655 0.938758 0.957736 0.257355
O29   O     O_R   0.682465 0.091631 0.911580 -0.344565
O30   O     O_R   0.638339 0.807096 0.911510 -0.304473
N4    N     N_R   0.323310 0.438934 0.042249 0.257546
O31   O     O_R   0.317463 0.591811 0.088375 -0.344235
O32   O     O_R   0.361653 0.307356 0.088500 -0.304641
N5    N     N_R   0.571947 0.060427 0.027396 0.254067
O33   O     O_R   0.587691 0.230999 0.015645 -0.307088
O34   O     O_R   0.521978 0.984429 0.963034 -0.307808
N6    N     N_R   0.428073 0.560343 0.972618 0.254045
O35   O     O_R   0.412356 0.730930 0.984379 -0.307194
O36   O     O_R   0.478043 0.484317 0.036962 -0.307802
O37   O     O_3   0.923172 0.811567 0.484558 -0.756193
H13   H     H_    0.973320 0.807324 0.490292 0.321392
O38   O     O_3   0.076821 0.311249 0.515458 -0.756201
H14   H     H_    0.026673 0.306973 0.509729 0.321392
O39   O     O_3   0.817814 0.871917 0.006045 -0.743736
H15   H     H_    0.785942 0.837597 0.942652 0.360903
O40   O     O_3   0.182204 0.372693 0.993961 -0.743782
H16   H     H_    0.213964 0.336466 0.057060 0.360759
O41   O     O_3   0.160777 0.154499 0.273374 -0.716979
H17   H     H_    0.113277 0.110846 0.267645 0.319935
O42   O     O_3   0.839231 0.654511 0.726630 -0.716953
H18   H     H_    0.886731 0.610861 0.732357 0.319878

loop_
_geom_bond_atom_site_label_1
_geom_bond_atom_site_label_2
_geom_bond_distance
_ccdc_geom_bond_type
O14   V4    2.045124 S    
C10   H4    1.084617 S    
O24   H12   0.990437 S    
N5    O33   1.300689 A    
C15   C17   1.425664 A    
C1    C38   1.508279 S    
O39   H15   0.989287 S    
O1    C3    1.327469 A    
C2    C37   1.508281 S    
O16   C48   1.338309 A    
O2    C4    1.327466 A    
C2    O7    1.332504 A    
N6    O36   1.301102 A    
O21   H9    0.987517 S    
O23   H11   0.990441 S    
O5    C3    1.334458 A    
O12   V3    1.995004 S    
C39   N1    1.431216 S    
C23   C25   1.413018 A    
C12   C14   1.392568 A    
C6    C30   1.412803 A    
C36   O24   1.377600 S    
C8    C28   1.391647 A    
C39   C41   1.399191 A    
C43   C48   1.496526 S    
C40   C42   1.399196 A    
O41   H17   0.990835 S    
C18   C26   1.420268 A    
C42   H8    1.081337 S    
O6    V2    2.045395 S    
C5    N5    1.434059 S    
C24   N4    1.428991 S    
C9    C31   1.396655 A    
C10   C32   1.396645 A    
N3    O29   1.299608 A    
C38   C40   1.419157 A    
C16   C18   1.425687 A    
O37   H13   0.991924 S    
C19   C21   1.420855 A    
N1    O26   1.300945 A    
C27   H1    1.078840 S    
C34   O42   1.379317 S    
O5    V1    2.045434 S    
C29   O21   1.385618 S    
N5    O34   1.301107 A    
O11   V4    1.995035 S    
O18   V4    2.037059 S    
C17   C31   1.430109 A    
C18   C32   1.430070 A    
C5    C21   1.430167 A    
C11   O37   1.380228 S    
O15   V3    2.023020 S    
N6    O35   1.300694 A    
C34   C36   1.421317 A    
C13   H5    1.077708 S    
C35   C37   1.405679 A    
C36   C38   1.405681 A    
C3    C8    1.458109 S    
C41   H7    1.081390 S    
C30   O22   1.385613 S    
C15   C19   1.427866 A    
C45   O18   1.324859 A    
C33   C43   1.424259 A    
O4    C2    1.313704 A    
C34   C44   1.424251 A    
C26   O40   1.383335 S    
O20   V3    1.795862 S    
C33   O41   1.379320 S    
C33   C35   1.421309 A    
C20   C22   1.420880 A    
O4    V2    2.022970 S    
C28   H2    1.078828 S    
C37   C39   1.419134 A    
O22   H10   0.987497 S    
C16   C20   1.427927 A    
O6    C4    1.334469 A    
O12   C48   1.343535 A    
C46   O17   1.324845 A    
N2    O28   1.300952 A    
O17   V3    2.037080 S    
O13   V3    2.045161 S    
C32   C45   1.467744 S    
O1    V2    2.033423 S    
C6    N6    1.434066 S    
O2    V1    2.033443 S    
C6    C22   1.430157 A    
C7    C27   1.391646 A    
C31   C46   1.467773 S    
N4    O32   1.301115 A    
C9    C11   1.396714 A    
C10   C12   1.396715 A    
C20   C28   1.410036 A    
O3    V1    2.022914 S    
O40   H16   0.988932 S    
O19   V4    1.795853 S    
C14   C16   1.418554 A    
C12   O38   1.380223 S    
O3    C1    1.313683 A    
C8    C30   1.396122 A    
N3    O30   1.301139 A    
C23   N3    1.429035 S    
C13   C15   1.418553 A    
C41   C43   1.398778 A    
O11   C47   1.343558 A    
C42   C44   1.398733 A    
C14   H6    1.077694 S    
O7    V1    2.006586 S    
C1    O8    1.332524 A    
O16   V4    2.023072 S    
O8    V2    2.006613 S    
O38   H14   0.991924 S    
O15   C47   1.338287 A    
C4    C7    1.458129 S    
C24   C26   1.412790 A    
N2    O27   1.299586 A    
C21   C23   1.413281 A    
C44   C47   1.496531 S    
C19   C27   1.410031 A    
C22   C24   1.413232 A    
C11   C13   1.392563 A    
C5    C29   1.412821 A    
C25   O39   1.383505 S    
O14   C46   1.330074 A    
N4    O31   1.299584 A    
O9    V2    1.796441 S    
C17   C25   1.420314 A    
O10   V1    1.796450 S    
C35   O23   1.377597 S    
O13   C45   1.330051 A    
N1    O25   1.299734 A    
O42   H18   0.990851 S    
C40   N2    1.431244 S    
C7    C29   1.396139 A    
C9    H3    1.084620 S    
