data_mof_unit_33114.cif
_audit_creation_date              2012-12-10T17:51:20-0500
_audit_creation_method            fapswitch 2.2
_symmetry_space_group_name_H-M    P1
_symmetry_Int_Tables_number       1
_space_group_crystal_system       triclinic
_cell_length_a                    14.681952
_cell_length_b                    14.562238
_cell_length_c                    17.250429
_cell_angle_alpha                 106.466243
_cell_angle_beta                  73.02469
_cell_angle_gamma                 116.106941
_cell_volume                      3115.59670727

loop_
_atom_site_label
_atom_site_type_symbol
_atom_type_description
_atom_site_fract_x
_atom_site_fract_y
_atom_site_fract_z
_atom_type_partial_charge
C1    C     C_R   0.119578 0.689968 0.511166 0.811927
C2    C     C_R   0.880163 0.309983 0.489057 0.807109
C3    C     C_R   0.185501 0.803510 0.519981 -0.119708
C4    C     C_R   0.810552 0.200316 0.498943 -0.141113
C5    C     C_R   0.205860 0.986209 0.550162 0.131892
C6    C     C_R   0.765166 0.040818 0.550236 0.160287
C7    C     C_R   0.148033 0.879445 0.521190 0.156490
C8    C     C_R   0.842142 0.130039 0.516853 0.112778
C9    C     C_R   0.285406 0.836626 0.533518 -0.294264
C10   C     C_R   0.705785 0.172395 0.502648 -0.267906
C11   C     C_R   0.347267 0.942364 0.554163 0.056718
C12   C     C_R   0.628800 0.091585 0.541756 0.041294
C13   C     C_R   0.310821 0.017613 0.555091 0.046279
C14   C     C_R   0.658235 0.022500 0.562810 0.059110
C15   C     C_R   0.447660 0.974666 0.569628 0.041715
C16   C     C_R   0.522100 0.074601 0.556517 0.033352
C17   C     C_R   0.484593 0.152971 0.564059 0.134833
C18   C     C_R   0.474762 0.915451 0.604896 0.139644
C19   C     C_R   0.380609 0.122237 0.560643 -0.265060
C20   C     C_R   0.579412 0.937942 0.598047 -0.259113
C21   C     C_R   0.288789 0.321598 0.365146 -0.329953
C22   C     C_R   0.707528 0.673400 0.638920 -0.332968
C23   C     C_R   0.989824 0.503693 0.652941 0.774703
C24   C     C_R   0.006045 0.489458 0.347217 0.777600
C25   C     C_R   0.207780 0.354548 0.385543 0.079935
C26   C     C_R   0.789845 0.642248 0.617150 0.052936
C27   C     C_R   0.287875 0.492785 0.487136 -0.002149
C28   C     C_R   0.713650 0.508984 0.511228 0.007867
C29   C     C_R   0.373267 0.463591 0.469102 -0.020978
C30   C     C_R   0.626447 0.535385 0.531259 -0.024376
C31   C     C_R   0.371432 0.375325 0.406984 0.163534
C32   C     C_R   0.626165 0.620968 0.595690 0.179945
C33   C     C_R   0.458789 0.517274 0.510836 0.084545
C34   C     C_R   0.540916 0.481245 0.489548 0.068968
C35   C     C_R   0.534171 0.391849 0.428050 -0.253793
C36   C     C_R   0.464738 0.605455 0.573307 -0.239037
C37   C     C_R   0.451324 0.340525 0.387534 -0.200143
C38   C     C_R   0.545666 0.654733 0.615826 -0.211433
C39   C     C_R   0.980133 0.498564 0.738891 -0.093953
C40   C     C_R   0.001714 0.470706 0.260535 -0.060653
C41   C     C_R   0.067765 0.529477 0.774099 0.134625
C42   C     C_R   0.908784 0.407166 0.230274 0.156442
C43   C     C_R   0.050636 0.516384 0.855338 -0.131370
C44   C     C_R   0.910214 0.397064 0.146784 -0.153526
C45   C     C_R   0.950507 0.470185 0.899819 0.134747
C46   C     C_R   0.002593 0.443275 0.093497 0.141738
C47   C     C_R   0.865308 0.444063 0.865591 -0.174471
C48   C     C_R   0.094787 0.499170 0.122870 -0.167997
C49   C     C_R   0.879970 0.458414 0.785840 -0.219759
C50   C     C_R   0.094170 0.513863 0.206022 -0.233161
C51   C     C_2   0.934641 0.452929 0.983642 -0.221182
C52   C     C_2   0.005080 0.436538 0.006870 -0.227233
Cu1   Cu    Cu3+1 0.916740 0.524770 0.521640 0.922060
Cu2   Cu    Cu3+1 0.083260 0.475230 0.478360 0.918590
H1    H     H_    0.449512 0.272269 0.340687 0.140791
H2    H     H_    0.545852 0.720747 0.664618 0.125438
H3    H     H_    0.722494 0.447980 0.461252 0.107616
H4    H     H_    0.281378 0.557324 0.534303 0.115844
H5    H     H_    0.853524 0.683247 0.649657 0.128083
H6    H     H_    0.143297 0.312532 0.353971 0.121061
H7    H     H_    0.286410 0.253999 0.317450 0.136065
H8    H     H_    0.708148 0.738927 0.688420 0.139365
H9    H     H_    0.591283 0.358387 0.410247 0.128738
H10   H     H_    0.407496 0.638365 0.591147 0.126097
H11   H     H_    0.165934 0.560293 0.228165 0.152311
H12   H     H_    0.812538 0.434839 0.759718 0.158582
H13   H     H_    0.072728 0.429438 0.962904 0.146322
H14   H     H_    0.866483 0.458641 0.027825 0.149803
H15   H     H_    0.787444 0.410660 0.899992 0.132214
H16   H     H_    0.166767 0.534533 0.081807 0.131658
H17   H     H_    0.839622 0.351139 0.122886 0.132683
H18   H     H_    0.115066 0.542977 0.885229 0.141227
H19   H     H_    0.357059 0.181713 0.558257 0.138315
H20   H     H_    0.597261 0.888148 0.621679 0.149558
H21   H     H_    0.685377 0.214392 0.472938 0.154734
H22   H     H_    0.317265 0.778971 0.522870 0.162795
N1    N     N_R   0.208390 0.438070 0.445820 -0.171304
N2    N     N_R   0.791610 0.561930 0.554180 -0.169941
O1    O     O_R   0.020090 0.662480 0.528530 -0.576770
O2    O     O_R   0.979910 0.337520 0.471470 -0.579357
O3    O     O_R   0.160710 0.620650 0.491980 -0.582210
O4    O     O_R   0.839290 0.379350 0.508020 -0.582089
O5    O     O_R   0.921540 0.523360 0.633990 -0.573728
O6    O     O_R   0.078460 0.476640 0.366010 -0.574963
O7    O     O_R   0.062170 0.481520 0.597440 -0.599514
O8    O     O_R   0.937830 0.518480 0.402560 -0.588007
C53   C     C_3   0.177472 0.575858 0.725295 -0.387942
C54   C     C_3   0.264428 0.620549 0.774071 -0.893957
H23   H     H_    0.253514 0.682237 0.826553 0.254277
H24   H     H_    0.267999 0.558056 0.796480 0.252691
H25   H     H_    0.339738 0.655321 0.733725 0.244402
H26   H     H_    0.192475 0.514415 0.674582 0.223952
H27   H     H_    0.183236 0.639308 0.698103 0.199459
C55   C     C_3   0.808517 0.345632 0.282696 -0.441347
C56   C     C_3   0.781144 0.228728 0.255837 -0.858555
H28   H     H_    0.767675 0.202132 0.191649 0.254067
H29   H     H_    0.844536 0.209350 0.260168 0.254337
H30   H     H_    0.709364 0.186419 0.296996 0.239594
H31   H     H_    0.811851 0.363990 0.348588 0.217850
H32   H     H_    0.744941 0.364258 0.277672 0.200366
C57   C     C_3   0.543622 0.269374 0.591627 -0.372163
C58   C     C_3   0.582556 0.293135 0.671048 -0.791450
H33   H     H_    0.517578 0.257634 0.720019 0.243282
H34   H     H_    0.643627 0.263625 0.661380 0.255196
H35   H     H_    0.616110 0.378637 0.692267 0.237441
H36   H     H_    0.606944 0.306092 0.543280 0.191302
H37   H     H_    0.492262 0.312026 0.604937 0.198609
C59   C     C_3   0.397090 0.844840 0.665397 -0.401832
C60   C     C_3   0.339913 0.901912 0.736623 -0.807558
H38   H     H_    0.396054 0.974344 0.766624 0.249717
H39   H     H_    0.287836 0.921605 0.714834 0.255595
H40   H     H_    0.291914 0.851318 0.783161 0.238126
H41   H     H_    0.340847 0.773349 0.635825 0.187848
H42   H     H_    0.437653 0.817706 0.693512 0.189424
C61   C     C_3   0.956022 0.146715 0.496643 -0.388575
C62   C     C_3   0.009977 0.213869 0.568921 -0.782805
H43   H     H_    0.094723 0.235399 0.548950 0.235204
H44   H     H_    0.994816 0.285803 0.592422 0.273645
H45   H     H_    0.981459 0.171369 0.620738 0.226857
H46   H     H_    0.966615 0.072168 0.478037 0.187430
H47   H     H_    0.996397 0.180507 0.440057 0.207067
C63   C     C_3   0.051854 0.849059 0.486224 -0.391668
C64   C     C_3   0.065403 0.799774 0.394862 -0.812330
H48   H     H_    0.132964 0.854908 0.358979 0.238541
H49   H     H_    0.077014 0.726692 0.384314 0.250816
H50   H     H_    0.995176 0.781458 0.371622 0.240058
H51   H     H_    0.981370 0.797752 0.522319 0.220507
H52   H     H_    0.034427 0.916638 0.489495 0.202060
C65   C     C_3   0.151436 0.062216 0.585718 -0.424244
C66   C     C_3   0.062264 0.025716 0.657649 -0.857989
H53   H     H_    0.997190 0.955146 0.636621 0.240734
H54   H     H_    0.089848 0.008807 0.703477 0.258514
H55   H     H_    0.032564 0.087747 0.688989 0.238257
H56   H     H_    0.202260 0.140276 0.612336 0.208501
H57   H     H_    0.124418 0.074479 0.537292 0.197988
C67   C     C_3   0.796701 0.966553 0.573799 -0.430079
C68   C     C_3   0.785174 0.868740 0.507832 -0.837476
H58   H     H_    0.703371 0.824277 0.500926 0.265959
H59   H     H_    0.833323 0.889856 0.447652 0.246917
H60   H     H_    0.811546 0.818116 0.525359 0.247062
H61   H     H_    0.876830 0.002377 0.584089 0.211774
H62   H     H_    0.752357 0.946081 0.634811 0.186760

loop_
_geom_bond_atom_site_label_1
_geom_bond_atom_site_label_2
_ccdc_geom_bond_type
C57   H37   S    
C15   C18   A    
C53   C54   S    
C43   H18   S    
C61   H47   S    
C29   C33   A    
C27   C29   A    
C66   H54   S    
C56   H28   S    
C4    C8    A    
Cu2   O6    S    
C56   H30   S    
C64   H48   S    
C39   C41   A    
Cu1   Cu2   S    
C62   H43   S    
C68   H59   S    
C57   C58   S    
C23   O5    A    
C58   H35   S    
C25   N1    A    
Cu1   O1    S    
C3    C7    A    
C60   H39   S    
C23   C39   S    
C64   H49   S    
C22   H8    S    
C45   C51   S    
C1    O3    A    
C15   C16   A    
C46   C52   S    
C33   C36   A    
C59   C60   S    
C44   H17   S    
C34   C35   A    
C59   H42   S    
C63   H51   S    
C17   C57   S    
C47   H15   S    
C6    C67   S    
C8    C61   S    
C17   C19   A    
C65   H57   S    
C11   C15   A    
C12   C16   A    
C16   C17   A    
C67   H62   S    
Cu1   O8    S    
C25   H6    S    
C32   C38   A    
C28   N2    A    
C26   H5    S    
C22   C32   A    
C5    C13   A    
Cu2   N1    S    
C5    C65   S    
C53   H26   S    
C41   C43   A    
C55   C56   S    
C42   C44   A    
C44   C46   A    
Cu2   O2    S    
C45   C47   A    
C41   C53   S    
C68   H60   S    
C46   C48   A    
C49   H12   S    
C30   C34   A    
C51   C52   D    
C14   C20   A    
C19   H19   S    
C47   C49   A    
C60   H40   S    
C48   H16   S    
C5    C7    A    
C13   C19   A    
C64   H50   S    
C6    C8    A    
C28   H3    S    
C31   C37   A    
Cu1   O4    S    
C1    C3    S    
C59   H41   S    
C2    C4    S    
C67   H61   S    
C3    C9    A    
C6    C14   A    
C21   C31   A    
C10   H21   S    
C40   C42   A    
C54   H25   S    
C55   H32   S    
C33   C34   A    
C20   H20   S    
C26   N2    A    
C58   H34   S    
C43   C45   A    
C52   H13   S    
C10   C12   A    
C9    H22   S    
C54   H24   S    
C9    C11   A    
C23   O7    A    
C1    O1    A    
C2    O4    A    
C66   H55   S    
C7    C63   S    
C4    C10   A    
C36   C38   A    
C35   C37   A    
C65   C66   S    
C57   H36   S    
C21   C25   A    
C39   C49   A    
C42   C55   S    
C21   H7    S    
C12   C14   A    
C67   C68   S    
C27   N1    A    
C27   H4    S    
Cu2   O7    S    
C56   H29   S    
C68   H58   S    
C62   H45   S    
Cu1   O5    S    
C28   C30   A    
C66   H53   S    
C24   O6    A    
C29   C31   A    
C60   H38   S    
C30   C32   A    
C11   C13   A    
C55   H31   S    
C40   C50   A    
C53   H27   S    
C48   C50   A    
C24   C40   S    
C62   H44   S    
Cu1   N2    S    
C18   C20   A    
C51   H14   S    
C63   H52   S    
C58   H33   S    
C50   H11   S    
C18   C59   S    
C2    O2    A    
C65   H56   S    
C37   H1    S    
C38   H2    S    
C54   H23   S    
C61   H46   S    
C22   C26   A    
C35   H9    S    
C63   C64   S    
C36   H10   S    
C24   O8    A    
Cu2   O3    S    
C61   C62   S    
