data_mof_unit_62241.cif
_audit_creation_date              2013-03-05T16:02:18-0500
_audit_creation_method            fapswitch 2.2
_symmetry_space_group_name_H-M    P1
_symmetry_Int_Tables_number       1
_space_group_crystal_system       triclinic
_cell_length_a                    18.314397
_cell_length_b                    18.30845
_cell_length_c                    42.882485
_cell_angle_alpha                 89.999644
_cell_angle_beta                  90.015747
_cell_angle_gamma                 90.005618
_cell_volume                      14378.8491773

loop_
_atom_site_label
_atom_site_type_symbol
_atom_site_description
_atom_site_fract_x
_atom_site_fract_y
_atom_site_fract_z
_atom_type_partial_charge
Zn1   Zn    Zn3+2 0.413200 0.000000 0.224130 0.993856
Zn2   Zn    Zn3+2 0.586800 0.000000 0.775870 1.024384
Zn3   Zn    Zn3+2 0.000000 0.413200 0.224130 0.990668
Zn4   Zn    Zn3+2 0.000000 0.586800 0.775870 0.992249
Zn5   Zn    Zn3+2 0.586800 0.000000 0.224130 1.007458
Zn6   Zn    Zn3+2 0.413200 0.000000 0.775870 1.004968
Zn7   Zn    Zn3+2 0.000000 0.586800 0.224130 0.996876
Zn8   Zn    Zn3+2 0.000000 0.413200 0.775870 0.992148
Zn9   Zn    Zn3+2 0.913200 0.500000 0.724130 0.983882
Zn10  Zn    Zn3+2 0.086800 0.500000 0.275870 1.000138
Zn11  Zn    Zn3+2 0.500000 0.913200 0.724130 1.008160
Zn12  Zn    Zn3+2 0.500000 0.086800 0.275870 1.004103
Zn13  Zn    Zn3+2 0.086800 0.500000 0.724130 0.989211
Zn14  Zn    Zn3+2 0.913200 0.500000 0.275870 0.997770
Zn15  Zn    Zn3+2 0.500000 0.086800 0.724130 0.988981
Zn16  Zn    Zn3+2 0.500000 0.913200 0.275870 0.985715
C1    C     C_R   0.485241 0.065817 0.115342 -0.137525
C2    C     C_R   0.519907 0.936171 0.884821 -0.164481
C3    C     C_R   0.061860 0.476087 0.115020 -0.138031
C4    C     C_R   0.938902 0.530627 0.884586 -0.158008
C5    C     C_R   0.514545 0.934641 0.115222 -0.143260
C6    C     C_R   0.480013 0.064494 0.884672 -0.138330
C7    C     C_R   0.936456 0.524054 0.115377 -0.138860
C8    C     C_R   0.058670 0.469705 0.885102 -0.158167
C9    C     C_R   0.972084 0.561917 0.615323 -0.155338
C10   C     C_R   0.019744 0.436124 0.384812 -0.140214
C11   C     C_R   0.563176 0.974877 0.615404 -0.141238
C12   C     C_R   0.436203 0.018656 0.384926 -0.143590
C13   C     C_R   0.027612 0.439522 0.615032 -0.158020
C14   C     C_R   0.981269 0.564870 0.384685 -0.141256
C15   C     C_R   0.438434 0.024811 0.615051 -0.142413
C16   C     C_R   0.565006 0.980522 0.384597 -0.136692
C17   C     C_R   0.486197 0.065869 0.082394 0.290004
C18   C     C_R   0.518438 0.936248 0.917755 0.293221
C19   C     C_R   0.061401 0.477096 0.082095 0.288446
C20   C     C_R   0.938127 0.529791 0.917522 0.287270
C21   C     C_R   0.513319 0.934892 0.082274 0.290222
C22   C     C_R   0.481186 0.064731 0.917612 0.288353
C23   C     C_R   0.936020 0.523554 0.082450 0.289060
C24   C     C_R   0.058433 0.471461 0.918015 0.285626
C25   C     C_R   0.973263 0.562485 0.582381 0.287115
C26   C     C_R   0.019075 0.436378 0.417748 0.290046
C27   C     C_R   0.563753 0.976034 0.582466 0.287474
C28   C     C_R   0.436660 0.017279 0.417868 0.289213
C29   C     C_R   0.025922 0.439560 0.582112 0.285634
C30   C     C_R   0.982366 0.564986 0.417629 0.289098
C31   C     C_R   0.438687 0.023390 0.582127 0.286542
C32   C     C_R   0.565376 0.981097 0.417536 0.290094
O1    O     O_3   0.500000 0.000000 0.250000 -0.504270
O2    O     O_3   0.500000 0.000000 0.750000 -0.505235
O3    O     O_3   1.000000 0.500000 0.250000 -0.502749
O4    O     O_3   1.000000 0.500000 0.750000 -0.497885
O5    O     O_R   0.500000 0.939250 0.319430 -0.630847
O6    O     O_R   0.500000 0.060750 0.680570 -0.628080
O7    O     O_R   0.060750 0.500000 0.319430 -0.623671
O8    O     O_R   0.939250 0.500000 0.680570 -0.629107
O9    O     O_R   0.500000 0.060750 0.319430 -0.618350
O10   O     O_R   0.500000 0.939250 0.680570 -0.631093
O11   O     O_R   0.939250 0.500000 0.319430 -0.625009
O12   O     O_R   0.060750 0.500000 0.680570 -0.630278
O13   O     O_R   0.000000 0.439250 0.819430 -0.630934
O14   O     O_R   0.000000 0.560750 0.180570 -0.623704
O15   O     O_R   0.560750 0.000000 0.819430 -0.615525
O16   O     O_R   0.439250 0.000000 0.180570 -0.625762
O17   O     O_R   0.000000 0.560750 0.819430 -0.628653
O18   O     O_R   0.000000 0.439250 0.180570 -0.629460
O19   O     O_R   0.439250 0.000000 0.819430 -0.626859
O20   O     O_R   0.560750 0.000000 0.180570 -0.618727
O21   O     O_R   0.414500 0.146140 0.268270 -0.628101
O22   O     O_R   0.585500 0.853860 0.731730 -0.632493
O23   O     O_R   0.853860 0.414500 0.268270 -0.625275
O24   O     O_R   0.146140 0.585500 0.731730 -0.629474
O25   O     O_R   0.585500 0.853860 0.268270 -0.638763
O26   O     O_R   0.414500 0.146140 0.731730 -0.627230
O27   O     O_R   0.146140 0.585500 0.268270 -0.617119
O28   O     O_R   0.853860 0.414500 0.731730 -0.633350
O29   O     O_R   0.414500 0.853860 0.731730 -0.622835
O30   O     O_R   0.585500 0.146140 0.268270 -0.618881
O31   O     O_R   0.853860 0.585500 0.731730 -0.633132
O32   O     O_R   0.146140 0.414500 0.268270 -0.631432
O33   O     O_R   0.585500 0.146140 0.731730 -0.626586
O34   O     O_R   0.414500 0.853860 0.268270 -0.625839
O35   O     O_R   0.146140 0.414500 0.731730 -0.625777
O36   O     O_R   0.853860 0.585500 0.268270 -0.624231
O37   O     O_R   0.914500 0.646140 0.768270 -0.621327
O38   O     O_R   0.085500 0.353860 0.231730 -0.632537
O39   O     O_R   0.353860 0.914500 0.768270 -0.624013
O40   O     O_R   0.646140 0.085500 0.231730 -0.617419
O41   O     O_R   0.085500 0.353860 0.768270 -0.624181
O42   O     O_R   0.914500 0.646140 0.231730 -0.637667
O43   O     O_R   0.646140 0.085500 0.768270 -0.629952
O44   O     O_R   0.353860 0.914500 0.231730 -0.626095
O45   O     O_R   0.914500 0.353860 0.231730 -0.625167
O46   O     O_R   0.085500 0.646140 0.768270 -0.630421
O47   O     O_R   0.353860 0.085500 0.231730 -0.628972
O48   O     O_R   0.646140 0.914500 0.768270 -0.608782
O49   O     O_R   0.085500 0.646140 0.231730 -0.618404
O50   O     O_R   0.914500 0.353860 0.768270 -0.626215
O51   O     O_R   0.646140 0.914500 0.231730 -0.622754
O52   O     O_R   0.353860 0.085500 0.768270 -0.626920
C33   C     C_R   0.499951 0.000157 0.131561 -0.191589
C34   C     C_R   0.500003 0.000242 0.868454 -0.198860
C35   C     C_R   0.999419 0.500034 0.131509 -0.194809
C36   C     C_R   0.999143 0.500080 0.868512 -0.201097
C37   C     C_R   0.999914 0.500513 0.631502 -0.200710
C38   C     C_R   0.000161 0.500296 0.368458 -0.192508
C39   C     C_R   0.500579 0.999923 0.631530 -0.197887
C40   C     C_R   0.500449 0.999876 0.368467 -0.192766
N1    N     N_R   0.459696 0.950730 0.015445 -0.071099
N2    N     N_R   0.539333 0.050621 0.984439 -0.072147
N3    N     N_R   0.942586 0.469462 0.015457 -0.070594
N4    N     N_R   0.053285 0.533085 0.984419 -0.072457
N5    N     N_R   0.539386 0.050536 0.015473 -0.070565
N6    N     N_R   0.459741 0.950718 0.984413 -0.072314
N7    N     N_R   0.053403 0.532949 0.015443 -0.070545
N8    N     N_R   0.942371 0.469731 0.984428 -0.071832
N9    N     N_R   0.964542 0.447836 0.515549 -0.073162
N10   N     N_R   0.035152 0.554377 0.484601 -0.069881
N11   N     N_R   0.448987 0.962880 0.515626 -0.072638
N12   N     N_R   0.554276 0.034969 0.484522 -0.070621
N13   N     N_R   0.034619 0.554647 0.515630 -0.072452
N14   N     N_R   0.964908 0.447705 0.484521 -0.071443
N15   N     N_R   0.554358 0.035065 0.515555 -0.071898
N16   N     N_R   0.449006 0.962665 0.484598 -0.071143
C41   C     C_R   0.000305 0.500911 0.468488 0.390395
C42   C     C_R   0.999337 0.501347 0.531616 0.393294
C43   C     C_R   0.501589 0.998777 0.468490 0.390719
C44   C     C_R   0.501652 0.999097 0.531627 0.393715
C45   C     C_R   0.499547 0.000677 0.968382 0.392337
C46   C     C_R   0.499561 0.000599 0.031532 0.391071
C47   C     C_R   0.997768 0.501481 0.968396 0.392555
C48   C     C_R   0.998124 0.501032 0.031512 0.391176
C49   C     C_R   0.500050 0.999986 0.334183 0.756927
C50   C     C_R   0.500079 0.999989 0.665814 0.754484
C51   C     C_R   0.000026 0.500007 0.334177 0.756195
C52   C     C_R   0.999984 0.500073 0.665805 0.752471
C53   C     C_R   0.999891 0.500007 0.834203 0.751169
C54   C     C_R   0.999946 0.500003 0.165808 0.756867
C55   C     C_R   0.500006 0.000040 0.834176 0.757317
C56   C     C_R   0.499989 0.000006 0.165830 0.756855
C57   C     C_R   0.359987 0.139994 0.250008 0.724232
C58   C     C_R   0.639934 0.859951 0.750037 0.843414
C59   C     C_R   0.860021 0.360012 0.249996 0.733579
C60   C     C_R   0.139981 0.639981 0.750009 0.725980
C61   C     C_R   0.640114 0.860162 0.250132 0.724183
C62   C     C_R   0.360047 0.139988 0.750007 0.719819
C63   C     C_R   0.140024 0.640024 0.249998 0.738448
C64   C     C_R   0.860016 0.360017 0.750000 0.726674
C65   C     C_R   0.360011 0.860005 0.749994 0.735802
C66   C     C_R   0.640014 0.140026 0.250003 0.735918
C67   C     C_R   0.860040 0.639990 0.749988 0.731026
C68   C     C_R   0.139998 0.360031 0.249988 0.720963
C69   C     C_R   0.639988 0.140000 0.750004 0.722774
C70   C     C_R   0.360016 0.860015 0.250002 0.733629
C71   C     C_R   0.140000 0.360010 0.750010 0.726969
C72   C     C_R   0.859850 0.639848 0.249859 0.723932
C73   C     C_R   0.288649 0.765929 0.221942 -0.052709
C74   C     C_R   0.703010 0.242671 0.776136 -0.047580
C75   C     C_R   0.240932 0.295338 0.223416 -0.044975
C76   C     C_R   0.739860 0.685028 0.767871 -0.086819
C77   C     C_R   0.713099 0.232625 0.221883 -0.049486
C78   C     C_R   0.296149 0.758229 0.776369 -0.048161
C79   C     C_R   0.793428 0.738868 0.276970 -0.060049
C80   C     C_R   0.249147 0.303473 0.773978 -0.051224
C81   C     C_R   0.305790 0.251269 0.773021 -0.045417
C82   C     C_R   0.739872 0.794112 0.276881 -0.045786
C83   C     C_R   0.244287 0.701293 0.775668 -0.034789
C84   C     C_R   0.765760 0.288813 0.221955 -0.054745
C85   C     C_R   0.684090 0.738136 0.767046 -0.021156
C86   C     C_R   0.292503 0.238225 0.222801 -0.061176
C87   C     C_R   0.754882 0.299599 0.775383 -0.038673
C88   C     C_R   0.232469 0.713274 0.221867 -0.051155
C89   C     C_R   0.799513 0.254891 0.724606 -0.037477
C90   C     C_R   0.213292 0.732486 0.278132 -0.050437
C91   C     C_R   0.761307 0.815881 0.733526 -0.082973
C92   C     C_R   0.261781 0.207543 0.277186 -0.060586
C93   C     C_R   0.201216 0.744325 0.724367 -0.037535
C94   C     C_R   0.788828 0.265777 0.278031 -0.054152
C95   C     C_R   0.248707 0.194188 0.727032 -0.044408
C96   C     C_R   0.706384 0.761143 0.223008 -0.060932
C97   C     C_R   0.760040 0.705985 0.223087 -0.045617
C98   C     C_R   0.196513 0.250835 0.726071 -0.053103
C99   C     C_R   0.732618 0.213149 0.278115 -0.050075
C100  C     C_R   0.258207 0.796116 0.723632 -0.048791
C101  C     C_R   0.204656 0.259089 0.276560 -0.046319
C102  C     C_R   0.814280 0.760015 0.732245 -0.045491
C103  C     C_R   0.265964 0.788653 0.278061 -0.053044
C104  C     C_R   0.742620 0.202982 0.723873 -0.047114
C105  C     C_R   0.196330 0.696336 0.249999 -0.169561
C106  C     C_R   0.803820 0.303840 0.749998 -0.161627
C107  C     C_R   0.303783 0.196231 0.249999 -0.166464
C108  C     C_R   0.695964 0.803610 0.750226 -0.127494
C109  C     C_R   0.803813 0.303789 0.249991 -0.156900
C110  C     C_R   0.196146 0.696188 0.750017 -0.161703
C111  C     C_R   0.695800 0.803490 0.250148 -0.160912
C112  C     C_R   0.303857 0.196177 0.750012 -0.156896
C113  C     C_R   0.196221 0.303775 0.750020 -0.160548
C114  C     C_R   0.804104 0.696548 0.249829 -0.161401
C115  C     C_R   0.303808 0.803769 0.749992 -0.175683
C116  C     C_R   0.696307 0.196350 0.250002 -0.168039
C117  C     C_R   0.803727 0.696059 0.750053 -0.125554
C118  C     C_R   0.196161 0.303850 0.249986 -0.156372
C119  C     C_R   0.696207 0.196215 0.750006 -0.167599
C120  C     C_R   0.303810 0.803797 0.250002 -0.157909
C121  C     C_R   0.499684 0.000453 0.065958 -0.203651
C122  C     C_R   0.499715 0.000557 0.934021 -0.202620
C123  C     C_R   0.998510 0.500533 0.065905 -0.203604
C124  C     C_R   0.998092 0.500955 0.934077 -0.199488
C125  C     C_R   0.999430 0.501138 0.565938 -0.200833
C126  C     C_R   0.000670 0.500758 0.434066 -0.203480
C127  C     C_R   0.501400 0.999571 0.565971 -0.204338
C128  C     C_R   0.501219 0.999019 0.434075 -0.203781
C129  C     C_2   0.468559 0.133829 0.133196 0.581476
H1    H     H_    0.487574 0.140125 0.157008 -0.011701
O53   O     O_2   0.431758 0.182790 0.121958 -0.429278
C130  C     C_2   0.542237 0.869600 0.867151 0.595305
H2    H     H_    0.522484 0.860691 0.843607 0.062836
O54   O     O_2   0.584541 0.825062 0.878220 -0.427243
C131  C     C_2   0.127373 0.450475 0.132543 0.574587
H3    H     H_    0.138634 0.471502 0.155701 -0.002092
O55   O     O_2   0.168332 0.404304 0.121782 -0.440270
C132  C     C_2   0.876907 0.562877 0.866664 0.600207
H4    H     H_    0.864417 0.543495 0.843351 0.019464
O56   O     O_2   0.840385 0.612808 0.877276 -0.432950
C133  C     C_2   0.531375 0.866471 0.132951 0.589990
H5    H     H_    0.512846 0.860093 0.156824 -0.012717
O57   O     O_2   0.567763 0.817439 0.121534 -0.425595
C134  C     C_2   0.457895 0.130917 0.866842 0.579209
H6    H     H_    0.478017 0.139688 0.843346 -0.003546
O58   O     O_2   0.415368 0.175486 0.877723 -0.442133
C135  C     C_2   0.871336 0.549227 0.133266 0.575471
H7    H     H_    0.860917 0.528107 0.156481 -0.002569
O59   O     O_2   0.829736 0.595130 0.122739 -0.439997
C136  C     C_2   0.120975 0.436491 0.867772 0.601789
H8    H     H_    0.134539 0.455211 0.844479 0.007777
O60   O     O_2   0.156529 0.386443 0.878877 -0.423770
C137  C     C_2   0.942149 0.625211 0.633152 0.593573
H9    H     H_    0.961323 0.636638 0.656596 0.013959
O61   O     O_2   0.894264 0.664050 0.622318 -0.435371
C138  C     C_2   0.040978 0.369236 0.367119 0.574985
H10   H     H_    0.020211 0.360178 0.343738 -0.003553
O62   O     O_2   0.083453 0.324573 0.377975 -0.436829
C139  C     C_2   0.627574 0.947631 0.633306 0.581766
H11   H     H_    0.637783 0.966925 0.656832 0.001560
O63   O     O_2   0.668749 0.901785 0.622446 -0.449251
C140  C     C_2   0.369004 0.039538 0.367342 0.589547
H12   H     H_    0.361108 0.021091 0.343540 -0.012334
O64   O     O_2   0.322526 0.079026 0.378821 -0.424524
C141  C     C_2   0.058116 0.376018 0.632506 0.598338
H13   H     H_    0.039436 0.363990 0.655958 0.004979
O65   O     O_2   0.105947 0.337667 0.621336 -0.421263
C142  C     C_2   0.960638 0.631820 0.366857 0.585558
H14   H     H_    0.978738 0.638983 0.342968 -0.011469
O66   O     O_2   0.921823 0.678984 0.378243 -0.424742
C143  C     C_2   0.373482 0.051868 0.632579 0.584617
H15   H     H_    0.362251 0.031824 0.655894 -0.000386
O67   O     O_2   0.333007 0.098256 0.621646 -0.444300
C144  C     C_2   0.631632 0.959593 0.366673 0.566288
H16   H     H_    0.640000 0.980138 0.343211 -0.001095
O68   O     O_2   0.676872 0.917604 0.377436 -0.438587
C145  C     C_2   0.336317 0.778540 0.194011 0.495526
H17   H     H_    0.391343 0.799377 0.196992 0.022492
O69   O     O_2   0.315306 0.767170 0.167466 -0.471471
C146  C     C_2   0.655758 0.230352 0.803988 0.578816
H18   H     H_    0.600275 0.210563 0.801188 0.012433
O70   O     O_2   0.679369 0.239091 0.830358 -0.485691
C147  C     C_2   0.235809 0.349098 0.197346 0.526578
H19   H     H_    0.183699 0.372643 0.190927 0.053022
O71   O     O_2   0.290383 0.370057 0.183656 -0.488779
C148  C     C_2   0.733509 0.618330 0.787787 0.411092
H20   H     H_    0.758696 0.567420 0.780582 0.061794
O72   O     O_2   0.702924 0.620294 0.813071 -0.480645
C149  C     C_2   0.670912 0.214160 0.193372 0.576835
H21   H     H_    0.611969 0.220316 0.193277 -0.001037
O73   O     O_2   0.701163 0.187331 0.170744 -0.455816
C150  C     C_2   0.342575 0.771435 0.804407 0.562308
H22   H     H_    0.398310 0.790643 0.801790 0.044828
O74   O     O_2   0.318002 0.764090 0.830688 -0.486185
C151  C     C_2   0.837539 0.723178 0.305414 0.586649
H23   H     H_    0.894130 0.706363 0.303289 -0.001424
O75   O     O_2   0.810150 0.725785 0.331345 -0.449710
C152  C     C_2   0.243333 0.357311 0.799977 0.565232
H24   H     H_    0.221200 0.411404 0.795769 0.004194
O76   O     O_2   0.260158 0.340727 0.826601 -0.444711
C153  C     C_2   0.369000 0.254737 0.794934 0.551553
H25   H     H_    0.394857 0.204962 0.803061 0.026920
O77   O     O_2   0.395025 0.313223 0.802921 -0.484352
C154  C     C_2   0.732953 0.846223 0.303473 0.522034
H26   H     H_    0.679819 0.865927 0.310700 0.062546
O78   O     O_2   0.786964 0.870054 0.316720 -0.485681
C155  C     C_2   0.241963 0.644383 0.800592 0.507973
H27   H     H_    0.190581 0.619686 0.807423 0.049041
O79   O     O_2   0.297949 0.622030 0.812765 -0.490358
C156  C     C_2   0.778211 0.336667 0.194057 0.498751
H28   H     H_    0.799451 0.391546 0.197054 0.029972
O80   O     O_2   0.766196 0.316003 0.167515 -0.471031
C157  C     C_2   0.612792 0.723301 0.782735 0.519045
H29   H     H_    0.592157 0.667847 0.784101 0.112060
O81   O     O_2   0.577068 0.772065 0.794737 -0.589255
C158  C     C_2   0.334982 0.221477 0.194009 0.592373
H30   H     H_    0.391123 0.202939 0.195660 0.001305
O82   O     O_2   0.306668 0.225293 0.168277 -0.449054
C159  C     C_2   0.756461 0.357371 0.799948 0.506094
H31   H     H_    0.807694 0.382078 0.806995 0.047517
O83   O     O_2   0.700090 0.380411 0.811535 -0.485126
C160  C     C_2   0.213926 0.671201 0.193338 0.574890
H32   H     H_    0.220162 0.612249 0.193191 0.008616
O84   O     O_2   0.186964 0.701547 0.170755 -0.455589
C161  C     C_2   0.857141 0.256536 0.699995 0.513405
H33   H     H_    0.881780 0.307808 0.692950 0.043930
O85   O     O_2   0.880127 0.200180 0.688359 -0.479774
C162  C     C_2   0.171223 0.713977 0.306659 0.575561
H34   H     H_    0.112294 0.720249 0.306801 -0.001158
O86   O     O_2   0.201542 0.686995 0.329243 -0.456180
C163  C     C_2   0.773498 0.887975 0.718133 0.567695
H35   H     H_    0.727969 0.917793 0.708107 -0.003703
O87   O     O_2   0.833868 0.916272 0.717759 -0.483801
C164  C     C_2   0.278567 0.165193 0.306001 0.592401
H36   H     H_    0.297069 0.109026 0.304394 -0.000930
O88   O     O_2   0.274788 0.193666 0.331698 -0.447740
C165  C     C_2   0.144178 0.742117 0.699495 0.510534
H37   H     H_    0.119482 0.690744 0.692623 0.045705
O89   O     O_2   0.121715 0.798189 0.687423 -0.477098
C166  C     C_2   0.836689 0.278234 0.305926 0.500639
H38   H     H_    0.891648 0.299214 0.302916 0.027742
O90   O     O_2   0.815924 0.266554 0.332477 -0.470259
C167  C     C_2   0.245121 0.130872 0.705177 0.553807
H39   H     H_    0.294826 0.104852 0.697105 0.023655
O91   O     O_2   0.186610 0.104922 0.697195 -0.479075
C168  C     C_2   0.661974 0.776691 0.194607 0.588591
H40   H     H_    0.605408 0.793561 0.196816 -0.000325
O92   O     O_2   0.689044 0.773952 0.168615 -0.448986
C169  C     C_2   0.767127 0.654033 0.196475 0.524243
H41   H     H_    0.820362 0.634733 0.189228 0.062412
O93   O     O_2   0.713213 0.629919 0.183250 -0.486513
C170  C     C_2   0.142695 0.256644 0.700065 0.569533
H42   H     H_    0.088624 0.278802 0.704256 0.006169
O94   O     O_2   0.159282 0.239775 0.673451 -0.443273
C171  C     C_2   0.714198 0.170971 0.306628 0.575414
H43   H     H_    0.720370 0.112011 0.306725 0.009489
O95   O     O_2   0.687402 0.201248 0.329257 -0.455346
C172  C     C_2   0.271401 0.842460 0.695571 0.578440
H44   H     H_    0.290889 0.898122 0.698152 0.015166
O96   O     O_2   0.263708 0.817893 0.669302 -0.488368
C173  C     C_2   0.150858 0.264151 0.302623 0.526833
H45   H     H_    0.127229 0.316242 0.309069 0.054240
O97   O     O_2   0.129950 0.209510 0.316293 -0.485732
C174  C     C_2   0.879426 0.765679 0.711473 0.543130
H46   H     H_    0.931110 0.741656 0.718394 0.026094
O98   O     O_2   0.875109 0.794119 0.685783 -0.453364
C175  C     C_2   0.278618 0.836325 0.305997 0.493111
H47   H     H_    0.299451 0.891366 0.303022 0.024067
O99   O     O_2   0.267295 0.815295 0.332540 -0.472523
C176  C     C_2   0.730311 0.155624 0.696044 0.581149
H48   H     H_    0.710741 0.100057 0.698880 0.011580
O100  O     O_2   0.738814 0.179228 0.669662 -0.489284
N17   N     N_R   0.473509 0.132356 0.065484 0.252796
O101  O     O_R   0.519330 0.186393 0.067832 -0.253676
O102  O     O_R   0.418208 0.137652 0.046563 -0.257918
N18   N     N_R   0.535572 0.870946 0.934815 0.251313
O103  O     O_R   0.494986 0.813062 0.931726 -0.251327
O104  O     O_R   0.589573 0.870297 0.954539 -0.263323
N19   N     N_R   0.124906 0.454560 0.064976 0.252388
O105  O     O_R   0.185600 0.491026 0.067516 -0.251627
O106  O     O_R   0.121274 0.399593 0.045803 -0.261278
N20   N     N_R   0.876254 0.557726 0.934291 0.251209
O107  O     O_R   0.812503 0.527311 0.931004 -0.249775
O108  O     O_R   0.884219 0.611180 0.953998 -0.267710
N21   N     N_R   0.525888 0.868565 0.065238 0.252626
O109  O     O_R   0.479978 0.814582 0.067477 -0.252724
O110  O     O_R   0.581126 0.863410 0.046289 -0.257125
N22   N     N_R   0.463944 0.130203 0.934528 0.252474
O111  O     O_R   0.504497 0.188085 0.931360 -0.248501
O112  O     O_R   0.409856 0.131034 0.954194 -0.263590
N23   N     N_R   0.872033 0.546245 0.065689 0.252435
O113  O     O_R   0.811590 0.509384 0.068263 -0.249867
O114  O     O_R   0.874963 0.601782 0.046796 -0.261690
N24   N     N_R   0.119707 0.443757 0.935271 0.251039
O115  O     O_R   0.183666 0.473852 0.932201 -0.250394
O116  O     O_R   0.111013 0.390664 0.955098 -0.266641
N25   N     N_R   0.948446 0.625534 0.565493 0.251696
O117  O     O_R   0.981610 0.687888 0.568870 -0.249371
O118  O     O_R   0.895133 0.619919 0.545573 -0.268344
N26   N     N_R   0.036963 0.371211 0.434746 0.252496
O119  O     O_R   0.996043 0.313418 0.432197 -0.250507
O120  O     O_R   0.092242 0.370558 0.453813 -0.259379
N27   N     N_R   0.627761 0.953700 0.565633 0.252673
O121  O     O_R   0.688565 0.989691 0.568840 -0.248940
O122  O     O_R   0.624497 0.899640 0.545984 -0.266590
N28   N     N_R   0.371532 0.034333 0.435014 0.252621
O123  O     O_R   0.314697 0.991946 0.433009 -0.252678
O124  O     O_R   0.370259 0.089978 0.453881 -0.257806
N29   N     N_R   0.050654 0.376872 0.564959 0.251504
O125  O     O_R   0.017460 0.314466 0.568089 -0.250528
O126  O     O_R   0.104121 0.382837 0.545145 -0.266162
N30   N     N_R   0.964876 0.630342 0.434547 0.252621
O127  O     O_R   0.007553 0.687009 0.432778 -0.253538
O128  O     O_R   0.908561 0.631940 0.453026 -0.258949
N31   N     N_R   0.375101 0.045640 0.564964 0.252669
O129  O     O_R   0.314108 0.009912 0.568034 -0.248026
O130  O     O_R   0.378964 0.099337 0.545154 -0.264916
N32   N     N_R   0.630941 0.963593 0.434318 0.252763
O131  O     O_R   0.688357 0.004981 0.431646 -0.250912
O132  O     O_R   0.632327 0.908218 0.453330 -0.261576

loop_
_geom_bond_atom_site_label_1
_geom_bond_atom_site_label_2
_geom_bond_distance
_ccdc_geom_bond_type
C73   C145  1.500203 S    
Zn12  O21   1.933538 S    
C143  O67   1.220861 D    
C89   C104  1.410545 A    
N17   O101  1.301127 A    
O49   C63   1.273967 A    
Zn14  O23   1.933177 S    
C155  H27   1.084365 S    
C24   C124  1.409896 A    
Zn12  O1    1.938089 S    
C9    C37   1.415927 A    
C159  O83   1.221072 D    
Zn13  O12   1.927793 S    
C169  H41   1.082710 S    
O10   C50   1.279461 A    
Zn14  O11   1.927793 S    
C152  H24   1.085217 S    
N30   O128  1.301173 A    
O43   C69   1.273516 A    
C1    C129  1.493411 S    
O41   C71   1.273764 A    
C47   C124  1.471746 S    
C6    C22   1.412675 A    
N22   O111  1.301146 A    
N31   O130  1.301217 A    
Zn5   O40   1.933175 S    
C7    C35   1.414671 A    
C32   C128  1.411320 A    
C79   C114  1.411865 A    
C166  H38   1.085046 S    
C27   C127  1.410592 A    
N9    C42   1.356562 A    
C104  C176  1.492168 S    
O17   C53   1.279885 A    
N11   C44   1.356595 A    
O9    C49   1.279804 A    
Zn9   O4    1.938261 S    
C136  O60   1.220784 D    
C67   C117  1.455212 S    
C23   N23   1.436039 S    
Zn10  O3    1.938257 S    
C134  H6    1.084906 S    
C96   C168  1.491762 S    
C129  O53   1.220665 D    
C94   C109  1.416194 A    
O22   C58   1.273636 A    
C168  H40   1.085232 S    
Zn15  O6    1.927885 S    
O5    C49   1.279358 A    
Zn16  O1    1.938079 S    
C9    C25   1.412814 A    
C76   C117  1.411803 A    
Zn10  O32   1.933450 S    
C172  H44   1.085408 S    
N28   O124  1.301186 A    
C30   C126  1.411360 A    
C103  C120  1.416152 A    
C12   C28   1.412886 A    
C13   C29   1.412022 A    
C101  C118  1.412222 A    
O37   C67   1.273437 A    
Zn7   O14   1.927885 S    
O38   C68   1.273393 A    
C159  H31   1.084479 S    
C9    C137  1.492775 S    
C160  H32   1.085379 S    
C80   C152  1.491987 S    
C73   C120  1.416130 A    
C130  H2    1.084720 S    
C168  O92   1.221031 D    
C65   C115  1.455794 S    
N16   C43   1.357172 A    
C74   C146  1.492259 S    
N25   O117  1.301135 A    
C148  O72   1.221051 D    
O20   C56   1.279638 A    
C21   N21   1.435776 S    
N27   O121  1.301129 A    
C80   C113  1.412271 A    
O23   C59   1.273610 A    
O16   C56   1.279601 A    
O24   C60   1.273639 A    
Zn7   O49   1.933366 S    
C15   C39   1.414920 A    
C2    C130  1.492378 S    
C170  H42   1.085220 S    
N26   O120  1.301206 A    
N23   O113  1.301134 A    
Zn13  O24   1.933175 S    
C93   C100  1.410443 A    
N29   O125  1.301139 A    
C100  C172  1.492112 S    
O46   C60   1.273563 A    
Zn2   O48   1.933449 S    
C40   C49   1.470214 S    
C153  O77   1.221015 D    
C3    C19   1.412083 A    
C91   C102  1.410896 A    
C45   C122  1.473499 S    
O36   C72   1.274933 A    
C79   C151  1.490787 S    
C12   C40   1.414707 A    
C16   C144  1.492346 S    
C174  H46   1.085100 S    
C34   C55   1.469909 S    
C151  O75   1.220951 D    
N4    C47   1.356532 A    
C95   C167  1.492130 S    
C8    C136  1.491550 S    
C90   C105  1.410601 A    
O28   C64   1.273369 A    
C165  H37   1.084379 S    
C8    C36   1.415496 A    
N24   O115  1.301144 A    
C83   C155  1.493267 S    
C7    C135  1.491267 S    
C154  O78   1.221128 D    
C142  H14   1.084740 S    
C69   C119  1.455747 S    
O6    C50   1.279804 A    
C75   C86   1.409367 A    
C31   C127  1.410633 A    
C175  H47   1.085047 S    
C29   N29   1.436561 S    
N12   C43   1.357308 A    
C17   C121  1.411498 A    
C141  H13   1.084935 S    
C155  O79   1.221098 D    
C130  O54   1.220834 D    
C39   C50   1.470227 S    
C44   C127  1.472773 S    
C145  H17   1.085044 S    
C6    C134  1.492503 S    
C91   C163  1.492604 S    
N31   O129  1.301139 A    
O33   C69   1.273625 A    
C162  H34   1.085384 S    
N2    C45   1.356765 A    
C30   N30   1.435571 S    
C2    C34   1.414726 A    
C81   C153  1.492195 S    
Zn8   O50   1.933366 S    
C164  O88   1.221021 D    
Zn11  O29   1.933509 S    
C87   C159  1.493080 S    
C162  O86   1.220692 D    
C146  H18   1.085404 S    
Zn11  O10   1.927879 S    
O19   C55   1.279703 A    
O12   C52   1.280246 A    
C90   C162  1.485048 S    
Zn1   O47   1.933449 S    
O51   C61   1.274611 A    
C137  H9    1.085145 S    
C74   C119  1.412245 A    
C157  O81   1.220820 D    
C13   C37   1.415415 A    
C98   C113  1.412175 A    
C138  O62   1.220836 D    
N18   O103  1.301145 A    
O8    C52   1.280054 A    
C133  H5    1.084890 S    
N7    C48   1.357027 A    
C161  O85   1.221068 D    
C64   C106  1.454966 S    
C77   C149  1.485096 S    
N5    C46   1.357313 A    
C91   C108  1.412734 A    
C167  O91   1.221019 D    
C92   C107  1.412210 A    
Zn7   O42   1.933684 S    
C86   C107  1.412101 A    
C29   C125  1.409749 A    
C87   C106  1.412375 A    
O25   C61   1.272457 A    
C13   C141  1.491748 S    
N9    N14   1.330566 A    
C25   N25   1.436470 S    
C90   C103  1.409901 A    
Zn10  O27   1.933273 S    
O18   C54   1.279819 A    
N19   O105  1.301139 A    
C58   C108  1.455099 S    
C5    C21   1.413072 A    
Zn3   O45   1.933509 S    
Zn9   O8    1.928047 S    
C12   C140  1.492975 S    
Zn6   O2    1.938758 S    
C132  O56   1.220855 D    
Zn10  O7    1.928047 S    
C103  C175  1.500141 S    
N1    N6    1.330738 A    
Zn12  O9    1.927879 S    
Zn6   O19   1.927793 S    
Zn9   O28   1.933273 S    
C98   C170  1.491933 S    
C84   C109  1.416237 A    
Zn4   O46   1.933509 S    
O42   C72   1.272723 A    
Zn1   O16   1.928047 S    
Zn2   O15   1.928047 S    
C10   C26   1.412437 A    
N32   O131  1.301134 A    
C140  H12   1.084772 S    
C77   C116  1.410605 A    
C21   C121  1.411598 A    
C14   C30   1.412851 A    
N27   O122  1.301209 A    
C42   C125  1.471818 S    
C11   C139  1.492917 S    
C70   C120  1.455591 S    
C147  H19   1.082747 S    
C92   C164  1.490764 S    
C99   C116  1.410565 A    
C15   C143  1.491974 S    
N14   C41   1.357208 A    
C144  H16   1.085017 S    
C82   C154  1.492231 S    
C63   C105  1.458124 S    
C138  H10   1.084986 S    
C133  O57   1.220644 D    
N22   O112  1.301217 A    
Zn2   O43   1.933273 S    
C18   N18   1.436335 S    
C10   C138  1.492271 S    
C43   C128  1.475843 S    
C150  H22   1.085439 S    
C48   C123  1.474922 S    
C166  O90   1.219389 D    
C176  H48   1.085434 S    
Zn8   O41   1.933684 S    
N21   O110  1.301194 A    
C163  O87   1.221053 D    
C22   N22   1.436335 S    
Zn14  O36   1.933345 S    
Zn5   O1    1.938759 S    
C10   C38   1.414461 A    
C134  O58   1.220856 D    
C76   C85   1.410713 A    
C92   C101  1.409276 A    
C129  H1    1.084905 S    
C101  C173  1.493025 S    
C80   C81   1.411230 A    
C156  H28   1.085011 S    
C172  O96   1.221069 D    
O21   C57   1.273679 A    
C139  H11   1.085103 S    
C89   C106  1.412423 A    
C36   C53   1.471332 S    
N20   O107  1.301134 A    
C102  C174  1.492715 S    
Zn5   O51   1.933345 S    
C160  O84   1.220691 D    
C151  H23   1.085065 S    
N3    N8    1.330614 A    
N10   C41   1.357415 A    
C173  O97   1.221107 D    
C94   C99   1.409961 A    
C71   C113  1.456175 S    
N12   N15   1.330782 A    
C95   C98   1.411100 A    
C27   N27   1.436319 S    
C163  H35   1.085364 S    
N17   O102  1.301193 A    
C15   C31   1.412125 A    
Zn3   O38   1.933536 S    
C16   C32   1.412564 A    
C68   C118  1.454705 S    
C1    C17   1.412980 A    
Zn5   O20   1.927793 S    
C66   C116  1.458106 S    
C158  O82   1.221073 D    
C95   C112  1.411377 A    
C169  O93   1.221121 D    
Zn11  O22   1.933536 S    
C19   N19   1.436107 S    
C93   C110  1.412506 A    
C79   C82   1.408977 A    
N30   O127  1.301116 A    
C170  O94   1.220826 D    
C35   C54   1.470864 S    
O29   C65   1.273739 A    
C131  H3    1.084812 S    
Zn3   O3    1.938093 S    
C75   C118  1.412563 A    
O27   C63   1.273953 A    
N11   N16   1.330547 A    
C78   C115  1.412182 A    
C102  C117  1.411254 A    
C32   N32   1.436009 S    
C153  H25   1.084509 S    
Zn13  O4    1.938759 S    
C97   C169  1.491298 S    
C171  H43   1.085390 S    
C11   C39   1.415385 A    
C158  H30   1.085086 S    
C60   C110  1.454939 S    
C174  O98   1.221068 D    
C135  O59   1.220865 D    
O14   C54   1.279725 A    
C96   C111  1.411864 A    
C19   C123  1.411553 A    
O47   C57   1.273690 A    
Zn1   O44   1.933273 S    
N6    C45   1.356758 A    
Zn3   O18   1.927879 S    
C136  H8    1.084913 S    
C78   C150  1.492131 S    
C81   C112  1.411441 A    
C31   N31   1.436450 S    
C96   C97   1.409138 A    
C142  O66   1.220525 D    
O40   C66   1.274067 A    
O26   C62   1.273550 A    
C72   C114  1.456084 S    
C175  O99   1.219390 D    
N28   O123  1.301124 A    
C26   N26   1.436012 S    
C88   C105  1.410617 A    
Zn13  O35   1.933345 S    
C84   C156  1.500314 S    
Zn7   O3    1.938080 S    
C167  H39   1.084288 S    
Zn11  O2    1.938093 S    
C20   N20   1.436438 S    
C147  O71   1.221100 D    
O13   C53   1.280133 A    
O50   C64   1.273503 A    
O11   C51   1.280038 A    
C14   C142  1.493213 S    
C28   N28   1.435746 S    
C61   C111  1.454951 S    
C4    C20   1.412531 A    
C11   C27   1.412660 A    
Zn15  O26   1.933684 S    
O35   C71   1.273745 A    
C146  O70   1.221055 D    
N25   O118  1.301212 A    
C148  H20   1.084978 S    
O44   C70   1.273459 A    
C157  H29   1.084886 S    
C57   C107  1.455957 S    
N26   O119  1.301140 A    
N18   O104  1.301219 A    
Zn15  O33   1.933366 S    
C161  H33   1.084478 S    
C18   C122  1.410899 A    
N29   O126  1.301218 A    
Zn4   O4    1.938089 S    
C73   C88   1.409903 A    
C20   C124  1.410117 A    
Zn4   O17   1.927879 S    
O7    C51   1.279510 A    
C74   C87   1.410570 A    
C75   C147  1.492435 S    
C59   C109  1.455696 S    
Zn15  O2    1.938080 S    
C1    C33   1.414725 A    
Zn16  O5    1.927885 S    
C149  O73   1.220700 D    
C3    C35   1.414367 A    
Zn14  O3    1.938758 S    
O52   C62   1.273341 A    
C139  O63   1.220827 D    
Zn12  O30   1.933509 S    
C24   N24   1.436601 S    
O45   C59   1.273656 A    
Zn8   O13   1.927885 S    
C5    C33   1.414693 A    
C14   C38   1.414882 A    
N19   O106  1.301204 A    
C93   C165  1.493278 S    
Zn9   O31   1.933449 S    
C97   C114  1.412678 A    
C33   C56   1.469517 S    
N32   O132  1.301204 A    
N23   O114  1.301194 A    
C140  O64   1.220595 D    
C141  O65   1.220732 D    
C89   C161  1.493076 S    
Zn16  O25   1.933684 S    
C82   C111  1.412348 A    
C145  O69   1.219389 D    
Zn4   O37   1.933536 S    
C165  O89   1.221093 D    
C99   C171  1.485039 S    
Zn6   O39   1.933175 S    
C23   C123  1.411151 A    
C28   C128  1.411490 A    
N10   N13   1.330640 A    
C144  O68   1.220827 D    
C164  H36   1.084947 S    
C131  O55   1.220871 D    
C94   C166  1.500235 S    
C100  C115  1.412240 A    
Zn16  O34   1.933366 S    
C149  H21   1.085390 S    
C2    C18   1.412556 A    
N2    N5    1.330799 A    
C86   C158  1.491419 S    
C152  O76   1.220850 D    
C37   C52   1.471033 S    
C17   N17   1.435813 S    
C38   C51   1.470040 S    
C171  O95   1.220693 D    
C150  O74   1.221073 D    
C176  O100  1.221054 D    
C137  O61   1.220848 D    
Zn2   O2    1.938257 S    
C16   C40   1.414744 A    
C83   C110  1.412625 A    
C3    C131  1.491206 S    
C62   C112  1.455164 S    
C143  H15   1.084735 S    
N1    C46   1.357256 A    
O30   C66   1.274130 A    
O31   C67   1.273204 A    
N21   O109  1.301126 A    
O32   C68   1.273464 A    
Zn8   O4    1.938079 S    
C22   C122  1.410911 A    
C41   C126  1.476125 S    
C4    C36   1.416188 A    
Zn6   O52   1.933345 S    
O15   C55   1.279803 A    
C5    C133  1.493557 S    
C104  C119  1.412173 A    
C76   C148  1.494689 S    
C6    C34   1.414842 A    
C154  H26   1.083226 S    
C26   C126  1.411684 A    
C25   C125  1.410209 A    
N13   C42   1.356409 A    
C46   C121  1.476280 S    
C156  O80   1.219378 D    
N15   C44   1.356722 A    
N8    C47   1.356516 A    
C85   C157  1.493938 S    
C7    C23   1.412029 A    
Zn1   O1    1.938261 S    
C8    C24   1.411753 A    
C132  H4    1.085163 S    
N20   O108  1.301208 A    
C77   C84   1.410041 A    
O48   C58   1.273425 A    
C78   C83   1.410487 A    
O34   C70   1.273455 A    
N3    C48   1.357267 A    
O39   C65   1.273749 A    
C88   C160  1.484980 S    
C135  H7    1.084918 S    
C4    C132  1.492664 S    
C85   C108  1.415812 A    
C173  H45   1.083207 S    
N24   O116  1.301223 A    
N4    N7    1.330385 A    
