data_mof_unit_55207.cif
_audit_creation_date              2012-12-11T20:51:15-0500
_audit_creation_method            fapswitch 2.2
_symmetry_space_group_name_H-M    P1
_symmetry_Int_Tables_number       1
_space_group_crystal_system       triclinic
_cell_length_a                    30.399996
_cell_length_b                    34.313554
_cell_length_c                    8.470935
_cell_angle_alpha                 89.999954
_cell_angle_beta                  90.277013
_cell_angle_gamma                 90.000172
_cell_volume                      8836.1992832

loop_
_atom_site_label
_atom_site_type_symbol
_atom_type_description
_atom_site_fract_x
_atom_site_fract_y
_atom_site_fract_z
_atom_type_partial_charge
Ba1   Ba    Ba6+2 0.999930 0.472870 0.844940 1.626006
Ba2   Ba    Ba6+2 0.999930 0.527130 0.344940 1.625975
Ba3   Ba    Ba6+2 0.499930 0.972870 0.844940 1.625969
Ba4   Ba    Ba6+2 0.499930 0.027130 0.344940 1.626004
C1    C     C_3   0.017695 0.285065 0.525235 -0.333427
C2    C     C_R   0.217876 0.335197 0.512567 0.579831
C3    C     C_R   0.399289 0.085635 0.704310 0.005333
C4    C     C_R   0.874239 0.382094 0.149086 -0.113553
C5    C     C_R   0.874265 0.617911 0.649066 -0.113512
C6    C     C_R   0.374239 0.882092 0.149083 -0.113502
C7    C     C_R   0.374219 0.117903 0.649101 -0.113552
C8    C     C_R   0.864271 0.349385 0.246791 0.231961
C9    C     C_R   0.864284 0.650616 0.746782 0.231712
C10   C     C_R   0.364276 0.849381 0.246781 0.232037
C11   C     C_R   0.364267 0.150618 0.746792 0.232189
C12   C     C_2   0.070427 0.596400 0.877642 -0.285488
C13   C     C_R   0.717839 0.164786 0.013177 0.579801
C14   C     C_2   0.070415 0.403590 0.377685 -0.285446
C15   C     C_2   0.570431 0.096399 0.877639 -0.285525
C16   C     C_2   0.570447 0.903613 0.377585 -0.285591
C17   C     C_3   0.124753 0.475353 0.180243 0.320862
C18   C     C_3   0.124752 0.524648 0.680235 0.320902
C19   C     C_3   0.624764 0.975360 0.180260 0.320960
C20   C     C_3   0.624764 0.024640 0.680265 0.320898
C21   C     C_3   0.164627 0.448221 0.172793 -0.217148
C22   C     C_3   0.164626 0.551780 0.672784 -0.217206
C23   C     C_3   0.664642 0.948231 0.172800 -0.217271
C24   C     C_R   0.717800 0.835234 0.513849 0.579770
C25   C     C_3   0.664641 0.051769 0.672806 -0.217195
C26   C     C_3   0.835789 0.490376 0.177248 0.322812
C27   C     C_3   0.835784 0.509643 0.677280 0.322736
C28   C     C_3   0.335779 0.990379 0.177173 0.322864
C29   C     C_3   0.335781 0.009613 0.677163 0.322980
C30   C     C_3   0.797667 0.463586 0.125140 -0.209284
C31   C     C_3   0.797674 0.536444 0.625148 -0.209176
C32   C     C_3   0.297661 0.963599 0.124949 -0.209300
C33   C     C_3   0.297652 0.036377 0.624908 -0.209442
C34   C     C_3   0.003106 0.327306 0.538620 0.359138
C35   C     C_R   0.162210 0.714056 0.028542 0.583788
C36   C     C_3   0.003088 0.672698 0.038564 0.358936
C37   C     C_3   0.503103 0.827302 0.538604 0.358845
C38   C     C_3   0.503113 0.172698 0.038638 0.359025
C39   C     C_R   0.913792 0.414568 0.355556 -0.228058
C40   C     C_R   0.913795 0.585428 0.855564 -0.228078
C41   C     C_R   0.413797 0.914563 0.355547 -0.228027
C42   C     C_R   0.413795 0.085440 0.855540 -0.228020
C43   C     C_3   0.202361 0.462304 0.277771 -0.379605
C44   C     C_3   0.202358 0.537699 0.777778 -0.379615
C45   C     C_3   0.702377 0.962320 0.277761 -0.379631
C46   C     C_R   0.162203 0.285982 0.528889 0.583824
C47   C     C_3   0.702378 0.037679 0.777753 -0.379610
C48   C     C_3   0.818545 0.531779 0.204689 -0.315408
C49   C     C_3   0.818518 0.468248 0.704765 -0.315500
C50   C     C_3   0.318541 0.031787 0.204584 -0.315449
C51   C     C_3   0.318557 0.968202 0.704611 -0.315468
C52   C     C_3   0.771333 0.448263 0.265152 -0.408404
C53   C     C_3   0.771370 0.551807 0.765161 -0.408375
C54   C     C_3   0.271255 0.948310 0.264842 -0.408472
C55   C     C_3   0.271237 0.051660 0.764782 -0.408544
C56   C     C_3   0.876779 0.200802 0.084295 -0.333364
C57   C     C_R   0.662214 0.214063 0.028423 0.583779
C58   C     C_3   0.876726 0.799369 0.586516 -0.333317
C59   C     C_3   0.376790 0.700840 0.083751 -0.333372
C60   C     C_3   0.376828 0.299041 0.582232 -0.333414
C61   C     C_3   0.309055 0.639295 0.106872 -0.331757
C62   C     C_3   0.309187 0.360668 0.605270 -0.331755
C63   C     C_3   0.809013 0.139284 0.107452 -0.331760
C64   C     C_3   0.808828 0.860770 0.609772 -0.331764
C65   C     C_3   0.129019 0.684314 0.690218 -0.329123
C66   C     C_3   0.128969 0.315633 0.190381 -0.329389
C67   C     C_3   0.629071 0.184273 0.690120 -0.329089
C68   C     C_R   0.662230 0.785887 0.527903 0.583727
C69   C     C_3   0.629159 0.815813 0.189867 -0.328737
C70   C     C_3   0.932050 0.450404 0.432464 -0.214335
C71   C     C_3   0.932055 0.549592 0.932466 -0.214318
C72   C     C_3   0.432052 0.950400 0.432455 -0.214346
C73   C     C_3   0.432048 0.049602 0.932452 -0.214362
C74   C     C_3   0.968964 0.325407 0.082568 -0.308523
C75   C     C_3   0.968955 0.674614 0.582447 -0.308757
C76   C     C_3   0.469011 0.825387 0.082660 -0.308509
C77   C     C_3   0.469003 0.174593 0.582697 -0.308350
C78   C     C_R   0.194277 0.742622 0.061812 -0.016976
C79   C     C_R   0.194260 0.257410 0.562198 -0.016984
C80   C     C_R   0.694282 0.242628 0.061695 -0.016964
C81   C     C_3   0.017708 0.714933 0.025305 -0.333421
C82   C     C_R   0.694310 0.757331 0.561123 -0.016950
C83   C     C_R   0.239001 0.731846 0.077312 -0.069466
C84   C     C_R   0.239004 0.268159 0.577263 -0.069460
C85   C     C_R   0.739000 0.231845 0.077340 -0.069472
C86   C     C_R   0.738999 0.768152 0.577407 -0.069481
C87   C     C_R   0.296044 0.681753 0.086434 0.063487
C88   C     C_R   0.296108 0.318208 0.585438 0.063462
C89   C     C_R   0.796024 0.181740 0.086784 0.063501
C90   C     C_R   0.795936 0.818316 0.588236 0.063530
C91   C     C_R   0.828639 0.211240 0.106916 0.068312
C92   C     C_3   0.517747 0.785072 0.525438 -0.333621
C93   C     C_R   0.828581 0.788841 0.608328 0.068249
C94   C     C_R   0.328653 0.711257 0.106578 0.068321
C95   C     C_R   0.328694 0.288687 0.605612 0.068370
C96   C     C_R   0.815906 0.250758 0.133681 -0.043589
C97   C     C_R   0.815887 0.749281 0.634351 -0.043602
C98   C     C_R   0.315913 0.750766 0.133522 -0.043593
C99   C     C_R   0.315927 0.249208 0.633067 -0.043582
C100  C     C_R   0.771178 0.260868 0.114000 -0.070338
C101  C     C_R   0.771189 0.739136 0.614034 -0.070347
C102  C     C_R   0.271179 0.760870 0.113976 -0.070327
C103  C     C_3   0.517729 0.214933 0.025364 -0.333539
C104  C     C_R   0.271173 0.239129 0.613952 -0.070321
C105  C     C_R   0.182273 0.781921 0.079543 -0.082818
C106  C     C_R   0.182226 0.218131 0.580399 -0.082811
C107  C     C_R   0.682284 0.281931 0.079286 -0.082827
C108  C     C_R   0.682354 0.718000 0.578031 -0.082837
C109  C     C_3   0.016502 0.311480 0.064762 0.366460
C110  C     C_3   0.016503 0.688527 0.564750 0.366483
C111  C     C_3   0.516551 0.811470 0.064743 0.366355
C112  C     C_3   0.516538 0.188522 0.564750 0.366376
C113  C     C_R   0.713794 0.310304 0.110778 -0.081120
C114  C     C_R   0.251117 0.692242 0.059934 -0.047567
C115  C     C_R   0.713879 0.689638 0.609473 -0.081136
C116  C     C_R   0.213782 0.810295 0.111032 -0.081119
C117  C     C_R   0.213725 0.189749 0.611930 -0.081108
C118  C     C_R   0.758354 0.300313 0.129221 -0.013116
C119  C     C_R   0.758407 0.699665 0.628562 -0.013066
C120  C     C_R   0.258348 0.800310 0.129337 -0.013126
C121  C     C_R   0.258312 0.199708 0.629795 -0.013157
C122  C     C_R   0.790068 0.329163 0.164094 0.583496
C123  C     C_R   0.790130 0.670822 0.663408 0.583466
C124  C     C_R   0.290063 0.829161 0.164207 0.583488
C125  C     C_R   0.251150 0.307744 0.559430 -0.047576
C126  C     C_R   0.290019 0.170852 0.664694 0.583518
C127  C     C_R   0.846153 0.280469 0.183427 0.582442
C128  C     C_R   0.846138 0.719559 0.683972 0.582406
C129  C     C_R   0.346160 0.780471 0.183311 0.582448
C130  C     C_R   0.346170 0.219511 0.682950 0.582464
C131  C     C_2   0.115981 0.652759 0.806191 0.013666
C132  C     C_2   0.115969 0.347230 0.306220 0.013654
C133  C     C_2   0.616001 0.152745 0.806162 0.013672
C134  C     C_2   0.616026 0.847277 0.306109 0.013686
C135  C     C_3   0.075158 0.631006 0.783230 -0.080593
C136  C     C_R   0.751108 0.192236 0.060111 -0.047568
C137  C     C_3   0.075150 0.368988 0.283253 -0.080585
C138  C     C_3   0.575171 0.131000 0.783208 -0.080546
C139  C     C_3   0.575188 0.869010 0.283170 -0.080526
C140  C     C_1   0.097352 0.588071 0.005142 0.031550
C141  C     C_1   0.097357 0.411932 0.505126 0.031519
C142  C     C_1   0.597350 0.088073 0.005157 0.031563
C143  C     C_1   0.597343 0.911923 0.505182 0.031591
C144  C     C_2   0.129750 0.613957 0.050937 -0.114199
C145  C     C_2   0.129778 0.386063 0.550860 -0.114254
C146  C     C_2   0.629739 0.113964 0.050980 -0.114211
C147  C     C_R   0.751063 0.807787 0.560849 -0.047558
C148  C     C_2   0.629702 0.886009 0.551091 -0.114150
C149  C     C_2   0.140744 0.647768 0.948211 0.250441
C150  C     C_2   0.140757 0.352243 0.448170 0.250590
C151  C     C_2   0.640747 0.147766 0.948226 0.250381
C152  C     C_2   0.640735 0.852222 0.448278 0.250157
C153  C     C_R   0.881908 0.347322 0.393651 -0.116159
C154  C     C_R   0.881902 0.652667 0.893676 -0.116206
C155  C     C_R   0.381919 0.847315 0.393631 -0.116122
C156  C     C_R   0.381923 0.152692 0.893615 -0.116088
C157  C     C_3   0.017056 0.270385 0.995468 -0.342909
C158  C     C_R   0.217845 0.664793 0.013022 0.579807
C159  C     C_3   0.017083 0.729626 0.495498 -0.342959
C160  C     C_3   0.517103 0.770382 0.995387 -0.342927
C161  C     C_3   0.517074 0.229610 0.495386 -0.342891
C162  C     C_R   0.909700 0.379436 0.453753 -0.016178
C163  C     C_R   0.909696 0.620556 0.953770 -0.016218
C164  C     C_R   0.409710 0.879428 0.453736 -0.016254
C165  C     C_R   0.409712 0.120576 0.953724 -0.016224
C166  C     C_R   0.899298 0.414367 0.204312 0.005308
C167  C     C_R   0.899310 0.585633 0.704310 0.005270
C168  C     C_R   0.399298 0.914365 0.204308 0.005312
H1    H     H_    0.849868 0.479624 0.289599 0.046178
H2    H     H_    0.810735 0.561710 0.558568 0.123444
H3    H     H_    0.893145 0.802763 0.703057 0.146828
H4    H     H_    0.893687 0.776736 0.515549 0.142592
H5    H     H_    0.881053 0.826515 0.517228 0.086367
H6    H     H_    0.393351 0.697275 0.199954 0.146747
H7    H     H_    0.381077 0.673819 0.013625 0.086427
H8    H     H_    0.393625 0.723617 0.013148 0.142593
H9    H     H_    0.393467 0.302700 0.698247 0.146695
H10   H     H_    0.393595 0.276185 0.511838 0.142595
H11   H     H_    0.381094 0.325993 0.511651 0.086458
H12   H     H_    0.284755 0.623979 0.182132 0.144119
H13   H     H_    0.310726 0.938293 0.058638 0.123084
H14   H     H_    0.311522 0.624830 0.990014 0.147103
H15   H     H_    0.340694 0.635756 0.170961 0.085788
H16   H     H_    0.284974 0.376052 0.680667 0.144146
H17   H     H_    0.340890 0.364223 0.668929 0.085776
H18   H     H_    0.311559 0.375055 0.488226 0.147118
H19   H     H_    0.784680 0.123988 0.182640 0.144112
H20   H     H_    0.811523 0.124791 0.990667 0.147087
H21   H     H_    0.840625 0.135754 0.171718 0.085790
H22   H     H_    0.784371 0.875968 0.684768 0.144081
H23   H     H_    0.840349 0.864276 0.674643 0.085805
H24   H     H_    0.310706 0.061685 0.558582 0.122881
H25   H     H_    0.811470 0.875374 0.493258 0.147069
H26   H     H_    0.105528 0.708954 0.696476 0.116609
H27   H     H_    0.162520 0.695722 0.714011 0.104525
H28   H     H_    0.129900 0.672883 0.568075 0.130692
H29   H     H_    0.162483 0.304244 0.214078 0.104574
H30   H     H_    0.105491 0.290988 0.196936 0.116536
H31   H     H_    0.129793 0.327014 0.068154 0.130800
H32   H     H_    0.605594 0.208926 0.696265 0.116661
H33   H     H_    0.662575 0.195671 0.713938 0.104508
H34   H     H_    0.629962 0.172821 0.568014 0.130666
H35   H     H_    0.990981 0.336704 0.420445 -0.093267
H36   H     H_    0.662648 0.804398 0.213809 0.104437
H37   H     H_    0.605673 0.791161 0.195591 0.116792
H38   H     H_    0.630123 0.827337 0.067883 0.130514
H39   H     H_    0.860897 0.382942 0.030541 0.104958
H40   H     H_    0.860940 0.617068 0.530497 0.105318
H41   H     H_    0.360893 0.882942 0.030545 0.104874
H42   H     H_    0.360859 0.117049 0.530583 0.104633
H43   H     H_    0.917165 0.476828 0.384967 0.130980
H44   H     H_    0.923309 0.451207 0.559165 0.144920
H45   H     H_    0.968098 0.451828 0.415133 0.126984
H46   H     H_    0.990935 0.663332 0.920383 -0.092991
H47   H     H_    0.917171 0.523168 0.884964 0.131024
H48   H     H_    0.968103 0.548169 0.915131 0.126988
H49   H     H_    0.923315 0.548788 0.059167 0.144902
H50   H     H_    0.417163 0.976822 0.384952 0.131024
H51   H     H_    0.423310 0.951202 0.559155 0.144922
H52   H     H_    0.468100 0.951826 0.415125 0.126984
H53   H     H_    0.417158 0.023181 0.884952 0.131011
H54   H     H_    0.468096 0.048175 0.915124 0.126981
H55   H     H_    0.423306 0.048801 0.059152 0.144915
H56   H     H_    0.988958 0.266142 0.498653 0.114289
H57   H     H_    0.490939 0.836644 0.420410 -0.093036
H58   H     H_    0.988978 0.733882 0.998929 0.114407
H59   H     H_    0.489021 0.766099 0.499304 0.114400
H60   H     H_    0.488995 0.233882 0.999036 0.114284
H61   H     H_    0.040461 0.579614 0.862600 0.062275
H62   H     H_    0.040442 0.420368 0.362683 0.062280
H63   H     H_    0.540461 0.079618 0.862606 0.062282
H64   H     H_    0.540483 0.920400 0.362511 0.062281
H65   H     H_    0.967692 0.355081 0.133492 0.069975
H66   H     H_    0.951538 0.325226 0.967359 0.167746
H67   H     H_    0.951704 0.305888 0.165517 0.122945
H68   H     H_    0.490970 0.163327 0.920451 -0.093256
H69   H     H_    0.967670 0.644952 0.633497 0.069966
H70   H     H_    0.951664 0.694161 0.665210 0.122888
H71   H     H_    0.951568 0.674763 0.467167 0.167821
H72   H     H_    0.467738 0.855052 0.133679 0.069845
H73   H     H_    0.451574 0.825227 0.967469 0.167758
H74   H     H_    0.451763 0.805849 0.165569 0.122987
H75   H     H_    0.467739 0.144916 0.633597 0.069894
H76   H     H_    0.451774 0.194105 0.665744 0.123009
H77   H     H_    0.451546 0.174782 0.467546 0.167712
H78   H     H_    0.031498 0.309128 0.183564 -0.030480
H79   H     H_    0.033418 0.275442 0.636985 0.146786
H80   H     H_    0.031485 0.690866 0.683581 -0.030449
H81   H     H_    0.531573 0.809112 0.183508 -0.030367
H82   H     H_    0.531560 0.190887 0.683510 -0.030432
H83   H     H_    0.051504 0.261028 0.974271 0.113343
H84   H     H_    0.051538 0.738971 0.474350 0.113326
H85   H     H_    0.551549 0.761032 0.974109 0.113243
H86   H     H_    0.551517 0.238969 0.474103 0.113281
H87   H     H_    0.114540 0.479166 0.304340 0.009087
H88   H     H_    0.114538 0.520837 0.804330 0.009088
H89   H     H_    0.614557 0.979175 0.304361 0.009128
H90   H     H_    0.033475 0.724515 0.137034 0.146752
H91   H     H_    0.614557 0.020824 0.804366 0.009126
H92   H     H_    0.097530 0.461627 0.112479 0.064002
H93   H     H_    0.097531 0.538374 0.612462 0.064029
H94   H     H_    0.597541 0.961629 0.112516 0.063991
H95   H     H_    0.597540 0.038371 0.612525 0.063965
H96   H     H_    0.533573 0.775528 0.637116 0.146636
H97   H     H_    0.849866 0.520396 0.789624 0.046224
H98   H     H_    0.533510 0.224515 0.137069 0.146728
H99   H     H_    0.001671 0.249524 0.079006 0.080704
H100  H     H_    0.001701 0.750488 0.579039 0.080672
H101  H     H_    0.501735 0.749511 0.078926 0.080780
H102  H     H_    0.501699 0.250477 0.578922 0.080785
H103  H     H_    0.148291 0.791023 0.067646 0.116057
H104  H     H_    0.148228 0.209049 0.568851 0.116041
H105  H     H_    0.648306 0.291038 0.067277 0.116063
H106  H     H_    0.648400 0.708864 0.565509 0.116088
H107  H     H_    0.875041 0.322685 0.469449 0.099019
H108  H     H_    0.349839 0.979618 0.289544 0.046115
H109  H     H_    0.875021 0.677294 0.969512 0.099268
H110  H     H_    0.375056 0.822674 0.469416 0.098969
H111  H     H_    0.375070 0.177340 0.969375 0.098814
H112  H     H_    0.146981 0.610047 0.162356 0.101741
H113  H     H_    0.147035 0.389991 0.662218 0.101609
H114  H     H_    0.646954 0.110064 0.162437 0.101798
H115  H     H_    0.646877 0.889884 0.662639 0.102004
H116  H     H_    0.998576 0.269446 0.882259 0.133754
H117  H     H_    0.998614 0.730578 0.382268 0.133730
H118  H     H_    0.498606 0.769450 0.882212 0.133787
H119  H     H_    0.349835 0.020386 0.789526 0.046059
H120  H     H_    0.498576 0.230535 0.382213 0.133789
H121  H     H_    0.031881 0.345277 0.574270 0.060391
H122  H     H_    0.031856 0.654704 0.074090 0.060201
H123  H     H_    0.531862 0.845315 0.574061 0.060054
H124  H     H_    0.531880 0.154706 0.074191 0.060249
H125  H     H_    0.192069 0.462695 0.403228 0.153870
H126  H     H_    0.230721 0.442135 0.266156 0.148464
H127  H     H_    0.213049 0.491973 0.242253 0.145007
H128  H     H_    0.192063 0.537311 0.903232 0.153930
H129  H     H_    0.213047 0.508030 0.742273 0.145001
H130  H     H_    0.774853 0.479499 0.045381 0.098208
H131  H     H_    0.230719 0.557868 0.766165 0.148358
H132  H     H_    0.692086 0.962717 0.403219 0.154042
H133  H     H_    0.730737 0.942150 0.266161 0.148142
H134  H     H_    0.713064 0.991987 0.242216 0.145051
H135  H     H_    0.692090 0.037280 0.903214 0.153952
H136  H     H_    0.713064 0.008012 0.742197 0.145062
H137  H     H_    0.730738 0.057848 0.766148 0.148300
H138  H     H_    0.154901 0.418612 0.211508 0.082093
H139  H     H_    0.154901 0.581389 0.711485 0.082043
H140  H     H_    0.654922 0.918623 0.211528 0.081930
H141  H     H_    0.774840 0.520529 0.545475 0.098174
H142  H     H_    0.654920 0.081377 0.711547 0.082014
H143  H     H_    0.176147 0.446145 0.048700 0.131378
H144  H     H_    0.176149 0.553853 0.548693 0.131374
H145  H     H_    0.676159 0.946155 0.048703 0.131377
H146  H     H_    0.676155 0.053849 0.548708 0.131376
H147  H     H_    0.806890 0.544611 0.091957 0.090832
H148  H     H_    0.790815 0.532122 0.288401 0.069177
H149  H     H_    0.845027 0.550715 0.251236 0.132097
H150  H     H_    0.806932 0.455389 0.591997 0.090937
H151  H     H_    0.844968 0.449322 0.751614 0.132102
H152  H     H_    0.274895 0.979510 0.045016 0.098262
H153  H     H_    0.790732 0.467928 0.788243 0.069145
H154  H     H_    0.306978 0.044644 0.091778 0.090945
H155  H     H_    0.290747 0.032136 0.288017 0.069082
H156  H     H_    0.345000 0.050701 0.251442 0.132078
H157  H     H_    0.307011 0.955332 0.591817 0.090911
H158  H     H_    0.345018 0.949299 0.751517 0.132116
H159  H     H_    0.290753 0.967848 0.788002 0.069105
H160  H     H_    0.742770 0.431203 0.221269 0.177704
H161  H     H_    0.792339 0.429046 0.339210 0.151500
H162  H     H_    0.758474 0.472480 0.338116 0.103650
H163  H     H_    0.274893 0.020453 0.544997 0.098295
H164  H     H_    0.742804 0.568864 0.721277 0.177703
H165  H     H_    0.758515 0.527611 0.838248 0.103617
H166  H     H_    0.792394 0.571038 0.839101 0.151290
H167  H     H_    0.242717 0.931237 0.220837 0.177662
H168  H     H_    0.292222 0.929110 0.339112 0.151552
H169  H     H_    0.258353 0.972544 0.337610 0.103689
H170  H     H_    0.242698 0.068731 0.720768 0.177691
H171  H     H_    0.258338 0.027425 0.837539 0.103709
H172  H     H_    0.292198 0.070862 0.839054 0.151783
H173  H     H_    0.041974 0.281961 0.428985 0.113998
H174  H     H_    0.810717 0.438300 0.058659 0.123159
H175  H     H_    0.041957 0.718048 0.928965 0.114086
H176  H     H_    0.541953 0.781947 0.428964 0.114371
H177  H     H_    0.541965 0.218050 0.928984 0.114195
H178  H     H_    0.702947 0.340242 0.122319 0.113827
H179  H     H_    0.703064 0.659677 0.620468 0.113831
H180  H     H_    0.202930 0.840229 0.122681 0.113819
H181  H     H_    0.202850 0.159831 0.623957 0.113817
H182  H     H_    0.893313 0.197277 0.200566 0.146760
H183  H     H_    0.881076 0.173751 0.014366 0.086407
H184  H     H_    0.893639 0.223546 0.013600 0.142592
N1    N     N_R   0.174224 0.675941 0.998452 -0.422696
N2    N     N_R   0.174237 0.324073 0.498414 -0.422702
N3    N     N_R   0.674224 0.175940 0.998468 -0.422692
N4    N     N_R   0.674211 0.824045 0.498520 -0.422679
N5    N     N_R   0.833411 0.319252 0.193331 -0.419566
N6    N     N_R   0.833434 0.680755 0.693289 -0.419532
N7    N     N_R   0.333413 0.819252 0.193328 -0.419584
N8    N     N_R   0.333397 0.180744 0.693365 -0.419604
O1    O     O_2   0.914200 0.445720 0.903420 -0.456578
O2    O     O_3   0.040848 0.663549 0.465392 -0.552631
O3    O     O_3   0.540872 0.836459 0.965356 -0.552678
O4    O     O_3   0.540866 0.163538 0.465369 -0.552630
O5    O     O_3   0.049930 0.518940 0.045960 -0.501683
O6    O     O_3   0.049930 0.481060 0.545960 -0.501680
O7    O     O_3   0.549930 0.018940 0.045960 -0.501680
O8    O     O_3   0.549930 0.981060 0.545960 -0.501684
O9    O     O_2   0.227778 0.631340 0.979790 -0.615749
O10   O     O_2   0.227818 0.368628 0.479020 -0.615771
O11   O     O_2   0.727772 0.131327 0.980045 -0.615723
O12   O     O_2   0.914200 0.554280 0.403420 -0.456616
O13   O     O_2   0.727720 0.868725 0.481197 -0.615692
O14   O     O_2   0.123396 0.723206 0.024991 -0.620667
O15   O     O_2   0.123379 0.276859 0.525657 -0.620635
O16   O     O_2   0.623403 0.223220 0.024754 -0.620708
O17   O     O_2   0.623433 0.776691 0.523758 -0.620758
O18   O     O_2   0.778754 0.363208 0.172128 -0.629289
O19   O     O_2   0.778854 0.636758 0.670833 -0.629407
O20   O     O_2   0.278745 0.863204 0.172344 -0.629257
O21   O     O_2   0.278673 0.136823 0.673269 -0.629197
O22   O     O_2   0.883447 0.271639 0.222769 -0.626820
O23   O     O_2   0.414200 0.945720 0.903420 -0.456590
O24   O     O_2   0.883400 0.728390 0.723699 -0.626802
O25   O     O_2   0.383458 0.771639 0.222595 -0.626789
O26   O     O_2   0.383489 0.228342 0.721985 -0.626801
O27   O     O_3   0.950020 0.480960 0.143730 -0.490490
O28   O     O_3   0.950020 0.519040 0.643730 -0.490474
O29   O     O_3   0.450020 0.980960 0.143730 -0.490456
O30   O     O_3   0.450020 0.019040 0.643730 -0.490463
O31   O     O_3   0.985090 0.412220 0.642040 -0.486354
O32   O     O_3   0.985090 0.587780 0.142040 -0.486348
O33   O     O_3   0.485090 0.912220 0.642040 -0.486345
O34   O     O_2   0.414200 0.054280 0.403420 -0.456562
O35   O     O_3   0.485090 0.087780 0.142040 -0.486343
O36   O     O_2   0.916097 0.378855 0.784031 -0.487007
O37   O     O_2   0.916097 0.621142 0.284038 -0.487069
O38   O     O_2   0.416099 0.878854 0.784025 -0.486986
O39   O     O_2   0.416098 0.121147 0.284017 -0.486957
O40   O     O_3   0.867539 0.492952 0.057174 -0.650948
O41   O     O_3   0.867536 0.507049 0.557215 -0.650923
O42   O     O_3   0.367546 0.992956 0.057158 -0.650926
O43   O     O_3   0.367549 0.007041 0.557150 -0.650924
O44   O     O_3   0.970239 0.330125 0.653862 -0.585735
O45   O     O_3   0.135984 0.488550 0.614736 -0.644085
O46   O     O_3   0.970236 0.669873 0.153858 -0.585684
O47   O     O_3   0.470254 0.830128 0.653909 -0.585637
O48   O     O_3   0.470254 0.169874 0.153909 -0.585695
O49   O     O_2   0.085560 0.445380 0.786390 -0.441505
O50   O     O_2   0.085560 0.554620 0.286390 -0.441517
O51   O     O_2   0.585560 0.945380 0.786390 -0.441509
O52   O     O_2   0.585560 0.054620 0.286390 -0.441504
O53   O     O_3   0.014550 0.412170 0.047860 -0.459668
O54   O     O_3   0.014550 0.587830 0.547860 -0.459651
O55   O     O_3   0.514550 0.912170 0.047860 -0.459620
O56   O     O_3   0.135984 0.511450 0.114735 -0.644059
O57   O     O_3   0.514550 0.087830 0.547860 -0.459648
O58   O     O_2   0.097154 0.393200 0.977649 -0.489757
O59   O     O_2   0.097147 0.606800 0.477625 -0.489797
O60   O     O_2   0.597152 0.893223 0.977585 -0.489902
O61   O     O_2   0.597158 0.106782 0.477624 -0.489834
O62   O     O_3   0.635988 0.988545 0.614728 -0.644030
O63   O     O_3   0.635988 0.011455 0.114728 -0.644070
O64   O     O_3   0.040846 0.336456 0.965398 -0.552597
P1    P     P_3+3 0.909970 0.458430 0.077330 0.956889
P2    P     P_3+3 0.057258 0.621996 0.571360 0.957965
P3    P     P_3+3 0.557271 0.878015 0.071325 0.957912
P4    P     P_3+3 0.557271 0.121985 0.571347 0.957962
P5    P     P_3+3 0.944474 0.624603 0.133832 0.965511
P6    P     P_3+3 0.944475 0.375394 0.633828 0.965541
P7    P     P_3+3 0.444481 0.124611 0.133826 0.965537
P8    P     P_3+3 0.444480 0.875391 0.633830 0.965534
P9    P     P_3+3 0.909970 0.541570 0.577330 0.956900
P10   P     P_3+3 0.409970 0.958430 0.077330 0.956924
P11   P     P_3+3 0.409970 0.041570 0.577330 0.956943
P12   P     P_3+3 0.089830 0.458070 0.612460 0.982040
P13   P     P_3+3 0.089830 0.541930 0.112460 0.982061
P14   P     P_3+3 0.589830 0.958070 0.612460 0.982088
P15   P     P_3+3 0.589830 0.041930 0.112460 0.982058
P16   P     P_3+3 0.057261 0.378007 0.071374 0.957997

loop_
_geom_bond_atom_site_label_1
_geom_bond_atom_site_label_2
_ccdc_geom_bond_type
C29   C51   S    
C95   C99   A    
C61   H15   S    
C30   C52   S    
C62   H16   S    
C77   H75   S    
C38   O48   S    
Ba2   O50   S    
C67   C133  S    
C137  P16   S    
C112  H82   S    
C72   H52   S    
O57   P4    S    
C131  C135  A    
C126  N8    Am   
C12   C140  A    
C46   N2    Am   
C59   C94   S    
C134  C139  A    
C84   C104  A    
Ba1   O6    S    
C78   C83   A    
O4    P4    S    
C62   H17   S    
C96   C100  A    
C101  C119  A    
C130  N8    Am   
C142  C146  A    
C60   H11   S    
C7    C11   A    
C148  C152  S    
C16   H64   S    
C34   H121  S    
C75   H71   S    
C8    C153  D    
C4    H39   S    
C31   H141  S    
C14   C141  A    
O2    P2    S    
C79   C84   A    
C73   H54   S    
C74   H66   S    
Ba3   O7    S    
C66   C132  S    
C39   C166  D    
C154  C163  S    
Ba4   P11   S    
C154  H109  S    
C13   O11   D    
C51   H157  S    
C168  P10   S    
C160  H101  S    
C83   C114  A    
C45   H134  S    
C82   C86   A    
C38   H68   S    
C53   H166  S    
C123  N6    Am   
O29   P10   S    
C90   C93   A    
C94   C98   A    
C165  P7    S    
C37   O47   S    
C18   O45   S    
C78   C105  A    
C132  C137  A    
C111  H81   S    
C71   H47   S    
C110  O2    S    
C56   H183  S    
C22   H139  S    
O32   P5    S    
C81   H175  S    
C87   C114  A    
C117  H181  S    
O30   P11   S    
C69   H36   S    
C38   H124  S    
C36   H46   S    
C20   H95   S    
C8    N5    S    
C27   O41   S    
Ba2   O5    S    
C5    C167  A    
C74   C109  S    
C144  C149  S    
C41   C168  D    
C58   H4    S    
Ba4   O57   S    
C39   C162  S    
C61   C87   S    
C55   H172  S    
C114  C158  A    
C23   H145  S    
C128  N6    Am   
C92   H96   S    
C45   H132  S    
C50   H155  S    
C86   C101  A    
C57   C80   A    
C42   C73   S    
C14   H62   S    
C6    H41   S    
O54   P2    S    
C115  C119  A    
C127  O22   D    
O40   P1    S    
O63   P15   S    
C11   C156  D    
C17   O56   S    
C160  H118  S    
O8    P14   S    
C12   H61   S    
C58   H3    S    
Ba1   P12   S    
C64   H23   S    
C53   H165  S    
C75   H69   S    
C87   C94   A    
O44   P6    S    
C108  H106  S    
C7    H42   S    
C109  C157  S    
C97   C128  A    
C67   H33   S    
O37   P5    D    
C24   O13   D    
C138  P4    S    
C68   N4    Am   
C44   H128  S    
C131  C149  A    
C105  C116  A    
C66   H30   S    
O60   P3    D    
C133  C138  A    
C30   H174  S    
C54   H168  S    
C36   H122  S    
C150  N2    S    
C49   H150  S    
O3    P3    S    
O27   P1    S    
O51   P14   D    
C69   H37   S    
C163  P5    S    
C106  C117  A    
O48   P7    S    
C37   C92   S    
C100  C118  A    
C19   H89   S    
Ba3   P14   S    
C155  H110  S    
C133  C151  A    
C5    C9    A    
C20   C25   S    
Ba4   O8    S    
C60   C95   S    
C46   O15   D    
O28   P9    S    
C26   O40   S    
O12   P9    D    
Ba2   O32   S    
C115  H179  S    
C13   N3    Am   
C55   H170  S    
C89   C91   A    
C160  H85   S    
C103  H98   S    
C84   C125  A    
C107  H105  S    
C67   H32   S    
C15   C142  A    
C34   H35   S    
C26   C30   S    
C3    C42   D    
C43   H126  S    
C44   H129  S    
C6    C10   A    
C63   H20   S    
C17   H87   S    
C62   C88   S    
C18   H88   S    
C64   C90   S    
C59   H8    S    
C64   H25   S    
C166  P1    S    
C113  C118  A    
C56   C91   S    
C117  C121  A    
C52   H160  S    
C153  H107  S    
C58   C93   S    
C112  O4    S    
C119  C123  A    
C4    C8    A    
C85   C136  A    
C49   H153  S    
Ba4   O35   S    
C79   C106  A    
O38   P8    D    
C159  H117  S    
C33   H163  S    
C33   C55   S    
C23   H140  S    
C57   O16   D    
Ba3   O23   S    
C37   H123  S    
Ba4   P15   S    
O36   P6    D    
C56   H182  S    
C146  C151  S    
C161  H120  S    
C18   C22   S    
C65   H26   S    
C76   H74   S    
C102  C120  A    
Ba3   Ba4   S    
C25   C47   S    
C17   C21   S    
C61   H14   S    
C14   C137  A    
C35   C78   A    
C103  H177  S    
C60   H10   S    
Ba1   O28   S    
C10   C155  D    
C107  C113  A    
C98   C129  A    
C128  O24   D    
O31   P6    S    
C129  O25   D    
C36   O46   S    
Ba1   O5    S    
O64   P16   S    
C123  O19   D    
C62   H18   S    
C20   H91   S    
C34   O44   S    
O61   P4    D    
C35   N1    Am   
C41   C164  S    
C47   H136  S    
C24   C147  A    
C65   C131  S    
O46   P5    S    
C63   C89   S    
C64   H22   S    
C146  H114  S    
C103  H60   S    
C52   H161  S    
C23   C45   S    
C88   C95   A    
C61   H12   S    
O41   P9    S    
C73   H53   S    
C74   H67   S    
C70   H43   S    
C24   N4    Am   
C77   H76   S    
C81   H90   S    
C44   H131  S    
C58   H5    S    
C116  H180  S    
Ba3   O30   S    
C59   H6    S    
C41   C72   S    
O58   P16   D    
C151  N3    S    
C99   C130  A    
O53   P16   S    
C45   H133  S    
O1    P1    D    
C5    H40   S    
C6    C168  A    
O33   P8    S    
C32   H13   S    
C92   H59   S    
C25   H146  S    
C26   C48   S    
C56   H184  S    
C48   H147  S    
C46   C79   A    
C65   H28   S    
C156  C165  S    
C32   H152  S    
O35   P7    S    
C161  H102  S    
C38   C103  S    
C21   C43   S    
C157  H116  S    
C22   C44   S    
C120  C124  A    
Ba1   O1    S    
C1    C34   S    
Ba2   O6    S    
C16   C139  A    
Ba4   O52   S    
C28   C50   S    
C4    C166  A    
C72   H51   S    
Ba3   P10   S    
C55   H171  S    
C148  H115  S    
C80   C107  A    
C50   H156  S    
C122  N5    Am   
C91   C96   A    
C90   C147  A    
C2    O10   D    
C29   C33   S    
C48   H149  S    
C40   C163  S    
C36   C81   S    
C43   H127  S    
C145  C150  S    
C132  C150  A    
C17   H92   S    
Ba3   O33   S    
C76   C111  S    
C139  P3    S    
O5    P13   S    
Ba2   O54   S    
C130  O26   D    
C111  O3    S    
C141  P12   S    
Ba1   P1    S    
C124  O20   D    
C155  C164  S    
O56   P13   S    
C15   C138  A    
Ba3   O8    S    
Ba4   O34   S    
C27   C31   S    
C112  C161  S    
C158  N1    Am   
O50   P13   D    
C28   C32   S    
O47   P8    S    
C66   H31   S    
C106  H104  S    
C51   H158  S    
C81   H58   S    
C86   C147  A    
C15   H63   S    
C108  C115  A    
C68   C82   A    
C1    H56   S    
O43   P11   S    
C30   H130  S    
C20   O62   S    
C31   C53   S    
C88   C125  A    
C40   C167  D    
C89   C136  A    
Ba3   O51   S    
C18   H93   S    
C71   H48   S    
O6    P12   S    
C143  P14   S    
O39   P7    D    
C142  P15   S    
C126  O21   D    
C29   O43   S    
Ba2   O12   S    
O52   P15   D    
C164  P8    S    
C141  C145  A    
C47   H137  S    
Ba2   P9    S    
C11   N8    S    
C54   H169  S    
C156  H111  S    
C1    H79   S    
C50   H154  S    
C140  C144  A    
O55   P3    S    
C124  N7    Am   
C96   C127  A    
C59   H7    S    
O42   P10   S    
C157  H99   S    
C3    C7    A    
C149  N1    S    
C10   N7    S    
C43   H125  S    
C32   C54   S    
O23   P10   D    
C63   H19   S    
C69   C134  S    
O7    P15   S    
C161  H86   S    
C77   C112  S    
Ba1   Ba2   S    
C75   H70   S    
C111  C160  S    
C121  C126  A    
C167  P9    S    
C67   H34   S    
C9    N6    S    
C27   H97   S    
O45   P12   S    
C99   C104  A    
O49   P12   D    
C19   C23   S    
C104  C121  A    
C13   C136  A    
C26   H1    S    
Ba2   O27   S    
C28   H108  S    
C3    P11   S    
C68   O17   D    
C66   H29   S    
O34   P11   D    
Ba2   P13   S    
C110  H80   S    
C54   H167  S    
C127  N5    Am   
C2    C125  A    
C29   H119  S    
C2    N2    Am   
C97   C101  A    
C49   H151  S    
C33   H24   S    
C69   H38   S    
C28   O42   S    
C25   H142  S    
C19   O63   S    
C135  P2    S    
C21   H143  S    
C72   H50   S    
C22   H144  S    
C1    H173  S    
C109  H78   S    
C76   H72   S    
C118  C122  A    
C40   C71   S    
C82   C108  A    
Ba4   O7    S    
O62   P14   S    
C158  O9    D    
C16   C143  A    
C27   C49   S    
C113  H178  S    
C105  H103  S    
C35   O14   D    
O59   P2    D    
C47   H135  S    
C60   H9    S    
C57   N3    Am   
C37   H57   S    
C85   C100  A    
C48   H148  S    
C12   C135  A    
C80   C85   A    
C9    C154  D    
C157  H83   S    
C52   H162  S    
C134  C152  A    
C144  H112  S    
C70   H44   S    
Ba4   O29   S    
C92   H176  S    
C31   H2    S    
C145  H113  S    
C77   H77   S    
C153  C162  S    
C73   H55   S    
C162  P6    S    
C74   H65   S    
C152  N4    S    
C19   H94   S    
Ba1   O31   S    
C42   C165  S    
Ba3   O55   S    
C159  H100  S    
C51   H159  S    
C143  C148  A    
Ba1   O53   S    
C122  O18   D    
C53   H164  S    
C110  C159  S    
C83   C102  A    
C39   C70   S    
C70   H45   S    
Ba1   O49   S    
C98   C102  A    
C109  O64   S    
C140  P13   S    
C159  H84   S    
C21   H138  S    
C71   H49   S    
C129  N7    Am   
C75   C110  S    
C65   H27   S    
C76   H73   S    
C63   H21   S    
C93   C97   A    
C116  C120  A    
