data_mof_unit_40702.cif
_audit_creation_date              2013-03-05T15:47:24-0500
_audit_creation_method            fapswitch 2.2
_symmetry_space_group_name_H-M    P1
_symmetry_Int_Tables_number       1
_space_group_crystal_system       triclinic
_cell_length_a                    8.364558
_cell_length_b                    18.890385
_cell_length_c                    19.195318
_cell_angle_alpha                 96.373585
_cell_angle_beta                  94.267825
_cell_angle_gamma                 93.147292
_cell_volume                      2999.83050601

loop_
_atom_site_label
_atom_site_type_symbol
_atom_site_description
_atom_site_fract_x
_atom_site_fract_y
_atom_site_fract_z
_atom_type_partial_charge
P1    P     P_3+3 0.954930 0.659850 0.559700 0.457462
O1    O     O_2   0.126770 0.670950 0.539180 -0.369041
O2    O     O_3   0.874330 0.583580 0.538020 -0.422185
O3    O     O_3   0.360240 0.629040 0.412110 -0.396119
O4    O     O_2   0.209968 0.749490 0.437218 -0.392348
O5    O     O_3   0.986568 0.672923 0.651945 -0.588969
O6    O     O_3   0.433755 0.756166 0.351183 -0.558248
H1    H     H_    0.243332 0.691074 0.299588 0.184792
C1    C     C_3   0.379727 0.741836 0.225955 -0.754537
H2    H     H_    0.317674 0.792435 0.230384 0.193207
P2    P     P_3+3 0.352180 0.446150 0.339620 0.474105
P3    P     P_3+3 0.910186 0.587499 0.282983 0.449030
O7    O     O_2   0.179370 0.467330 0.329490 -0.374689
O8    O     O_3   0.943350 0.594040 0.376060 -0.395192
O9    O     O_2   0.031385 0.537125 0.251107 -0.350455
O10   O     O_3   0.362865 0.353510 0.317638 -0.580424
O11   O     O_3   0.968684 0.668180 0.253155 -0.535334
C2    C     C_3   0.867489 0.721333 0.275988 0.288833
H3    H     H_    0.882152 0.731039 0.334362 0.084481
H4    H     H_    0.739854 0.704809 0.259271 0.035308
C3    C     C_3   0.918231 0.790412 0.244543 0.011919
H5    H     H_    0.044675 0.805285 0.265487 0.141968
C4    C     C_3   0.764781 0.372632 0.316692 0.421663
H6    H     H_    0.661084 0.390520 0.344794 0.128762
H7    H     H_    0.855492 0.417648 0.315740 0.095404
C5    C     C_3   0.703526 0.343960 0.241555 -0.981949
H8    H     H_    0.647869 0.386386 0.214460 0.224291
H9    H     H_    0.803569 0.324789 0.211371 0.257455
H10   H     H_    0.612309 0.299014 0.241881 0.279472
Ba1   Ba    Ba6+2 0.154050 0.534420 0.467300 1.501530
C6    C     C_3   0.003003 0.609721 0.683303 0.333036
H11   H     H_    0.131638 0.599524 0.689345 0.084711
H12   H     H_    0.937282 0.562206 0.653188 0.132030
C7    C     C_3   0.935876 0.619694 0.755842 -0.433940
H13   H     H_    0.938868 0.569070 0.780062 0.196562
H14   H     H_    0.807785 0.631923 0.748138 0.205398
C8    C     C_3   0.223696 0.310103 0.323172 0.583655
H15   H     H_    0.135453 0.338667 0.354100 0.100112
C9    C     C_3   0.283495 0.247780 0.362068 -0.720057
H16   H     H_    0.389316 0.227177 0.336303 0.203847
H17   H     H_    0.328354 0.269158 0.416533 0.196649
P4    P     P_3+3 0.855360 0.340140 0.440240 0.484747
O12   O     O_2   0.683530 0.329010 0.460790 -0.348193
O13   O     O_3   0.935970 0.416420 0.461920 -0.408721
O14   O     O_3   0.450050 0.370950 0.587830 -0.379624
O15   O     O_3   0.835556 0.318211 0.348802 -0.546323
P5    P     P_3+3 0.888728 0.402678 0.715141 0.428284
O16   O     O_3   0.375780 0.535040 0.584090 -0.412087
O17   O     O_3   0.866950 0.405950 0.623880 -0.396526
O18   O     O_2   0.761266 0.449093 0.748344 -0.398743
O19   O     O_3   0.833132 0.316294 0.732888 -0.518220
Ba2   Ba    Ba6+2 0.656120 0.465570 0.532650 1.532304
P6    P     P_3+3 0.381774 0.724225 0.429418 0.442182
C10   C     C_3   0.370507 0.707137 0.293879 0.402736
H18   H     H_    0.442084 0.659161 0.290322 0.057885
H19   H     H_    0.507039 0.754574 0.218674 0.178844
O20   O     O_3   0.434510 0.464950 0.415850 -0.383901
C11   C     C_3   0.472587 0.686751 0.666272 0.295830
H20   H     H_    0.597858 0.686288 0.652068 0.081712
H21   H     H_    0.384475 0.674605 0.620029 0.087515
C12   C     C_3   0.443045 0.761568 0.700275 -0.414850
H22   H     H_    0.440228 0.799028 0.659479 0.160282
H23   H     H_    0.322491 0.759931 0.721081 0.187893
P7    P     P_3+3 0.449197 0.549387 0.673901 0.403072
O21   O     O_2   0.630930 0.532620 0.670490 -0.377082
O22   O     O_3   0.449669 0.637637 0.714121 -0.603946
C13   C     C_3   0.886377 0.267306 0.680449 0.469742
H24   H     H_    0.815598 0.269821 0.629563 0.143899
H25   H     H_    0.016196 0.277718 0.674046 0.008773
C14   C     C_3   0.861734 0.192336 0.701213 -0.904794
H26   H     H_    0.733062 0.180125 0.708395 0.283468
H27   H     H_    0.899465 0.152771 0.659532 0.236479
H28   H     H_    0.934548 0.187791 0.751124 0.253332
P8    P     P_3+3 0.421914 0.278253 0.583100 0.483011
C15   C     C_3   0.417084 0.302434 0.717016 0.476073
H29   H     H_    0.287214 0.309128 0.704830 0.009112
O23   O     O_2   0.547514 0.245769 0.535890 -0.346772
O24   O     O_3   0.476750 0.253497 0.666311 -0.521488
H30   H     H_    0.485775 0.354881 0.720213 0.142449
H31   H     H_    0.391398 0.313985 0.828955 0.219398
C16   C     C_3   0.437217 0.275227 0.788539 -0.949613
H32   H     H_    0.566129 0.268686 0.803044 0.284801
H33   H     H_    0.368553 0.223001 0.787170 0.263678
N1    N     N_R   0.774139 0.055120 0.510879 -0.051922
N2    N     N_R   0.719597 0.987029 0.510217 -0.068214
C17   C     C_2   0.656308 0.713525 0.526061 -0.266535
C18   C     C_3   0.529466 0.764297 0.507225 0.194361
C19   C     C_2   0.600049 0.838645 0.501045 -0.235290
C20   C     C_2   0.759948 0.856640 0.513940 0.025624
C21   C     C_2   0.871825 0.798350 0.528191 -0.277538
C22   C     C_1   0.816136 0.731803 0.534434 0.277947
N3    N     N_R   0.982165 0.951526 0.516716 -0.065705
N4    N     N_R   0.036456 0.019490 0.517036 -0.046608
C23   C     C_R   0.934526 0.073331 0.515078 0.176416
C24   C     C_R   0.822136 0.933477 0.513744 0.138775
C25   C     C_R   0.904286 0.201913 0.488391 -0.219961
C26   C     C_R   0.965071 0.273501 0.487893 0.334188
C27   C     C_R   0.215528 0.245148 0.548181 0.149508
C28   C     C_R   0.155522 0.173858 0.550032 -0.173178
C29   C     C_R   0.998154 0.150688 0.518790 -0.055043
C30   C     C_R   0.118639 0.294020 0.519052 -0.505841
H34   H     H_    0.516605 0.878705 0.489823 0.159675
H35   H     H_    0.000091 0.811842 0.536716 0.167836
H36   H     H_    0.786547 0.185505 0.462587 0.184301
H37   H     H_    0.166557 0.348212 0.517782 0.184413
C31   C     C_R   0.616186 0.519062 0.293228 -0.530766
C32   C     C_R   0.458800 0.493941 0.275137 0.352025
C33   C     C_R   0.396490 0.494526 0.204860 -0.236820
C34   C     C_R   0.493245 0.519782 0.153935 0.055632
C35   C     C_R   0.648928 0.550916 0.177018 -0.307722
C36   C     C_R   0.707983 0.551370 0.247511 0.263659
C37   C     C_R   0.476849 0.561010 0.032180 -0.132833
C38   C     C_R   0.428674 0.550042 0.959881 -0.169265
C39   C     C_R   0.338442 0.487358 0.929670 0.152472
C40   C     C_R   0.295254 0.436787 0.974658 -0.163639
C41   C     C_R   0.343051 0.447894 0.047035 -0.174905
C42   C     C_R   0.435603 0.509972 0.077026 0.144073
C43   C     C_R   0.138798 0.442346 0.825082 -0.278920
C44   C     C_R   0.092969 0.435268 0.752355 0.248782
C45   C     C_R   0.347690 0.492761 0.731223 0.336523
C46   C     C_R   0.394952 0.499455 0.803509 -0.262782
C47   C     C_R   0.291257 0.474776 0.851797 0.018789
C48   C     C_R   0.199746 0.458707 0.706064 -0.525559
H38   H     H_    0.509356 0.527251 0.822104 0.153331
H39   H     H_    0.461195 0.591345 0.927767 0.128567
H40   H     H_    0.545433 0.609989 0.053024 0.133994
H41   H     H_    0.274778 0.473990 0.189288 0.163762
H42   H     H_    0.227676 0.387561 0.953644 0.122551
H43   H     H_    0.311090 0.406590 0.079135 0.120061
H44   H     H_    0.053393 0.425564 0.860600 0.148107
H45   H     H_    0.726433 0.571607 0.140314 0.147590
H46   H     H_    0.161995 0.456124 0.650614 0.170945
H47   H     H_    0.674256 0.508415 0.341654 0.122144
C49   C     C_3   0.023616 0.680849 0.806479 -0.263062
C50   C     C_3   0.172465 0.657032 0.846055 -0.883463
H48   H     H_    0.233153 0.703101 0.880823 0.254088
H49   H     H_    0.138041 0.614842 0.879050 0.263016
H50   H     H_    0.257875 0.636188 0.808804 0.284602
H51   H     H_    0.057596 0.726855 0.778095 0.224042
H52   H     H_    0.940295 0.700016 0.845947 0.194549
C51   C     C_3   0.148933 0.281027 0.248233 -0.346184
C52   C     C_3   0.146225 0.336140 0.196159 -0.917252
H53   H     H_    0.083651 0.383365 0.216683 0.279023
H54   H     H_    0.270998 0.351540 0.185446 0.264170
H55   H     H_    0.080985 0.312496 0.145727 0.244255
H56   H     H_    0.216918 0.236035 0.225904 0.188198
H57   H     H_    0.023304 0.260489 0.250610 0.237904
C53   C     C_2   0.308161 0.694746 0.161688 1.032091
O25   O     O_2   0.319699 0.714861 0.103796 -0.652485
O26   O     O_R   0.226536 0.629402 0.167516 -0.761104
H58   H     H_    0.180011 0.604307 0.120357 0.324169
C54   C     C_2   0.166545 0.184501 0.364434 1.026682
O27   O     O_2   0.216192 0.131213 0.387266 -0.605961
O28   O     O_R   0.004494 0.185448 0.341249 -0.808912
H59   H     H_    0.941788 0.138677 0.344781 0.322571
C55   C     C_3   0.569549 0.789723 0.760677 -0.230219
C56   C     C_3   0.729590 0.813852 0.734352 -0.906232
H60   H     H_    0.812018 0.838347 0.779673 0.246614
H61   H     H_    0.787729 0.767986 0.708084 0.271611
H62   H     H_    0.711264 0.854096 0.696959 0.266173
H63   H     H_    0.589500 0.748474 0.796905 0.215679
H64   H     H_    0.522815 0.836420 0.791394 0.191866
C57   C     C_3   0.819539 0.854609 0.267296 -0.374718
C58   C     C_3   0.837919 0.876785 0.346318 -0.865332
H65   H     H_    0.775701 0.835894 0.373515 0.265542
H66   H     H_    0.966705 0.883820 0.366034 0.268420
H67   H     H_    0.781357 0.928084 0.358327 0.264055
H68   H     H_    0.861154 0.901134 0.241115 0.211256
H69   H     H_    0.690399 0.843059 0.250943 0.222167
C59   C     C_2   0.255387 0.125587 0.587620 1.081031
O29   O     O_2   0.207593 0.101242 0.639288 -0.668523
O30   O     O_R   0.403828 0.108003 0.564000 -0.737118
H70   H     H_    0.461191 0.075040 0.594293 0.321800
C60   C     C_3   0.596051 0.637233 0.515006 -0.285387
C61   C     C_3   0.653509 0.606118 0.444596 -0.435096
H71   H     H_    0.607274 0.623062 0.394516 0.154000
H72   H     H_    0.769522 0.631007 0.441576 0.204713
H73   H     H_    0.660956 0.548961 0.442893 0.235194
H74   H     H_    0.633127 0.609612 0.560233 0.205087
H75   H     H_    0.466620 0.630134 0.519185 0.221931
C62   C     C_3   0.920946 0.778570 0.163308 -0.304614
C63   C     C_3   0.757389 0.757715 0.122985 -0.861367
H76   H     H_    0.703961 0.707483 0.138692 0.247076
H77   H     H_    0.674050 0.800982 0.131309 0.260213
H78   H     H_    0.773283 0.748696 0.065834 0.250432
H79   H     H_    0.971707 0.828066 0.144650 0.183788
H80   H     H_    0.002865 0.736259 0.148615 0.233202

loop_
_geom_bond_atom_site_label_1
_geom_bond_atom_site_label_2
_geom_bond_distance
_ccdc_geom_bond_type
C50   H50   1.105057 S    
C18   C19   1.513774 S    
N4    C23   1.364449 A    
C3    C57   1.545594 S    
O3    P6    1.788523 S    
C2    C3    1.549028 S    
N2    C24   1.365800 A    
C57   C58   1.522208 S    
C39   C40   1.407315 A    
C62   H80   1.107599 S    
C34   C42   1.506577 S    
C50   H48   1.110200 S    
C61   H72   1.063209 S    
C28   C59   1.479808 S    
C62   C63   1.530189 S    
O30   H70   1.013779 S    
C3    C62   1.552557 S    
C5    H8    1.107725 S    
C56   H60   1.110238 S    
C8    C51   1.554003 S    
Ba1   O16   2.799760 S    
C58   H65   1.107194 S    
C53   O26   1.397095 S    
C2    H3    1.111594 S    
P1    O2    1.556274 S    
C17   C22   1.355486 D    
C49   H52   1.111826 S    
C37   C42   1.407663 A    
C48   H46   1.082464 S    
O12   Ba2   2.816369 S    
O16   P7    1.772851 S    
C38   H39   1.082219 S    
C59   O29   1.222720 D    
C7    C49   1.539285 S    
C11   H21   1.105725 S    
C40   C41   1.406214 A    
Ba1   O20   2.931896 S    
C25   C29   1.426158 A    
C33   C34   1.420234 A    
C7    H13   1.109461 S    
C43   C47   1.418334 A    
C4    C5    1.523854 S    
C12   H23   1.112008 S    
C43   C44   1.409592 A    
P1    Ba1   3.387330 S    
C46   H38   1.082239 S    
C63   H76   1.108174 S    
C11   O22   1.391764 S    
C31   H47   1.060885 S    
C41   H43   1.080880 S    
C6    H11   1.103363 S    
P2    Ba1   3.396219 S    
P8    O23   1.546137 D    
P3    O11   1.744610 S    
C4    H6    1.104032 S    
C6    H12   1.106941 S    
C14   H26   1.110171 S    
P5    O18   1.546410 D    
C1    H2    1.110533 S    
C37   H40   1.081952 S    
C45   C48   1.390350 A    
O10   C8    1.404168 S    
O13   Ba2   2.935403 S    
C11   C12   1.530382 S    
P5    C44   1.847461 S    
O5    C6    1.404253 S    
C55   H64   1.111430 S    
C56   H61   1.107806 S    
C4    O15   1.392994 S    
C3    H5    1.112741 S    
C52   H55   1.110426 S    
Ba1   O13   2.789489 S    
P4    O13   1.556469 S    
O8    Ba1   2.763756 S    
C13   H24   1.110927 S    
C37   C38   1.405378 A    
C16   H33   1.110691 S    
C16   H32   1.110444 S    
C61   H73   1.081932 S    
C31   C36   1.378374 A    
C30   H37   1.082214 S    
P1    O5    1.758502 S    
O7    Ba1   2.831468 S    
C62   H79   1.111824 S    
C53   O25   1.222381 D    
P8    C27   1.853841 S    
P4    C26   1.876451 S    
H1    C10   1.106787 S    
C49   H51   1.110834 S    
C17   C18   1.519180 S    
C15   C16   1.519589 S    
P5    O19   1.748945 S    
O14   Ba2   2.764342 S    
C11   H20   1.102439 S    
C9    C54   1.509356 S    
N3    C24   1.358482 A    
O3    Ba1   2.765058 S    
C40   H42   1.082599 S    
C35   C36   1.404461 A    
O14   P8    1.745330 S    
C17   C60   1.487447 S    
C63   H78   1.110354 S    
P7    O22   1.757361 S    
C20   C24   1.515259 S    
O2    Ba1   2.934444 S    
C15   H29   1.111127 S    
C8    H15   1.107364 S    
C43   H44   1.082265 S    
P2    O10   1.762776 S    
C61   H71   1.096690 S    
P3    O9    1.541621 D    
C23   C29   1.519734 S    
C32   C33   1.410959 A    
O17   Ba2   2.764301 S    
C25   C26   1.419681 A    
C14   H28   1.110558 S    
O11   C2    1.402711 S    
O28   H59   1.013912 S    
C6    C7    1.536008 S    
C35   H45   1.082014 S    
P6    C18   1.923942 S    
C1    H19   1.101340 S    
N1    C23   1.360777 A    
N1    N2    1.339353 A    
C46   C47   1.414215 A    
C51   H56   1.112622 S    
C54   O28   1.396554 S    
C55   H63   1.111726 S    
C56   H62   1.110937 S    
C25   H36   1.082168 S    
P4    O15   1.751417 S    
C52   H54   1.108179 S    
P4    O12   1.528138 D    
O6    P6    1.754394 S    
C12   C55   1.538025 S    
C60   H75   1.093566 S    
C9    H16   1.113457 S    
C45   C46   1.404089 A    
C38   C39   1.411507 A    
O4    P6    1.551411 D    
C50   H49   1.110513 S    
Ba1   Ba2   4.599681 S    
C10   H18   1.111950 S    
C55   C56   1.529696 S    
O26   H58   1.013729 S    
C58   H67   1.110431 S    
P3    O8    1.777013 S    
H31   C16   1.110745 S    
C19   H34   1.085384 S    
O2    Ba2   2.790313 S    
C49   C50   1.525222 S    
C1    C10   1.527959 S    
C44   C48   1.394771 A    
P5    O17   1.755999 S    
C27   C30   1.396811 A    
P8    O24   1.749478 S    
C1    C53   1.503154 S    
C5    H9    1.107239 S    
P7    C45   1.837516 S    
C28   C29   1.429992 A    
O1    Ba1   2.815848 S    
C13   C14   1.520689 S    
P7    O21   1.574310 D    
C58   H66   1.110749 S    
C57   H68   1.112060 S    
C8    C9    1.548520 S    
C51   C52   1.521129 S    
P2    C32   1.861844 S    
P2    O7    1.525202 D    
C21   C22   1.337576 D    
O19   C13   1.404669 S    
C59   O30   1.397577 S    
P1    O1    1.527953 D    
N3    N4    1.337313 A    
C7    H14   1.111019 S    
C41   C42   1.410670 A    
C2    H4    1.109230 S    
C4    H7    1.110782 S    
C33   H41   1.077914 S    
C12   H22   1.112050 S    
C57   H69   1.105178 S    
C15   O24   1.405055 S    
C63   H77   1.108895 S    
C21   H35   1.085083 S    
Ba2   O20   2.799301 S    
C51   H57   1.105960 S    
C39   C47   1.506543 S    
O16   Ba2   2.930976 S    
C19   C20   1.359342 D    
C9    H17   1.108219 S    
C5    H10   1.110769 S    
P1    C22   1.914767 S    
C27   C28   1.416273 A    
C31   C32   1.380451 A    
C34   C35   1.417803 A    
C52   H53   1.108560 S    
C14   H27   1.108640 S    
C54   O27   1.222533 D    
O6    C10   1.407484 S    
C13   H25   1.111168 S    
C20   C21   1.518198 S    
P2    O20   1.565019 S    
C15   H30   1.110949 S    
C60   H74   1.095609 S    
P3    C36   1.840844 S    
C26   C30   1.391939 A    
Ba2   O21   2.831533 S    
P4    Ba2   3.387996 S    
C60   C61   1.534417 S    
