data_mof_unit_55215.cif
_audit_creation_date              2012-12-10T18:10:55-0500
_audit_creation_method            fapswitch 2.2
_symmetry_space_group_name_H-M    P1
_symmetry_Int_Tables_number       1
_space_group_crystal_system       triclinic
_cell_length_a                    12.661486
_cell_length_b                    12.996964
_cell_length_c                    15.682131
_cell_angle_alpha                 92.595441
_cell_angle_beta                  102.003079
_cell_angle_gamma                 81.15918
_cell_volume                      2494.01556591

loop_
_atom_site_label
_atom_site_type_symbol
_atom_type_description
_atom_site_fract_x
_atom_site_fract_y
_atom_site_fract_z
_atom_type_partial_charge
C1    C     C_R   0.438555 0.691626 0.493461 0.845167
C2    C     C_R   0.597050 0.200978 0.536294 -0.073335
C3    C     C_R   0.303072 0.838757 0.429412 -0.198265
C4    C     C_R   0.501062 0.499207 0.661270 0.886384
C5    C     C_R   0.276398 0.944101 0.410879 -0.152537
C6    C     C_R   0.348315 0.012454 0.447751 -0.196680
C7    C     C_R   0.445949 0.976517 0.507860 0.096281
C8    C     C_R   0.462954 0.873557 0.536906 0.102374
C9    C     C_R   0.527432 0.039373 0.539775 0.039847
C10   C     C_R   0.611720 0.008297 0.613049 0.156145
C11   C     C_R   0.617121 0.910779 0.649404 -0.253830
C12   C     C_3   0.379333 0.502389 0.029281 0.205332
C13   C     C_R   0.544938 0.843561 0.610895 -0.233972
C14   C     C_R   0.528233 0.131352 0.498526 -0.256963
C15   C     C_R   0.678443 0.173520 0.610047 -0.251153
C16   C     C_R   0.561245 0.308744 0.512093 0.846754
C17   C     C_R   0.398359 0.802671 0.489941 -0.116609
C18   C     C_R   0.083493 0.403832 0.338322 0.027949
C19   C     C_R   0.795346 0.630304 0.605443 0.040454
C20   C     C_R   0.890168 0.674847 0.617604 -0.250263
C21   C     C_R   0.968370 0.638071 0.568807 -0.184548
C22   C     C_R   0.954749 0.552826 0.510698 -0.000840
C23   C     C_3   0.501274 0.469982 0.081499 0.251158
C24   C     C_R   0.853175 0.515693 0.494985 0.158896
C25   C     C_R   0.036775 0.503058 0.466394 -0.124237
C26   C     C_R   0.003462 0.449572 0.385683 0.060163
C27   C     C_R   0.893456 0.434610 0.360889 0.070817
C28   C     C_R   0.500204 0.497231 0.338696 0.889920
C29   C     C_R   0.831817 0.443363 0.425390 0.069353
C30   C     C_R   0.150404 0.496699 0.501105 0.210638
C31   C     C_R   0.192298 0.401901 0.376135 -0.035448
C32   C     C_3   0.377864 0.480016 0.926508 0.088410
C33   C     C_3   0.565251 0.549380 0.962712 -0.433539
C34   C     C_3   0.550049 0.358257 0.054270 -0.507223
C35   C     C_3   0.576096 0.544849 0.061556 -0.449271
C36   C     C_1   0.502710 0.485631 0.249783 -0.201749
C37   C     C_3   0.503604 0.459860 0.914741 0.198864
C38   C     C_R   0.315067 0.389833 0.881094 0.108923
C39   C     C_R   0.302562 0.298498 0.922164 -0.160850
C40   C     C_R   0.241690 0.224435 0.877362 -0.120064
C41   C     C_R   0.193514 0.237068 0.789646 -0.121731
C42   C     C_R   0.207596 0.323036 0.746006 -0.151658
C43   C     C_R   0.267728 0.397596 0.790564 -0.145726
C44   C     C_R   0.541106 0.246335 0.915354 0.098264
C45   C     C_3   0.571645 0.351997 0.957223 0.032061
C46   C     C_R   0.577688 0.154532 0.965179 -0.150942
C47   C     C_R   0.560906 0.056418 0.929550 -0.150662
C48   C     C_R   0.510599 0.046301 0.842432 -0.131913
C49   C     C_R   0.478308 0.134153 0.790553 -0.107127
C50   C     C_R   0.494501 0.232540 0.825896 -0.140143
C51   C     C_R   0.695190 0.344447 0.951724 0.143465
C52   C     C_R   0.724902 0.327373 0.869084 -0.146246
C53   C     C_R   0.833236 0.318317 0.859847 -0.145215
C54   C     C_R   0.915954 0.325231 0.932612 -0.110444
C55   C     C_R   0.890296 0.341178 0.014697 -0.144568
C56   C     C_1   0.504170 0.476007 0.174371 -0.086552
C57   C     C_R   0.781904 0.350834 0.024695 -0.171851
C58   C     C_1   0.506702 0.472449 0.824289 -0.104485
C59   C     C_1   0.506033 0.486781 0.750035 -0.206749
C60   C     C_R   0.687930 0.076009 0.648256 0.113203
H1    H     H_    0.622395 0.326980 0.103291 0.158592
H2    H     H_    0.732949 0.660281 0.641527 0.129967
H3    H     H_    0.036258 0.680275 0.574612 0.142653
H4    H     H_    0.901709 0.739443 0.662941 0.152267
H5    H     H_    0.648425 0.544087 0.948393 0.197180
H6    H     H_    0.525875 0.628060 0.939880 0.164616
H7    H     H_    0.558327 0.624153 0.089585 0.169577
H8    H     H_    0.662187 0.517870 0.093132 0.187939
H9    H     H_    0.493308 0.305013 0.062345 0.150459
H10   H     H_    0.344023 0.627982 0.112064 0.204490
H11   H     H_    0.390345 0.664333 0.026830 0.168569
H12   H     H_    0.729928 0.229818 0.640562 0.142214
H13   H     H_    0.341615 0.279100 0.987480 0.118267
H14   H     H_    0.233546 0.155835 0.910710 0.126608
H15   H     H_    0.147127 0.179168 0.755096 0.124353
H16   H     H_    0.172497 0.331711 0.677164 0.139135
H17   H     H_    0.278613 0.461195 0.752902 0.173293
H18   H     H_    0.335020 0.379143 0.095422 0.171187
H19   H     H_    0.227837 0.447672 0.019408 0.197957
H20   H     H_    0.731563 0.052519 0.777694 0.193941
H21   H     H_    0.825084 0.102256 0.737217 0.179677
H22   H     H_    0.240603 0.593733 0.890570 0.203146
H23   H     H_    0.678878 0.884591 0.706021 0.161957
H24   H     H_    0.358375 0.639595 0.887054 0.182691
H25   H     H_    0.776122 0.436993 0.251336 0.186454
H26   H     H_    0.833952 0.315854 0.285800 0.191269
H27   H     H_    0.023251 0.291914 0.255307 0.203549
H28   H     H_    0.007791 0.413926 0.211134 0.208842
H29   H     H_    0.148097 0.522032 0.630785 0.162938
H30   H     H_    0.202173 0.613892 0.582186 0.180651
H31   H     H_    0.711191 0.350672 0.400465 0.222017
H32   H     H_    0.808154 0.327651 0.501558 0.213151
H33   H     H_    0.621357 0.158063 0.032056 0.124282
H34   H     H_    0.471498 0.153530 0.438372 0.144231
H35   H     H_    0.588588 0.987847 0.969429 0.126737
H36   H     H_    0.498382 0.970189 0.814707 0.129598
H37   H     H_    0.441365 0.126074 0.722289 0.140441
H38   H     H_    0.470140 0.295824 0.781366 0.141573
H39   H     H_    0.664745 0.319115 0.810477 0.131082
H40   H     H_    0.852990 0.305203 0.795923 0.124013
H41   H     H_    0.000040 0.317866 0.925473 0.134029
H42   H     H_    0.955079 0.345883 0.071023 0.133801
H43   H     H_    0.769910 0.364093 0.090279 0.125280
H44   H     H_    0.251428 0.785126 0.394170 0.158349
H45   H     H_    0.324417 0.093312 0.430154 0.135344
H46   H     H_    0.202338 0.972177 0.364766 0.142367
H47   H     H_    0.552451 0.768425 0.640424 0.150543
H48   H     H_    0.254456 0.369082 0.340546 0.157846
N1    N     N_R   0.222200 0.444690 0.455710 -0.119259
N2    N     N_3   0.790392 0.350142 0.436384 -0.467745
N3    N     N_R   0.776960 0.554780 0.543830 -0.122572
N4    N     N_3   0.343006 0.614190 0.045678 -0.460010
N5    N     N_3   0.302325 0.448751 0.063002 -0.469421
N6    N     N_3   0.770554 0.047977 0.724758 -0.476995
N7    N     N_3   0.319060 0.574196 0.877451 -0.484292
N8    N     N_3   0.850015 0.390915 0.277617 -0.497418
N9    N     N_3   0.059211 0.358582 0.252874 -0.481923
N10   N     N_3   0.194396 0.535481 0.585707 -0.422174
O1    O     O_R   0.366740 0.627160 0.478850 -0.609935
O2    O     O_R   0.544830 0.662520 0.507140 -0.600988
O3    O     O_R   0.410920 0.482310 0.608710 -0.586414
O4    O     O_R   0.589010 0.517670 0.637000 -0.626145
O5    O     O_R   0.455170 0.337480 0.492860 -0.606247
O6    O     O_R   0.633260 0.372840 0.521150 -0.639447
O7    O     O_R   0.410990 0.482330 0.363000 -0.614757
O8    O     O_R   0.589080 0.517690 0.391290 -0.608810
Zn1   Zn    Zn3+2 0.381090 0.476390 0.481110 0.938657
Zn2   Zn    Zn3+2 0.618910 0.523610 0.518890 0.923339

loop_
_geom_bond_atom_site_label_1
_geom_bond_atom_site_label_2
_ccdc_geom_bond_type
C3    H44   S    
C41   C42   A    
C8    C13   A    
C27   C29   A    
C31   H48   S    
C54   H41   S    
C60   N6    S    
C19   C20   A    
C18   C26   A    
C13   H47   S    
C42   H16   S    
C33   H5    S    
C7    C8    A    
C53   C54   A    
C52   C53   A    
C15   H12   S    
C12   C23   S    
C26   C27   A    
H30   N10   S    
H31   N2    S    
C16   O5    A    
H22   N7    S    
H27   N9    S    
C38   C39   A    
C45   C51   S    
C19   H2    S    
H26   N8    S    
C1    O1    A    
C24   C29   A    
C46   C47   A    
N1    Zn1   S    
C28   O8    A    
C22   C25   A    
H21   N6    S    
C51   C57   A    
C32   C38   S    
C2    C16   S    
C9    C10   A    
C37   C58   S    
O6    Zn2   S    
C27   N8    S    
C21   C22   A    
C12   C32   S    
C24   N3    A    
C44   C46   A    
C33   H6    S    
C5    H46   S    
C53   H40   S    
C57   H43   S    
C50   H38   S    
C30   N1    A    
C51   C52   A    
C29   N2    S    
C23   C56   S    
C39   C40   A    
C30   N10   S    
C11   H23   S    
C25   C26   A    
C34   H1    S    
C33   C37   S    
C1    O2    A    
C20   H4    S    
C10   C60   A    
C9    C14   A    
C36   C56   T    
C41   H15   S    
O5    Zn1   S    
C47   C48   A    
C55   H42   S    
C35   H7    S    
C23   C34   S    
H11   N4    S    
C31   N1    A    
C4    O4    A    
C34   C45   S    
C32   C37   S    
H29   N10   S    
C2    C15   A    
C18   N9    S    
H10   N4    S    
C48   C49   A    
H20   N6    S    
H24   N7    S    
C23   C35   S    
C55   C57   A    
C22   C24   A    
H18   N5    S    
C42   C43   A    
C37   C45   S    
C12   N4    S    
C28   O7    A    
C12   N5    S    
C44   C50   A    
C25   C30   A    
C7    C9    A    
C54   C55   A    
C40   C41   A    
O8    Zn2   S    
C48   H36   S    
C34   H9    S    
H25   N8    S    
C44   C45   S    
C3    C5    A    
O2    Zn2   S    
O3    Zn1   S    
C6    C7    A    
C19   N3    A    
C43   H17   S    
C52   H39   S    
C1    C17   S    
C8    C17   A    
H19   N5    S    
C58   C59   T    
C38   C43   A    
C11   C13   A    
H32   N2    S    
C5    C6    A    
C46   H33   S    
C35   H8    S    
C4    C59   S    
C33   C35   S    
C6    H45   S    
C40   H14   S    
C4    O3    A    
C3    C17   A    
C39   H13   S    
C32   N7    S    
O4    Zn2   S    
C2    C14   A    
C21   H3    S    
C10   C11   A    
C49   H37   S    
C20   C21   A    
C28   C36   S    
C49   C50   A    
N3    Zn2   S    
O7    Zn1   S    
C47   H35   S    
C18   C31   A    
H28   N9    S    
C16   O6    A    
C14   H34   S    
C15   C60   A    
O1    Zn1   S    
