data_mof_unit_41436.cif
_audit_creation_date              2012-12-11T15:08:37-0500
_audit_creation_method            fapswitch 2.2
_symmetry_space_group_name_H-M    P1
_symmetry_Int_Tables_number       1
_space_group_crystal_system       triclinic
_cell_length_a                    25.946196
_cell_length_b                    27.429614
_cell_length_c                    8.522373
_cell_angle_alpha                 89.999986
_cell_angle_beta                  96.330769
_cell_angle_gamma                 90.053237
_cell_volume                      6028.33324634

loop_
_atom_site_label
_atom_site_type_symbol
_atom_type_description
_atom_site_fract_x
_atom_site_fract_y
_atom_site_fract_z
_atom_type_partial_charge
Ba1   Ba    Ba6+2 0.999910 0.465960 0.844870 1.634989
Ba2   Ba    Ba6+2 0.999910 0.534040 0.344870 1.617196
Ba3   Ba    Ba6+2 0.499910 0.965960 0.844870 1.626123
Ba4   Ba    Ba6+2 0.499910 0.034040 0.344870 1.626370
C1    C     C_3   0.011694 0.221559 0.572742 -0.187629
C2    C     C_3   0.034410 0.763549 0.057780 -0.228874
C3    C     C_3   0.521495 0.729945 0.629728 -0.207811
C4    C     C_3   0.520274 0.270777 0.128726 -0.206728
C5    C     C_R   0.885488 0.390660 0.150256 0.081504
C6    C     C_R   0.885696 0.609479 0.650825 0.063857
C7    C     C_R   0.384961 0.890596 0.148466 0.078442
C8    C     C_R   0.385544 0.109600 0.648002 0.078836
C9    C     C_R   0.846597 0.356796 0.097565 -0.121514
C10   C     C_R   0.847393 0.643931 0.597998 -0.141559
C11   C     C_R   0.345036 0.857519 0.097132 -0.122601
C12   C     C_R   0.346372 0.143220 0.595468 -0.122772
C13   C     C_R   0.834557 0.317466 0.194838 -0.004343
C14   C     C_R   0.835501 0.683286 0.695948 -0.012688
C15   C     C_R   0.333416 0.817870 0.193532 -0.011076
C16   C     C_R   0.335024 0.183054 0.691535 -0.010918
C17   C     C_R   0.860729 0.314528 0.348999 -0.141474
C18   C     C_R   0.861416 0.685604 0.850567 -0.137206
C19   C     C_R   0.361033 0.813782 0.345500 -0.136949
C20   C     C_R   0.362119 0.186704 0.844341 -0.137726
C21   C     C_R   0.900645 0.347378 0.399603 -0.034710
C22   C     C_R   0.900984 0.652521 0.900717 0.008823
C23   C     C_R   0.401103 0.846606 0.395531 -0.007432
C24   C     C_R   0.401689 0.153550 0.895072 -0.007386
C25   C     C_R   0.797324 0.230464 0.165205 0.077526
C26   C     C_R   0.797085 0.770372 0.673017 0.073132
C27   C     C_R   0.296441 0.731294 0.152573 0.078170
C28   C     C_R   0.298288 0.269949 0.655234 0.078076
C29   C     C_R   0.253584 0.700378 0.111250 -0.075943
C30   C     C_R   0.255563 0.300969 0.613724 -0.076009
C31   C     C_R   0.754619 0.199454 0.122594 -0.075909
C32   C     C_R   0.754284 0.801029 0.628435 -0.074562
C33   C     C_R   0.204982 0.719032 0.050903 0.044259
C34   C     C_R   0.207490 0.282574 0.547262 0.044173
C35   C     C_R   0.707635 0.217476 0.046743 0.043486
C36   C     C_R   0.708117 0.783029 0.547132 0.043543
C37   C     C_R   0.199641 0.769769 0.033966 -0.087124
C38   C     C_R   0.202637 0.231992 0.523907 -0.084651
C39   C     C_R   0.704153 0.267645 0.013896 -0.086948
C40   C     C_R   0.705536 0.733089 0.510497 -0.087071
C41   C     C_R   0.745307 0.299230 0.062344 -0.099498
C42   C     C_R   0.746882 0.701773 0.559116 -0.097086
C43   C     C_R   0.241480 0.801110 0.079444 -0.100593
C44   C     C_R   0.244149 0.200521 0.570171 -0.099494
C45   C     C_3   0.010288 0.268424 0.131787 0.354592
C46   C     C_3   0.981113 0.709397 0.547451 0.364048
C47   C     C_3   0.507487 0.770708 0.138150 0.343812
C48   C     C_3   0.507723 0.229555 0.637401 0.344276
C49   C     C_R   0.792359 0.281670 0.139923 0.064309
C50   C     C_R   0.793269 0.719270 0.641805 0.064162
C51   C     C_R   0.290356 0.782771 0.140472 0.066065
C52   C     C_R   0.292453 0.218534 0.637645 0.065835
C53   C     C_R   0.131947 0.690528 0.851188 -0.138054
C54   C     C_R   0.134248 0.311056 0.348664 -0.139414
C55   C     C_R   0.634699 0.188516 0.847405 -0.137255
C56   C     C_R   0.635132 0.811838 0.347040 -0.137332
C57   C     C_R   0.093133 0.656670 0.798643 0.001267
C58   C     C_R   0.094065 0.343734 0.299015 -0.030329
C59   C     C_R   0.594677 0.155676 0.797552 -0.016822
C60   C     C_R   0.594926 0.844475 0.297340 -0.016210
C61   C     C_R   0.110399 0.611711 0.045040 0.094815
C62   C     C_R   0.110780 0.388175 0.546106 0.109682
C63   C     C_R   0.610724 0.111768 0.045687 0.097606
C64   C     C_R   0.610729 0.888264 0.545707 0.097377
C65   C     C_R   0.149901 0.645173 0.096015 -0.129126
C66   C     C_R   0.151376 0.355636 0.595136 -0.117439
C67   C     C_R   0.651015 0.144622 0.095301 -0.127790
C68   C     C_R   0.650995 0.855500 0.595521 -0.128131
C69   C     C_R   0.160722 0.685307 0.000800 -0.017369
C70   C     C_R   0.163141 0.316263 0.498030 -0.014232
C71   C     C_R   0.663147 0.183778 0.997590 -0.010830
C72   C     C_R   0.663467 0.816537 0.497555 -0.010923
C73   C     C_R   0.080874 0.618926 0.898915 -0.276895
C74   C     C_R   0.080785 0.380460 0.401207 -0.252710
C75   C     C_R   0.581170 0.119076 0.899891 -0.265090
C76   C     C_R   0.581283 0.880947 0.399785 -0.265444
C77   C     C_3   0.987758 0.219581 0.071158 -0.171402
C78   C     C_3   0.955479 0.758703 0.508607 -0.199183
C79   C     C_3   0.490174 0.718672 0.095501 -0.182427
C80   C     C_3   0.490951 0.281711 0.594782 -0.182008
C81   C     C_3   0.160707 0.469460 0.147484 0.323753
C82   C     C_3   0.160496 0.530836 0.647827 0.321880
C83   C     C_3   0.660735 0.969361 0.148601 0.322915
C84   C     C_3   0.660718 0.030741 0.648498 0.322969
C85   C     C_3   0.201722 0.449516 0.048234 -0.345035
C86   C     C_3   0.201185 0.551019 0.547738 -0.345497
C87   C     C_3   0.701348 0.949205 0.048273 -0.345250
C88   C     C_3   0.701396 0.050953 0.548368 -0.345487
C89   C     C_3   0.851095 0.530583 0.961554 0.314186
C90   C     C_3   0.850976 0.469403 0.461525 0.316750
C91   C     C_3   0.351684 0.030844 0.961797 0.314961
C92   C     C_3   0.351291 0.969225 0.462295 0.315032
C93   C     C_3   0.801666 0.560787 0.939610 -0.395390
C94   C     C_3   0.801549 0.439105 0.440235 -0.395103
C95   C     C_3   0.302614 0.061574 0.941267 -0.389607
C96   C     C_3   0.302120 0.938549 0.442645 -0.389948
C97   C     C_3   0.981932 0.268340 0.525573 0.356193
C98   C     C_3   0.011278 0.712177 0.058688 0.376725
C99   C     C_3   0.506795 0.783800 0.617076 0.381408
C100  C     C_3   0.506225 0.216758 0.116301 0.382248
C101  C     C_R   0.913893 0.384161 0.297975 -0.273759
C102  C     C_R   0.913918 0.615647 0.798996 -0.281226
C103  C     C_R   0.414136 0.883457 0.294344 -0.278292
C104  C     C_R   0.414513 0.116535 0.794303 -0.277788
H1    H     H_    0.007705 0.294174 0.470309 -0.041737
H2    H     H_    0.040842 0.686484 0.114812 0.055466
H3    H     H_    0.534510 0.805522 0.698029 0.088859
H4    H     H_    0.534566 0.195276 0.195839 0.087249
H5    H     H_    0.241042 0.462534 0.094742 0.100522
H6    H     H_    0.240684 0.538515 0.594142 0.100595
H7    H     H_    0.740779 0.962334 0.093107 0.100204
H8    H     H_    0.740795 0.037817 0.593240 0.100258
H9    H     H_    0.201489 0.408994 0.047936 0.095822
H10   H     H_    0.200458 0.591539 0.546508 0.093537
H11   H     H_    0.701147 0.908680 0.048922 0.093929
H12   H     H_    0.701270 0.091477 0.549207 0.094094
H13   H     H_    0.193955 0.461212 0.925413 0.151962
H14   H     H_    0.193456 0.538995 0.425299 0.153221
H15   H     H_    0.693116 0.960592 0.925331 0.153221
H16   H     H_    0.693168 0.039628 0.425339 0.153016
H17   H     H_    0.865533 0.525586 0.845165 0.019983
H18   H     H_    0.865261 0.474409 0.344909 0.017524
H19   H     H_    0.365973 0.025997 0.845156 0.014248
H20   H     H_    0.365429 0.973951 0.345362 0.014043
H21   H     H_    0.880369 0.550150 0.043524 0.054175
H22   H     H_    0.880350 0.449902 0.543169 0.053207
H23   H     H_    0.381253 0.049951 0.043933 0.059734
H24   H     H_    0.380897 0.950136 0.544235 0.058917
H25   H     H_    0.771607 0.541475 0.859807 0.124900
H26   H     H_    0.771395 0.458343 0.360717 0.123975
H27   H     H_    0.272371 0.042914 0.860309 0.121694
H28   H     H_    0.271854 0.957153 0.361762 0.121594
H29   H     H_    0.809114 0.596595 0.886921 0.066470
H30   H     H_    0.808940 0.403305 0.387519 0.065601
H31   H     H_    0.310530 0.097575 0.890660 0.064249
H32   H     H_    0.309866 0.902481 0.392376 0.064695
H33   H     H_    0.786929 0.566851 0.055563 0.122713
H34   H     H_    0.786974 0.433034 0.556430 0.123483
H35   H     H_    0.287891 0.067209 0.057453 0.126199
H36   H     H_    0.287520 0.933075 0.559099 0.126187
H37   H     H_    0.948809 0.258103 0.437947 -0.059082
H38   H     H_    0.001202 0.701333 0.933493 -0.088194
H39   H     H_    0.508934 0.795958 0.493510 -0.092910
H40   H     H_    0.507910 0.204833 0.992274 -0.094581
H41   H     H_    0.015497 0.199513 0.465165 0.059483
H42   H     H_    0.058736 0.766324 0.958581 0.072778
H43   H     H_    0.495433 0.708678 0.542682 0.104101
H44   H     H_    0.493688 0.291777 0.042471 0.103772
H45   H     H_    0.961814 0.205320 0.155618 0.048759
H46   H     H_    0.913101 0.755147 0.514204 0.076922
H47   H     H_    0.465341 0.705256 0.184402 0.059287
H48   H     H_    0.466550 0.295457 0.684276 0.059185
H49   H     H_    0.173286 0.638969 0.207497 0.084141
H50   H     H_    0.174828 0.362055 0.706378 0.079363
H51   H     H_    0.673992 0.138519 0.207496 0.082431
H52   H     H_    0.673687 0.861589 0.708195 0.082533
H53   H     H_    0.258783 0.661238 0.120794 0.063972
H54   H     H_    0.260526 0.340022 0.627943 0.063077
H55   H     H_    0.758918 0.160606 0.143185 0.062907
H56   H     H_    0.757906 0.839738 0.652730 0.063135
H57   H     H_    0.825270 0.361653 0.982126 0.081608
H58   H     H_    0.826380 0.639448 0.481958 0.087030
H59   H     H_    0.322595 0.863164 0.983770 0.083305
H60   H     H_    0.324281 0.137817 0.481417 0.084518
H61   H     H_    0.162692 0.785298 0.987823 0.068654
H62   H     H_    0.166282 0.216536 0.472111 0.063936
H63   H     H_    0.669179 0.282894 0.952645 0.067560
H64   H     H_    0.671048 0.717756 0.446287 0.066741
H65   H     H_    0.739955 0.337876 0.040354 0.064414
H66   H     H_    0.742042 0.663271 0.533586 0.065146
H67   H     H_    0.235387 0.840078 0.068718 0.065731
H68   H     H_    0.238162 0.161653 0.554941 0.064859
H69   H     H_    0.141532 0.719300 0.772336 0.078479
H70   H     H_    0.144532 0.283101 0.267978 0.073577
H71   H     H_    0.645088 0.216296 0.766239 0.072281
H72   H     H_    0.645680 0.784238 0.265579 0.072192
H73   H     H_    0.849930 0.286980 0.430277 0.078314
H74   H     H_    0.850637 0.712823 0.932896 0.082725
H75   H     H_    0.350632 0.785835 0.426081 0.086542
H76   H     H_    0.351719 0.214582 0.925082 0.086635
H77   H     H_    0.051940 0.592240 0.856168 0.072329
H78   H     H_    0.051041 0.406503 0.359895 0.062410
H79   H     H_    0.551479 0.092947 0.858450 0.067991
H80   H     H_    0.551536 0.906978 0.358405 0.067682
H81   H     H_    0.989814 0.199566 0.652767 0.116707
H82   H     H_    0.002849 0.790957 0.037492 0.117058
H83   H     H_    0.516361 0.716398 0.749630 0.136215
H84   H     H_    0.515400 0.284162 0.248950 0.135765
H85   H     H_    0.943831 0.410081 0.339140 0.060540
H86   H     H_    0.943704 0.589612 0.839993 0.064839
H87   H     H_    0.444223 0.909259 0.335362 0.060413
H88   H     H_    0.444160 0.090438 0.836017 0.060204
H89   H     H_    0.977706 0.292614 0.156695 -0.035291
H90   H     H_    0.961975 0.682207 0.463926 0.092861
H91   H     H_    0.472528 0.793827 0.144242 -0.010728
H92   H     H_    0.472537 0.206696 0.643509 -0.010124
H93   H     H_    0.036108 0.261526 0.242379 -0.046440
H94   H     H_    0.974450 0.698924 0.669488 -0.054360
H95   H     H_    0.530264 0.769333 0.255967 -0.039074
H96   H     H_    0.530486 0.230815 0.755227 -0.040086
H97   H     H_    0.964480 0.224860 0.954874 0.138254
H98   H     H_    0.961021 0.769576 0.386244 0.144121
H99   H     H_    0.466872 0.718377 0.978023 0.122795
H100  H     H_    0.467343 0.282106 0.477823 0.122069
H101  H     H_    0.121686 0.457166 0.096910 0.099354
H102  H     H_    0.121360 0.543043 0.598144 0.098971
H103  H     H_    0.621579 0.956904 0.099625 0.097381
H104  H     H_    0.621583 0.043107 0.599259 0.097828
O1    O     O_2   0.898940 0.431940 0.867860 -0.453565
O2    O     O_2   0.898940 0.568060 0.367860 -0.459659
O3    O     O_2   0.398940 0.931940 0.867860 -0.449950
O4    O     O_2   0.398940 0.068060 0.367860 -0.449766
O5    O     O_3   0.165253 0.479737 0.659780 -0.653354
O6    O     O_3   0.165339 0.520550 0.159647 -0.652107
O7    O     O_3   0.665318 0.979627 0.659693 -0.652050
O8    O     O_3   0.665320 0.020485 0.159598 -0.652093
O9    O     O_3   0.038156 0.289588 0.017115 -0.573829
O10   O     O_3   0.034377 0.712041 0.530500 -0.607504
O11   O     O_3   0.537286 0.789036 0.023220 -0.586271
O12   O     O_3   0.537331 0.210952 0.522476 -0.585652
O13   O     O_3   0.058810 0.523750 0.066650 -0.497096
O14   O     O_3   0.058810 0.476250 0.566650 -0.498342
O15   O     O_3   0.558810 0.023750 0.066650 -0.496961
O16   O     O_3   0.558810 0.976250 0.566650 -0.496916
O17   O     O_3   0.941140 0.476130 0.123050 -0.493586
O18   O     O_3   0.941140 0.523870 0.623050 -0.491922
O19   O     O_3   0.441140 0.976130 0.123050 -0.494265
O20   O     O_3   0.441140 0.023870 0.623050 -0.494399
O21   O     O_3   0.982430 0.389880 0.635700 -0.460378
O22   O     O_3   0.982430 0.610120 0.135700 -0.479846
O23   O     O_3   0.482430 0.889880 0.635700 -0.485183
O24   O     O_3   0.482430 0.110120 0.135700 -0.484767
O25   O     O_2   0.895168 0.352946 0.724304 -0.471407
O26   O     O_2   0.897694 0.650942 0.229132 -0.494558
O27   O     O_2   0.391409 0.856461 0.712968 -0.467155
O28   O     O_2   0.391042 0.143070 0.211447 -0.468012
O29   O     O_3   0.839184 0.485439 0.024272 -0.638998
O30   O     O_3   0.839138 0.514532 0.524369 -0.636139
O31   O     O_3   0.339334 0.985641 0.023339 -0.638515
O32   O     O_3   0.339160 0.014497 0.523655 -0.638555
O33   O     O_3   0.963487 0.289324 0.658958 -0.567639
O34   O     O_3   0.967025 0.711629 0.140641 -0.610261
O35   O     O_3   0.456585 0.789038 0.661283 -0.600144
O36   O     O_3   0.456409 0.210790 0.162992 -0.599199
O37   O     O_2   0.100770 0.431440 0.821660 -0.465175
O38   O     O_2   0.100770 0.568560 0.321660 -0.468949
O39   O     O_2   0.600770 0.931440 0.821660 -0.467571
O40   O     O_2   0.600770 0.068560 0.321660 -0.467544
O41   O     O_3   0.017130 0.389790 0.053700 -0.460745
O42   O     O_3   0.017130 0.610210 0.553700 -0.488504
O43   O     O_3   0.517130 0.889790 0.053700 -0.465954
O44   O     O_3   0.517130 0.110210 0.553700 -0.465733
O45   O     O_2   0.107365 0.355538 0.983513 -0.480688
O46   O     O_2   0.105041 0.648447 0.478044 -0.482043
O47   O     O_2   0.606456 0.854313 0.978959 -0.486675
O48   O     O_2   0.606535 0.145663 0.479496 -0.486234
P1    P     P_3+3 0.893960 0.447890 0.040050 0.987812
P2    P     P_3+3 0.893960 0.552110 0.540050 0.981889
P3    P     P_3+3 0.393960 0.947890 0.040050 0.988328
P4    P     P_3+3 0.393960 0.052110 0.540050 0.987778
P5    P     P_3+3 0.105800 0.447360 0.649510 0.965959
P6    P     P_3+3 0.105800 0.552640 0.149510 0.963660
P7    P     P_3+3 0.605800 0.947360 0.649510 0.962782
P8    P     P_3+3 0.605800 0.052640 0.149510 0.963018
P9    P     P_3+3 0.064594 0.344649 0.091268 0.964629
P10   P     P_3+3 0.063167 0.656544 0.591403 0.939203
P11   P     P_3+3 0.564519 0.844569 0.090637 0.948543
P12   P     P_3+3 0.564478 0.155500 0.590655 0.949480
P13   P     P_3+3 0.935511 0.655690 0.101631 0.937389
P14   P     P_3+3 0.934303 0.345047 0.602501 0.979464
P15   P     P_3+3 0.432763 0.153646 0.100015 0.958125
P16   P     P_3+3 0.432752 0.846251 0.599991 0.957457
C105  C     C_3   0.065831 0.232451 0.653428 -0.399849
H105  H     H_    0.063833 0.256230 0.757595 0.199568
H106  H     H_    0.088851 0.251079 0.569548 0.116258
H107  H     H_    0.085600 0.197887 0.691701 0.108324
C106  C     C_3   0.068455 0.775408 0.210671 -0.391514
H108  H     H_    0.044926 0.776379 0.311264 0.175666
H109  H     H_    0.086554 0.811792 0.200240 0.109373
H110  H     H_    0.099810 0.747932 0.234055 0.140545
C107  C     C_3   0.577450 0.721699 0.598925 -0.504749
H111  H     H_    0.604234 0.742828 0.684197 0.151845
H112  H     H_    0.582656 0.732968 0.476811 0.131160
H113  H     H_    0.587083 0.682381 0.612405 0.139629
C108  C     C_3   0.575961 0.279733 0.096185 -0.506372
H114  H     H_    0.603231 0.259008 0.181038 0.151164
H115  H     H_    0.585134 0.319174 0.108881 0.139803
H116  H     H_    0.580922 0.268405 0.973998 0.130855
C109  C     C_3   0.847702 0.206844 0.228993 -0.429553
H117  H     H_    0.881267 0.231153 0.220019 0.113292
H118  H     H_    0.846159 0.196203 0.354049 0.114832
H119  H     H_    0.854512 0.173706 0.159255 0.114432
C110  C     C_3   0.845866 0.794887 0.746867 -0.434242
H120  H     H_    0.880181 0.770942 0.754725 0.122627
H121  H     H_    0.854935 0.826708 0.674068 0.117486
H122  H     H_    0.840069 0.807883 0.867023 0.118262
C111  C     C_3   0.348012 0.707481 0.201350 -0.426434
H123  H     H_    0.380789 0.733137 0.198324 0.113905
H124  H     H_    0.348408 0.692244 0.322137 0.116186
H125  H     H_    0.354539 0.677436 0.118422 0.115262
C112  C     C_3   0.349494 0.293682 0.709998 -0.427075
H126  H     H_    0.382470 0.268376 0.706011 0.113268
H127  H     H_    0.356470 0.324711 0.631247 0.115138
H128  H     H_    0.348977 0.307546 0.832179 0.116541
C113  C     C_3   0.030151 0.181853 0.055664 -0.408618
H129  H     H_    0.051918 0.174476 0.172942 0.115141
H130  H     H_    0.012283 0.147290 0.008571 0.114242
H131  H     H_    0.057588 0.194911 0.973886 0.152229
C114  C     C_3   0.977319 0.798395 0.622818 -0.427706
H132  H     H_    0.956342 0.833099 0.594475 0.120175
H133  H     H_    0.972377 0.788037 0.746124 0.117849
H134  H     H_    0.019172 0.804269 0.612479 0.153050
C115  C     C_3   0.536331 0.684122 0.094736 -0.405913
H135  H     H_    0.522144 0.646887 0.062109 0.114478
H136  H     H_    0.562570 0.696244 0.007867 0.153249
H137  H     H_    0.558516 0.682660 0.213840 0.117600
C116  C     C_3   0.537471 0.315838 0.592665 -0.405260
H138  H     H_    0.523651 0.353163 0.560066 0.114264
H139  H     H_    0.559953 0.317231 0.711312 0.117338
H140  H     H_    0.563327 0.303399 0.505215 0.153503
C117  C     C_3   0.172658 0.448335 0.310124 -0.358249
H141  H     H_    0.211365 0.460096 0.366034 0.122713
H142  H     H_    0.142278 0.462199 0.377309 0.088188
H143  H     H_    0.172543 0.408061 0.305622 0.058466
C118  C     C_3   0.172850 0.551949 0.810369 -0.357552
H144  H     H_    0.211715 0.540333 0.865262 0.122562
H145  H     H_    0.172532 0.592255 0.806195 0.058840
H146  H     H_    0.142786 0.537810 0.878270 0.091593
C119  C     C_3   0.673467 0.948651 0.311495 -0.357719
H147  H     H_    0.712202 0.960859 0.365877 0.123106
H148  H     H_    0.643232 0.962457 0.379208 0.091464
H149  H     H_    0.673751 0.908373 0.308266 0.060057
C120  C     C_3   0.673315 0.051532 0.811359 -0.357615
H150  H     H_    0.712045 0.039462 0.865997 0.122997
H151  H     H_    0.673518 0.091814 0.807967 0.059746
H152  H     H_    0.643052 0.037645 0.878928 0.091381

loop_
_geom_bond_atom_site_label_1
_geom_bond_atom_site_label_2
_ccdc_geom_bond_type
C83   C87   S    
C20   H76   S    
Ba4   O24   S    
O25   P14   D    
C98   O34   S    
C11   H59   S    
C120  H150  S    
C46   H90   S    
C21   C101  A    
C119  H147  S    
C106  H110  S    
C94   H30   S    
C95   H35   S    
C91   C95   S    
C111  H125  S    
Ba3   O3    S    
C1    H41   S    
C48   C80   S    
C5    C9    A    
C92   O32   S    
C38   H62   S    
Ba2   O17   S    
Ba3   O23   S    
Ba2   P2    S    
C7    C11   A    
C8    C12   A    
Ba1   O21   S    
C66   C70   A    
C42   H66   S    
C74   H78   S    
Ba1   O13   S    
O29   P1    S    
O23   P16   S    
C61   P6    S    
Ba2   O42   S    
C40   C42   A    
C19   C23   A    
C46   H94   S    
C1    C97   S    
C28   C112  S    
C61   C73   A    
C63   C75   A    
Ba4   O40   S    
C96   H36   S    
C8    C104  A    
C111  H123  S    
C37   H61   S    
C79   C115  S    
C31   H55   S    
C6    P2    S    
C28   C30   A    
C115  H137  S    
C29   H53   S    
C40   H64   S    
O11   P11   S    
C21   P14   S    
C41   H65   S    
O12   P12   S    
C12   C16   A    
C4    C100  S    
C48   O12   S    
C27   C111  S    
Ba4   P8    S    
C25   C109  S    
C47   C79   S    
C57   P10   S    
C120  H152  S    
Ba2   O14   S    
C119  H149  S    
C46   O10   S    
C81   H101  S    
C53   C57   A    
C25   C31   A    
C55   C59   A    
C84   O7    S    
C26   C32   A    
C56   C60   A    
C1    H81   S    
C107  H112  S    
C80   H48   S    
C62   C66   A    
C4    H84   S    
O21   P14   S    
O6    P6    S    
C86   H6    S    
C116  H138  S    
C84   H104  S    
Ba3   O16   S    
Ba1   O14   S    
Ba4   O4    S    
C93   H25   S    
C16   C52   S    
C99   H39   S    
C102  H86   S    
C45   H89   S    
C26   C50   A    
C97   H37   S    
C90   H22   S    
C4    H44   S    
Ba3   O39   S    
Ba1   O37   S    
C114  H133  S    
C79   H47   S    
C5    C101  A    
Ba2   P6    S    
C77   H45   S    
C8    P4    S    
Ba4   O15   S    
O37   P5    D    
C117  H142  S    
C64   P7    S    
C79   H99   S    
C57   C73   A    
C112  H127  S    
C65   H49   S    
C48   H92   S    
C35   C71   S    
C10   H58   S    
O26   P13   D    
C2    C98   S    
C41   C49   A    
C87   H15   S    
C105  H105  S    
C94   H34   S    
C110  H121  S    
C95   H31   S    
O31   P3    S    
C93   H29   S    
C37   C43   A    
Ba2   O22   S    
C89   H17   S    
C4    C108  S    
C113  H130  S    
C76   H80   S    
C45   H93   S    
O36   P15   S    
C6    C10   A    
C47   O11   S    
C100  H4    S    
C39   H63   S    
C24   P15   S    
O1    P1    D    
O33   P14   S    
C81   O6    S    
C19   H75   S    
C109  H117  S    
C80   H100  S    
Ba4   P4    S    
C116  H140  S    
C108  H114  S    
O30   P2    S    
C54   H70   S    
C38   C44   A    
C83   O8    S    
C39   C41   A    
C62   P5    S    
C85   H9    S    
C87   H11   S    
C6    C102  A    
O45   P9    D    
Ba4   O44   S    
Ba3   Ba4   S    
C89   C93   S    
C78   H98   S    
O47   P11   D    
C54   C70   A    
C34   C70   S    
C17   C21   A    
O20   P4    S    
C45   O9    S    
C14   C18   A    
C83   H103  S    
C58   C74   A    
C20   C24   A    
C30   H54   S    
C22   P13   S    
O17   P1    S    
C106  H109  S    
O28   P15   D    
C9    C13   A    
C80   C116  S    
C27   C51   A    
C88   H12   S    
C18   H74   S    
C89   O29   S    
C53   H69   S    
C63   P8    S    
C92   C96   S    
C110  H122  S    
C84   C120  S    
C33   C37   A    
C24   C104  A    
O14   P5    S    
C36   C40   A    
C105  H107  S    
C43   H67   S    
C96   H28   S    
C44   H68   S    
C54   C58   A    
O18   P2    S    
C100  H40   S    
C97   O33   S    
C22   C102  A    
C11   C15   A    
O22   P13   S    
O7    P7    S    
C86   H10   S    
C77   H97   S    
C109  H119  S    
C88   H16   S    
C90   C94   S    
C78   C114  S    
C97   H1    S    
C87   H7    S    
C108  H116  S    
C92   H20   S    
C99   H3    S    
C110  H120  S    
C45   C77   S    
C115  H136  S    
O19   P3    S    
Ba1   O18   S    
O40   P8    D    
C47   H95   S    
C100  O36   S    
C65   C69   A    
O32   P4    S    
C104  H88   S    
C77   C113  S    
C119  H148  S    
C13   C49   S    
C91   H23   S    
C60   C76   A    
C3    H83   S    
C89   H21   S    
C120  H151  S    
Ba1   O41   S    
C85   H5    S    
C111  H124  S    
C62   C74   A    
Ba3   P7    S    
Ba4   O19   S    
O3    P3    D    
O38   P6    D    
C81   C85   S    
C59   C75   A    
C29   C33   A    
C48   H96   S    
O48   P12   D    
C31   C35   A    
C107  H111  S    
C3    C107  S    
O16   P7    S    
C9    H57   S    
C23   C103  A    
C42   C50   A    
C95   H27   S    
C93   H33   S    
C3    H43   S    
O5    P5    S    
C82   C86   S    
C98   H2    S    
C2    C106  S    
Ba3   O15   S    
C46   C78   S    
C15   C51   S    
O2    P2    D    
O34   P13   S    
C82   H102  S    
C56   H72   S    
O41   P9    S    
O24   P15   S    
C55   H71   S    
C114  H132  S    
C85   H13   S    
C61   C65   A    
C56   C72   A    
O39   P7    D    
C63   C67   A    
Ba4   O16   S    
C117  H141  S    
O46   P10   D    
C99   O35   S    
C58   P9    S    
C2    H42   S    
C91   H19   S    
C112  H126  S    
C18   C22   A    
C32   H56   S    
C66   H50   S    
O35   P16   S    
C28   C52   A    
Ba2   O13   S    
C23   P16   S    
C13   C17   A    
C64   C76   A    
C67   C71   A    
C73   H77   S    
C118  H144  S    
C10   C14   A    
C15   C19   A    
C68   C72   A    
C103  H87   S    
O43   P11   S    
C113  H129  S    
C17   H73   S    
O44   P12   S    
C75   H79   S    
C34   C38   A    
C107  H113  S    
Ba2   O38   S    
O15   P8    S    
C53   C69   A    
Ba1   Ba2   S    
C96   H32   S    
C84   C88   S    
C116  H139  S    
C5    P1    S    
C27   C29   A    
C7    P3    S    
C64   C68   A    
C92   H24   S    
O27   P16   D    
C86   H14   S    
C82   C118  S    
C81   C117  S    
C90   H18   S    
C16   C20   A    
C32   C36   A    
C1    C105  S    
C83   C119  S    
C114  H134  S    
C35   C39   A    
C106  H108  S    
O42   P10   S    
C82   O5    S    
C78   H46   S    
C117  H143  S    
C59   P12   S    
C60   P11   S    
C88   H8    S    
C112  H128  S    
C2    H82   S    
C118  H145  S    
C47   H91   S    
Ba1   P1    S    
Ba3   P3    S    
C105  H106  S    
C7    C103  A    
C118  H146  S    
O8    P8    S    
C55   C71   A    
O13   P6    S    
O9    P9    S    
C43   C51   A    
C113  H131  S    
C44   C52   A    
C33   C69   S    
C101  H85   S    
C30   C34   A    
Ba3   O20   S    
C26   C110  S    
Ba2   O2    S    
C67   H51   S    
C94   H26   S    
C68   H52   S    
C90   O30   S    
C109  H118  S    
C98   H38   S    
Ba1   O1    S    
C25   C49   A    
C12   H60   S    
C108  H115  S    
C115  H135  S    
Ba3   O43   S    
C14   C50   S    
O10   P10   S    
Ba1   P5    S    
C36   C72   S    
O4    P4    D    
C3    C99   S    
C91   O31   S    
