data_mof_unit_67893.cif
_audit_creation_date              2012-12-10T17:22:56-0500
_audit_creation_method            fapswitch 2.2
_symmetry_space_group_name_H-M    P1
_symmetry_Int_Tables_number       1
_space_group_crystal_system       triclinic
_cell_length_a                    10.182819
_cell_length_b                    10.599581
_cell_length_c                    10.844624
_cell_angle_alpha                 90.721249
_cell_angle_beta                  93.827405
_cell_angle_gamma                 80.353377
_cell_volume                      1151.37374125

loop_
_atom_site_label
_atom_site_type_symbol
_atom_type_description
_atom_site_fract_x
_atom_site_fract_y
_atom_site_fract_z
_atom_type_partial_charge
C1    C     C_R   0.445315 0.507813 0.267108 0.943440
C2    C     C_3   0.505999 0.121194 0.490475 -0.160703
C3    C     C_3   0.621042 0.938099 0.536496 0.095460
C4    C     C_3   0.382868 0.058427 0.459102 0.086783
C5    C     C_2   0.416184 0.504542 0.134357 -0.109405
C6    C     C_2   0.578026 0.470445 0.866431 -0.100596
C7    C     C_2   0.499425 0.423994 0.065491 0.087128
C8    C     C_2   0.485237 0.426728 0.930874 0.078681
C9    C     C_2   0.080148 0.471313 0.511626 -0.091401
C10   C     C_2   0.930870 0.483498 0.529842 -0.097328
C11   C     C_3   0.418849 0.890990 0.266383 -0.388689
C12   C     C_R   0.553888 0.487129 0.732991 0.886867
C13   C     C_3   0.387200 0.985260 0.159025 -0.359956
C14   C     C_3   0.359432 0.916027 0.038770 -0.903858
C15   C     C_3   0.589203 0.094492 0.732788 -0.402502
C16   C     C_3   0.618407 0.990395 0.832157 -0.351343
C17   C     C_3   0.648586 0.046880 0.957602 -0.933864
C18   C     C_3   0.706551 0.028661 0.333988 -0.384498
C19   C     C_3   0.772981 0.898495 0.283629 -0.322192
C20   C     C_3   0.901931 0.908209 0.223047 -0.921635
C21   C     C_3   0.296942 0.965869 0.660074 -0.396280
C22   C     C_3   0.237627 0.093277 0.719480 -0.313400
C23   C     C_R   0.499801 0.257420 0.491891 0.879384
C24   C     C_3   0.107460 0.084741 0.778329 -0.932418
C25   C     C_3   0.878844 0.429655 0.320516 -0.176604
C26   C     C_3   0.971320 0.301582 0.298374 -0.407623
C27   C     C_3   0.932531 0.235243 0.179335 -0.933025
C28   C     C_3   0.100876 0.664955 0.619322 -0.209969
C29   C     C_3   0.109620 0.636555 0.758236 -0.356735
C30   C     C_3   0.013391 0.734130 0.827083 -0.963574
C31   C     C_R   0.500823 0.741886 0.507915 0.874101
C32   C     C_3   0.592922 0.015600 0.416499 0.079580
C33   C     C_3   0.411093 0.981200 0.579336 0.077773
C34   C     C_3   0.467094 0.953681 0.385296 0.031369
C35   C     C_3   0.537091 0.042561 0.610503 0.037807
C36   C     C_3   0.497386 0.876468 0.505860 -0.156516
H1    H     H_    0.895853 0.521605 0.617194 0.157414
H2    H     H_    0.738966 0.092615 0.956377 0.267604
H3    H     H_    0.561799 0.117842 0.982495 0.259918
H4    H     H_    0.666822 0.969398 0.027109 0.268106
H5    H     H_    0.532118 0.939833 0.836788 0.224677
H6    H     H_    0.706638 0.919342 0.811386 0.218907
H7    H     H_    0.682037 0.132892 0.718099 0.201422
H8    H     H_    0.514189 0.174906 0.761982 0.213927
H9    H     H_    0.881030 0.971272 0.140898 0.271081
H10   H     H_    0.973385 0.946097 0.289794 0.266441
H11   H     H_    0.948890 0.811718 0.192406 0.256111
H12   H     H_    0.128373 0.386904 0.466599 0.164218
H13   H     H_    0.797773 0.826382 0.358174 0.257301
H14   H     H_    0.703530 0.861592 0.214704 0.215065
H15   H     H_    0.666608 0.091883 0.255657 0.180094
H16   H     H_    0.781805 0.074131 0.389359 0.220981
H17   H     H_    0.032217 0.058764 0.707832 0.261026
H18   H     H_    0.125054 0.012529 0.853303 0.268437
H19   H     H_    0.067205 0.178978 0.818729 0.253283
H20   H     H_    0.309813 0.120028 0.791594 0.215628
H21   H     H_    0.217254 0.171013 0.649712 0.257099
H22   H     H_    0.217997 0.932524 0.599116 0.205898
H23   H     H_    0.445718 0.841104 0.019262 0.262000
H24   H     H_    0.332561 0.892498 0.732289 0.185151
H25   H     H_    0.809382 0.931818 0.617250 0.181186
H26   H     H_    0.739613 0.801058 0.643772 0.174411
H27   H     H_    0.194313 0.061951 0.382717 0.181777
H28   H     H_    0.267568 0.185496 0.342703 0.166598
H29   H     H_    0.378216 0.282339 0.913893 0.158624
H30   H     H_    0.288780 0.427060 0.883450 0.176958
H31   H     H_    0.665193 0.287636 0.057240 0.200588
H32   H     H_    0.554439 0.260393 0.158261 0.141248
H33   H     H_    0.778314 0.455807 0.892330 0.185795
H34   H     H_    0.268430 0.871871 0.043747 0.272272
H35   H     H_    0.692676 0.605469 0.907217 0.168109
H36   H     H_    0.229616 0.538484 0.050253 0.183145
H37   H     H_    0.332133 0.639703 0.007775 0.193703
H38   H     H_    0.839621 0.196915 0.190317 0.280572
H39   H     H_    0.918594 0.302767 0.100127 0.268158
H40   H     H_    0.012711 0.154121 0.159714 0.255936
H41   H     H_    0.073184 0.321435 0.287016 0.212537
H42   H     H_    0.973350 0.235135 0.377289 0.236308
H43   H     H_    0.787464 0.433729 0.259712 0.248323
H44   H     H_    0.925443 0.511051 0.290364 0.137964
H45   H     H_    0.342601 0.986091 0.962429 0.259498
H46   H     H_    0.024615 0.832802 0.802887 0.274439
H47   H     H_    0.908987 0.720759 0.802922 0.254174
H48   H     H_    0.034277 0.720592 0.928295 0.264864
H49   H     H_    0.085629 0.539864 0.774458 0.212523
H50   H     H_    0.213110 0.638788 0.796480 0.231010
H51   H     H_    0.158782 0.741572 0.603487 0.181268
H52   H     H_    0.996893 0.702829 0.584039 0.173848
H53   H     H_    0.297613 0.056830 0.175725 0.215679
H54   H     H_    0.472089 0.036459 0.149815 0.221865
H55   H     H_    0.496737 0.809702 0.242355 0.201228
H56   H     H_    0.327513 0.851257 0.284010 0.209363
N1    N     N_2   0.157310 0.552180 0.551120 -0.088860
N2    N     N_2   0.842690 0.447820 0.448880 -0.091589
N3    N     N_3   0.752058 0.867296 0.576994 -0.470717
N4    N     N_3   0.252739 0.128516 0.416581 -0.475226
N5    N     N_3   0.379890 0.369232 0.870165 -0.454930
N6    N     N_3   0.602426 0.330586 0.123478 -0.443652
N7    N     N_3   0.693789 0.509344 0.928536 -0.466807
N8    N     N_3   0.303087 0.591115 0.081871 -0.485387
O1    O     O_R   0.568940 0.489500 0.307530 -0.618883
O2    O     O_R   0.431060 0.510500 0.692470 -0.597080
O3    O     O_R   0.348880 0.522990 0.340350 -0.613002
O4    O     O_R   0.651120 0.477010 0.659650 -0.632991
O5    O     O_R   0.610000 0.297210 0.483560 -0.616329
O6    O     O_R   0.390000 0.702790 0.516440 -0.637405
O7    O     O_R   0.389940 0.330700 0.516390 -0.612604
O8    O     O_R   0.610060 0.669300 0.483610 -0.611865
Zn1   Zn    Zn3+2 0.646930 0.477640 0.478080 0.928840
Zn2   Zn    Zn3+2 0.353070 0.522360 0.521920 0.928468

loop_
_geom_bond_atom_site_label_1
_geom_bond_atom_site_label_2
_ccdc_geom_bond_type
C2    C35   S    
H37   N8    S    
C7    N6    S    
C9    N1    D    
C13   H54   S    
C25   H44   S    
C31   O8    A    
C19   C20   S    
C22   H21   S    
C18   H16   S    
C7    C8    S    
C24   H19   S    
C14   H23   S    
C26   C27   S    
C26   H42   S    
O3    Zn2   S    
C1    C5    S    
H30   N5    S    
C21   C22   S    
C28   C29   S    
C15   H8    S    
C12   O4    A    
O6    Zn2   S    
O4    Zn1   S    
C21   C33   S    
C10   N2    D    
O1    Zn1   S    
C15   C16   S    
C23   O5    A    
C33   C36   S    
O8    Zn1   S    
C2    C32   S    
C18   C19   S    
C17   H3    S    
C30   H47   S    
C31   O6    A    
H31   N6    S    
C4    N4    S    
C11   H56   S    
C16   C17   S    
C28   H52   S    
C27   H38   S    
C9    C10   S    
C1    O3    A    
C29   H49   S    
C20   H9    S    
N1    Zn2   S    
C25   N2    S    
C13   C14   S    
C14   H34   S    
C27   H39   S    
C15   C35   S    
C18   H15   S    
C4    C34   S    
C26   H41   S    
H28   N4    S    
C21   H24   S    
C5    C7    D    
C6    C8    D    
C24   H17   S    
H35   N7    S    
H27   N4    S    
C28   N1    S    
C17   H4    S    
C32   C34   S    
C30   H46   S    
C2    C4    S    
C8    N5    S    
C12   O2    A    
C29   C30   S    
C19   H13   S    
C5    N8    S    
C3    C35   S    
C23   O7    A    
C28   H51   S    
C29   H50   S    
H33   N7    S    
C10   H1    S    
O7    Zn2   S    
C22   C24   S    
O2    Zn2   S    
C18   C32   S    
C27   H40   S    
C1    O1    A    
H36   N8    S    
O5    Zn1   S    
C4    C33   S    
C13   H53   S    
C25   H43   S    
C16   H6    S    
C11   C34   S    
C22   H20   S    
H25   N3    S    
N2    Zn1   S    
C6    N7    S    
C25   C26   S    
C15   H7    S    
C21   H22   S    
C6    C12   S    
C11   C13   S    
C19   H14   S    
C3    C36   S    
C33   C35   S    
C34   C36   S    
C17   H2    S    
C30   H48   S    
C3    C32   S    
H32   N6    S    
C20   H11   S    
H29   N5    S    
C11   H55   S    
C9    H12   S    
C2    C23   S    
C31   C36   S    
C3    N3    S    
C14   H45   S    
H26   N3    S    
C24   H18   S    
C16   H5    S    
C20   H10   S    
