data_mof_unit_40849.cif
_audit_creation_date              2012-12-11T17:43:37-0500
_audit_creation_method            fapswitch 2.2
_symmetry_space_group_name_H-M    P1
_symmetry_Int_Tables_number       1
_space_group_crystal_system       triclinic
_cell_length_a                    15.078584
_cell_length_b                    14.979224
_cell_length_c                    17.069678
_cell_angle_alpha                 108.997076
_cell_angle_beta                  106.43287
_cell_angle_gamma                 108.866388
_cell_volume                      3108.10336521

loop_
_atom_site_label
_atom_site_type_symbol
_atom_type_description
_atom_site_fract_x
_atom_site_fract_y
_atom_site_fract_z
_atom_type_partial_charge
C1    C     C_R   0.084014 0.288432 0.080617 -0.113974
C2    C     C_R   0.083125 0.114312 0.132681 -0.222096
C3    C     C_R   0.992301 0.924974 0.078138 0.050514
C4    C     C_R   0.990139 0.112045 0.082783 0.054321
C5    C     C_R   0.084303 0.022540 0.135938 0.038782
C6    C     C_R   0.895216 0.022430 0.053265 0.043046
C7    C     C_R   0.705824 0.950504 0.952390 -0.172351
C8    C     C_R   0.166490 0.981110 0.260340 -0.122311
C9    C     C_R   0.605183 0.034741 0.001997 -0.227830
C10   C     C_R   0.353670 0.064464 0.347042 -0.252798
C11   C     C_R   0.509031 0.619271 0.275506 -0.169208
C12   C     C_R   0.908714 0.722665 0.977215 -0.121082
C13   C     C_R   0.497312 0.281708 0.649040 -0.154485
C14   C     C_R   0.493888 0.586362 0.184297 -0.115858
C15   C     C_R   0.491604 0.303638 0.732998 -0.128237
C16   C     C_R   0.935848 0.506030 0.741745 -0.052642
C17   C     C_R   0.063362 0.547339 0.264985 0.023024
C18   C     C_R   0.458329 0.478902 0.126323 0.033987
C19   C     C_R   0.466928 0.385066 0.772434 0.015826
C20   C     C_R   0.438421 0.404762 0.160652 -0.261493
C21   C     C_R   0.446746 0.443140 0.725516 -0.214343
C22   C     C_R   0.450517 0.436928 0.251382 0.601983
C23   C     C_R   0.027297 0.545568 0.733774 0.040842
C24   C     C_R   0.452082 0.421346 0.641132 0.611824
C25   C     C_R   0.486329 0.545215 0.308971 -0.232624
C26   C     C_R   0.477692 0.340057 0.603077 -0.284882
C27   C     C_R   0.530353 0.430602 0.019223 -0.241439
C28   C     C_R   0.378544 0.421701 0.874137 -0.248357
C29   C     C_R   0.540399 0.418826 0.938253 0.051073
C30   C     C_R   0.373809 0.442192 0.958679 0.061344
C31   C     C_R   0.462509 0.409271 0.862591 0.066872
C32   C     C_R   0.449850 0.445291 0.031623 0.052731
C33   C     C_R   0.610818 0.954883 0.935247 0.029658
C34   C     C_R   0.971406 0.538118 0.271684 -0.024132
C35   C     C_R   0.254186 0.995564 0.330433 0.044437
C36   C     C_R   0.961255 0.555819 0.355452 0.094611
C37   C     C_R   0.032474 0.536166 0.649661 0.149358
C38   C     C_R   0.975385 0.413432 0.492742 -0.193595
C39   C     C_R   0.015938 0.679790 0.511825 -0.213479
C40   C     C_R   0.775937 0.201700 0.813286 -0.131946
C41   C     C_R   0.279452 0.785982 0.177172 -0.120551
C42   C     C_R   0.003540 0.434637 0.583538 -0.141132
C43   C     C_R   0.993343 0.658814 0.421018 -0.164223
C44   C     C_R   0.038904 0.618887 0.627607 -0.210313
C45   C     C_R   0.758848 0.194591 0.726944 0.065908
C46   C     C_R   0.948098 0.472981 0.378085 -0.265045
C47   C     C_R   0.010926 0.598506 0.536593 0.191666
C48   C     C_R   0.976762 0.494228 0.468729 0.194386
C49   C     C_R   0.716535 0.097706 0.641406 0.117625
C50   C     C_R   0.443294 0.856310 0.323716 0.122616
C51   C     C_R   0.596070 0.026051 0.395003 -0.236424
C52   C     C_R   0.603206 0.909127 0.556696 -0.207635
C53   C     C_R   0.503712 0.946252 0.318913 -0.177563
C54   C     C_R   0.674147 0.998198 0.639437 -0.163092
C55   C     C_R   0.482373 0.841288 0.400683 -0.322647
C56   C     C_R   0.335688 0.782999 0.254972 0.037797
C57   C     C_R   0.702503 0.103834 0.558686 -0.287117
C58   C     C_R   0.573233 0.920154 0.476518 0.179445
C59   C     C_R   0.627319 0.016029 0.475905 0.191260
C60   C     C_R   0.692929 0.108971 0.084798 -0.098489
C61   C     C_R   0.365813 0.115065 0.292318 -0.068892
C62   C     C_R   0.787114 0.104364 0.101703 -0.138976
C63   C     C_R   0.278687 0.099290 0.221777 -0.128300
C64   C     C_R   0.264451 0.537770 0.954595 -0.137947
C65   C     C_R   0.699913 0.402306 0.994657 -0.156148
C66   C     C_R   0.794567 0.025713 0.035257 0.068603
C67   C     C_R   0.292181 0.464194 0.972137 0.051742
C68   C     C_R   0.177952 0.033160 0.205731 0.042165
C69   C     C_R   0.780859 0.295417 0.735186 -0.146464
C70   C     C_R   0.275073 0.688860 0.250905 -0.129371
C71   C     C_R   0.248272 0.435437 0.025890 -0.105859
C72   C     C_R   0.703977 0.499739 0.920296 -0.125112
C73   C     C_R   0.109383 0.582762 0.816340 -0.178917
C74   C     C_R   0.890219 0.467459 0.185994 -0.130356
C75   C     C_R   0.912793 0.203610 0.000229 -0.146023
C76   C     C_R   0.082632 0.807192 0.051177 -0.127119
C77   C     C_R   0.995410 0.196880 0.054587 0.056668
C78   C     C_R   0.641558 0.434726 0.944740 0.065838
C79   C     C_R   0.994317 0.821972 0.040285 0.059686
C80   C     C_2   0.834581 0.495232 0.685807 0.470062
C81   C     C_2   0.160020 0.576897 0.341961 0.454612
C82   C     C_2   0.517088 0.877172 0.848068 0.475895
C83   C     C_2   0.243424 0.939389 0.386756 0.490308
C84   C     C_R   0.897458 0.927943 0.046463 -0.226288
H1    H     H_    0.161207 0.316971 0.132258 0.118696
H2    H     H_    0.506313 0.256919 0.767207 0.124044
H3    H     H_    0.412447 0.321806 0.116488 0.137925
H4    H     H_    0.428237 0.506558 0.755062 0.154108
H5    H     H_    0.591731 0.440128 0.077990 0.139340
H6    H     H_    0.317342 0.416249 0.818035 0.137167
H7    H     H_    0.926059 0.394341 0.326373 0.129683
H8    H     H_    0.059323 0.696311 0.679980 0.118819
H9    H     H_    0.006101 0.723208 0.402797 0.176599
H10   H     H_    0.996409 0.370435 0.601563 0.122033
H11   H     H_    0.950457 0.333842 0.441316 0.126887
H12   H     H_    0.827513 0.703766 0.950686 0.098805
H13   H     H_    0.042116 0.759853 0.563028 0.138405
H14   H     H_    0.740110 0.178785 0.558692 0.129077
H15   H     H_    0.438594 0.772613 0.406388 0.138214
H16   H     H_    0.687571 0.989722 0.701643 0.131699
H17   H     H_    0.476716 0.958698 0.259448 0.124613
H18   H     H_    0.637927 0.098706 0.393087 0.136792
H19   H     H_    0.564191 0.834508 0.556998 0.153268
H20   H     H_    0.532805 0.039628 0.990028 0.107193
H21   H     H_    0.422042 0.078542 0.402082 0.128539
H22   H     H_    0.687968 0.170333 0.135955 0.114453
H23   H     H_    0.711477 0.889989 0.900948 0.155442
H24   H     H_    0.443037 0.166930 0.304804 0.142548
H25   H     H_    0.854514 0.162615 0.166166 0.116955
H26   H     H_    0.289999 0.138881 0.179880 0.144402
H27   H     H_    0.765893 0.138502 0.832215 0.096591
H28   H     H_    0.308959 0.839816 0.150841 0.089290
H29   H     H_    0.290671 0.580105 0.918647 0.103506
H30   H     H_    0.672571 0.342007 0.015815 0.097333
H31   H     H_    0.773093 0.316982 0.680620 0.091532
H32   H     H_    0.303125 0.649635 0.286932 0.151758
H33   H     H_    0.253187 0.379219 0.051289 0.107056
H34   H     H_    0.089213 0.930209 0.248664 0.154521
H35   H     H_    0.680076 0.531631 0.874330 0.106464
H36   H     H_    0.190740 0.629148 0.835797 0.109221
H37   H     H_    0.808142 0.436241 0.168713 0.113042
H38   H     H_    0.831255 0.153550 0.974208 0.120028
H39   H     H_    0.162946 0.865898 0.090174 0.111499
H40   H     H_    0.824697 0.856724 0.015482 0.126635
H41   H     H_    0.154912 0.187415 0.169412 0.143570
H42   H     H_    0.440155 0.396652 0.346829 0.314000
H43   H     H_    0.439171 0.455784 0.539564 0.311817
H44   H     H_    0.774855 0.485285 0.710441 0.012198
H45   H     H_    0.497823 0.572399 0.379788 0.133685
H46   H     H_    0.184716 0.639282 0.409705 0.041507
H47   H     H_    0.444557 0.882062 0.836187 -0.000399
H48   H     H_    0.312261 0.952845 0.441225 0.010356
H49   H     H_    0.482345 0.321834 0.537987 0.134819
H50   H     H_    0.540065 0.702567 0.320634 0.154343
H51   H     H_    0.516837 0.219210 0.619458 0.137466
H52   H     H_    0.511928 0.644702 0.159337 0.126004
N1    N     N_R   0.055660 0.348550 0.045620 -0.043037
N2    N     N_R   0.185200 0.638170 0.176300 -0.040706
N3    N     N_R   0.201680 0.494570 0.045620 -0.042819
N4    N     N_R   0.798320 0.505430 0.954380 -0.042019
N5    N     N_R   0.068420 0.560530 0.871650 -0.039912
N6    N     N_R   0.931580 0.439470 0.128350 -0.051188
N7    N     N_R   0.948070 0.295860 0.997670 -0.044083
N8    N     N_R   0.051930 0.704140 0.002330 -0.043163
N9    N     N_R   0.944340 0.651450 0.954380 -0.048683
N10   N     N_R   0.960830 0.507850 0.823700 -0.074364
N11   N     N_R   0.039170 0.492150 0.176300 -0.043197
N12   N     N_R   0.811290 0.303410 0.871650 -0.039157
N13   N     N_R   0.188710 0.696590 0.128350 -0.040534
N14   N     N_R   0.205200 0.552990 0.997670 -0.042274
N15   N     N_R   0.794800 0.447010 0.002330 -0.035721
N16   N     N_R   0.814800 0.361830 0.823700 -0.045820
Ni1   Ni    Ni4+2 0.119340 0.493420 0.109960 0.260803
Ni2   Ni    Ni4+2 0.880660 0.506580 0.890040 0.206500
Ni3   Ni    Ni4+2 0.872590 0.372590 0.000000 0.213524
Ni4   Ni    Ni4+2 0.127410 0.627410 0.000000 0.209382
O1    O     O_3   0.428034 0.361391 0.281862 -0.791564
O2    O     O_3   0.432279 0.480806 0.597912 -0.733633
O3    O     O_2   0.816766 0.497693 0.612412 -0.575387
O4    O     O_2   0.209304 0.527009 0.331465 -0.597657
O5    O     O_2   0.519495 0.806886 0.788534 -0.569629
O6    O     O_2   0.158035 0.876879 0.372686 -0.610563

loop_
_geom_bond_atom_site_label_1
_geom_bond_atom_site_label_2
_ccdc_geom_bond_type
C12   C79   A    
C52   H19   S    
N8    Ni4   S    
C75   N7    A    
C27   C29   A    
C75   H38   S    
C1    C77   A    
C65   H30   S    
C14   C18   A    
C76   C79   A    
C25   H45   S    
C8    H34   S    
C73   N5    A    
C51   H18   S    
C15   C19   A    
C16   N10   A    
C19   C21   A    
N13   Ni4   S    
C24   C26   A    
C38   C42   A    
C11   C14   A    
C24   O2    S    
C57   C59   A    
C41   N13   A    
N3    Ni1   S    
C49   C54   A    
C20   H3    S    
C60   H22   S    
C49   C57   A    
C60   C62   A    
C37   C42   A    
C61   C63   A    
C61   H24   S    
C72   C78   A    
C29   C78   S    
C53   H17   S    
C83   H48   S    
C69   N16   A    
C41   H28   S    
C38   H11   S    
C36   C46   A    
C10   C35   A    
C65   C78   A    
N12   Ni3   S    
N15   Ni3   S    
N6    Ni3   S    
C17   C81   S    
C33   C82   S    
C67   C71   A    
C30   C67   S    
C44   H8    S    
C44   C47   A    
C74   N6    A    
C21   H4    S    
C19   C31   S    
C81   O4    D    
N14   Ni4   S    
C9    C33   A    
C7    C33   A    
C54   H16   S    
C23   C73   A    
C5    C68   S    
C52   C54   A    
C40   H27   S    
N2    N13   A    
C1    H1    S    
C40   C45   A    
C46   C48   A    
C50   C53   A    
C6    C84   A    
C71   H33   S    
C45   C69   A    
C64   C67   A    
C4    C6    A    
C13   H51   S    
C11   H50   S    
C62   C66   A    
C80   O3    D    
C39   C43   A    
C46   H7    S    
C80   H44   S    
C70   H32   S    
C58   C59   A    
C23   C37   S    
C22   C25   A    
C50   C56   S    
C64   N14   A    
C16   C80   S    
C8    C35   A    
C12   N9    A    
C65   N15   A    
C2    C4    A    
C41   C56   A    
N7    Ni3   S    
C47   C48   A    
N10   Ni2   S    
C45   C49   S    
C36   C43   A    
N1    Ni1   S    
C75   C77   A    
H43   O2    S    
C3    C79   S    
C52   C58   A    
N5    N10   A    
C34   C74   A    
C15   H2    S    
N9    Ni2   S    
C76   N8    A    
N2    Ni1   S    
C82   O5    D    
C83   O6    D    
N16   Ni2   S    
C8    C68   A    
C16   C23   A    
C56   C70   A    
C13   C15   A    
C7    H23   S    
C13   C26   A    
C21   C24   A    
C10   C61   A    
C18   C32   S    
C17   C34   A    
C72   N4    A    
C1    N1    A    
C39   C47   A    
H42   O1    S    
C63   C68   A    
C69   H31   S    
C40   N12   A    
C35   C83   S    
C64   H29   S    
C17   N11   A    
C27   C32   A    
C42   H10   S    
C76   H39   S    
C38   C48   A    
N6    N11   A    
C28   C31   A    
N12   N16   A    
C20   C22   A    
N8    N9    A    
C3    C5    A    
C71   N3    A    
N5    Ni4   S    
C70   N2    A    
C22   O1    S    
C84   H40   S    
N3    N14   A    
C50   C55   A    
C9    C60   A    
C63   H26   S    
C28   C30   A    
C4    C77   S    
C29   C31   A    
C26   H49   S    
C7    C66   A    
C30   C32   A    
C81   H46   S    
C62   H25   S    
C14   H52   S    
C37   C44   A    
C9    H20   S    
C57   H14   S    
C72   H35   S    
N4    N15   A    
C43   H9    S    
C34   C36   S    
C27   H5    S    
C18   C20   A    
N1    N7    A    
N11   Ni1   S    
C39   H13   S    
C2    C5    A    
C2    H41   S    
C6    C66   S    
C74   H37   S    
C51   C59   A    
C55   C58   A    
C55   H15   S    
C3    C84   A    
C73   H36   S    
C11   C25   A    
C12   H12   S    
C10   H21   S    
C28   H6    S    
C51   C53   A    
C82   H47   S    
N4    Ni2   S    
