data_mof_unit_9093.cif
_audit_creation_date              2013-03-05T16:34:52-0500
_audit_creation_method            fapswitch 2.2
_symmetry_space_group_name_H-M    P1
_symmetry_Int_Tables_number       1
_space_group_crystal_system       monoclinic
_cell_length_a                    15.082275
_cell_length_b                    9.097374
_cell_length_c                    7.78683
_cell_angle_alpha                 90.007021
_cell_angle_beta                  90.0
_cell_angle_gamma                 90.0
_cell_volume                      1068.42390046

loop_
_atom_site_label
_atom_site_type_symbol
_atom_site_description
_atom_site_fract_x
_atom_site_fract_y
_atom_site_fract_z
_atom_type_partial_charge
O1    O     O_R   0.500000 0.288390 0.642760 -0.578303
O2    O     O_R   0.500000 0.711610 0.357240 -0.578303
O3    O     O_R   0.500000 0.711610 0.642760 -0.575961
O4    O     O_R   0.500000 0.288390 0.357240 -0.575961
C1    C     C_R   0.500000 0.220024 0.499994 0.847084
C2    C     C_R   0.500000 0.779976 0.500006 0.847084
O5    O     O_R   0.370260 0.500000 0.642800 -0.587942
O6    O     O_R   0.629740 0.500000 0.357200 -0.587942
O7    O     O_R   0.629740 0.500000 0.642800 -0.587942
O8    O     O_R   0.370260 0.500000 0.357200 -0.587942
C3    C     C_R   0.328196 0.500000 0.500000 0.807891
C4    C     C_R   0.671804 0.500000 0.500000 0.807891
Cu1   Cu    Cu3+1 0.500000 0.500000 0.669080 0.998408
Cu2   Cu    Cu3+1 0.500000 0.500000 0.330920 0.998408
N1    N     N_1   0.500000 0.500000 0.076820 -0.052891
N2    N     N_1   0.500000 0.500000 0.923180 -0.052891
C5    C     C_R   0.814696 0.543055 0.352083 -0.245413
C6    C     C_R   0.185304 0.456945 0.647917 -0.245413
C7    C     C_R   0.814696 0.456945 0.647917 -0.245413
C8    C     C_R   0.185304 0.543055 0.352083 -0.245413
C9    C     C_R   0.768479 0.500000 0.500000 -0.066988
C10   C     C_R   0.231520 0.500000 0.500000 -0.066988
C11   C     C_R   0.907088 0.455650 0.648581 0.103004
C12   C     C_R   0.092912 0.544350 0.351419 0.103004
C13   C     C_R   0.907088 0.544350 0.351419 0.103004
C14   C     C_R   0.092912 0.455650 0.648581 0.103004
C15   C     C_R   0.953522 0.500000 0.500000 0.067361
C16   C     C_R   0.046478 0.500000 0.500000 0.067361
C17   C     C_R   0.953778 0.410453 0.794960 -0.215442
C18   C     C_R   0.046222 0.589547 0.205040 -0.215442
C19   C     C_R   0.953778 0.589547 0.205040 -0.215443
C20   C     C_R   0.046222 0.410453 0.794960 -0.215443
C21   C     C_1   0.500000 0.065366 0.499992 -0.176391
C22   C     C_1   0.500000 0.934634 0.500008 -0.176391
H1    H     H_    0.778783 0.577106 0.238160 0.156911
H2    H     H_    0.221217 0.422894 0.761840 0.156911
H3    H     H_    0.778783 0.422894 0.761840 0.156911
H4    H     H_    0.221217 0.577106 0.238160 0.156911
H5    H     H_    0.918799 0.375145 0.909303 0.153778
H6    H     H_    0.081201 0.624855 0.090697 0.153778
H7    H     H_    0.918799 0.624855 0.090697 0.153778
H8    H     H_    0.081201 0.375145 0.909303 0.153778

loop_
_geom_bond_atom_site_label_1
_geom_bond_atom_site_label_2
_geom_bond_distance
_ccdc_geom_bond_type
C13   C19   1.401524 A    
C7    C11   1.393539 A    
C14   C20   1.401524 A    
C11   C15   1.411367 A    
C13   C15   1.411367 A    
C5    H1    1.084593 S    
C7    H3    1.084594 S    
C3    C10   1.458086 S    
C14   C16   1.411367 A    
O3    Cu1   1.935999 S    
O6    C4    1.280211 A    
O3    C2    1.273836 A    
C5    C13   1.393539 A    
C17   H5    1.083670 S    
C21   C22   1.189310 T    
C18   H6    1.083670 S    
Cu1   Cu2   2.633195 S    
O5    C3    1.280211 A    
O2    C2    1.273781 A    
O6    Cu2   1.967446 S    
O1    C1    1.273781 A    
C11   C17   1.401524 A    
C7    C9    1.402167 A    
C8    C10   1.402167 A    
C17   C20   1.394258 A    
O4    Cu2   1.936000 S    
C18   C19   1.394258 A    
O2    Cu2   1.935949 S    
O7    C4    1.280211 A    
C12   C18   1.401524 A    
O1    Cu1   1.935950 S    
O8    C3    1.280211 A    
N1    N2    1.196369 T    
C12   C16   1.411367 A    
O5    Cu1   1.967447 S    
C8    H4    1.084594 S    
O8    Cu2   1.967447 S    
Cu1   N2    1.978633 S    
C15   C16   1.401980 A    
O7    Cu1   1.967446 S    
Cu2   N1    1.978633 S    
C20   H8    1.083670 S    
C19   H7    1.083670 S    
C6    C10   1.402167 A    
C6    H2    1.084593 S    
C4    C9    1.458086 S    
C8    C12   1.393539 A    
C5    C9    1.402167 A    
C2    C22   1.406982 S    
C1    C21   1.406982 S    
O4    C1    1.273836 A    
C6    C14   1.393539 A    
