data_mof_unit_25874.cif
_audit_creation_date              2012-12-10T16:50:16-0500
_audit_creation_method            fapswitch 2.2
_symmetry_space_group_name_H-M    P1
_symmetry_Int_Tables_number       1
_space_group_crystal_system       triclinic
_cell_length_a                    23.510305
_cell_length_b                    8.66169
_cell_length_c                    7.430797
_cell_angle_alpha                 103.399183
_cell_angle_beta                  94.38167
_cell_angle_gamma                 92.11937
_cell_volume                      1465.37236525

loop_
_atom_site_label
_atom_site_type_symbol
_atom_type_description
_atom_site_fract_x
_atom_site_fract_y
_atom_site_fract_z
_atom_type_partial_charge
C1    C     C_R   0.498308 0.199421 0.452810 0.883059
C2    C     C_R   0.501703 0.800580 0.547188 0.880246
C3    C     C_R   0.245307 0.563316 0.666444 -0.185277
C4    C     C_R   0.754940 0.429551 0.337420 -0.133058
C5    C     C_R   0.304143 0.565728 0.660815 -0.264034
C6    C     C_R   0.695990 0.431725 0.339760 -0.265785
C7    C     C_R   0.328433 0.482868 0.502956 -0.124745
C8    C     C_R   0.671567 0.513973 0.497687 -0.167039
C9    C     C_R   0.292737 0.392304 0.348661 -0.142676
C10   C     C_R   0.707311 0.597962 0.655304 -0.077179
C11   C     C_R   0.232487 0.395894 0.352293 0.427809
C12   C     C_R   0.766849 0.585951 0.657624 0.427186
C13   C     C_R   0.209325 0.481470 0.512683 0.292061
C14   C     C_R   0.790768 0.504316 0.495131 0.212834
C15   C     C_2   0.497670 0.031261 0.426363 -0.390342
C16   C     C_2   0.502376 0.968743 0.573624 -0.392930
C17   C     C_R   0.391006 0.494192 0.501096 0.812372
C18   C     C_R   0.608992 0.505440 0.498907 0.808033
C19   C     C_R   0.883631 0.640667 0.514418 0.621360
C20   C     C_R   0.116242 0.345539 0.493061 0.693738
C21   C     C_R   0.876438 0.357898 0.456596 0.561292
C22   C     C_R   0.123517 0.628026 0.547832 0.571892
C23   C     C_R   0.935861 0.350936 0.444859 -0.124708
C24   C     C_R   0.064077 0.635219 0.559216 -0.128910
C25   C     C_R   0.969915 0.494851 0.495734 -0.139009
C26   C     C_R   0.029997 0.491405 0.508617 -0.142340
C27   C     C_R   0.943772 0.642130 0.533215 -0.104610
C28   C     C_R   0.056135 0.344160 0.471927 -0.107568
C29   C     C_R   0.962148 0.204603 0.389723 0.312885
C30   C     C_R   0.037826 0.781664 0.613842 0.314324
C31   C     C_R   0.022203 0.200519 0.409659 0.416201
C32   C     C_R   0.977759 0.785793 0.594619 0.416419
Cu1   Cu    Cu3+1 0.506340 0.517380 0.684380 0.943743
Cu2   Cu    Cu3+1 0.493660 0.482620 0.315620 0.949284
H1    H     H_    0.227417 0.627326 0.790447 0.175005
H2    H     H_    0.773007 0.368002 0.212567 0.172752
H3    H     H_    0.330832 0.633933 0.780201 0.173994
H4    H     H_    0.669362 0.368162 0.217687 0.173654
H5    H     H_    0.493423 0.958722 0.284877 0.175617
H6    H     H_    0.506629 0.041286 0.715108 0.175233
H7    H     H_    0.455198 0.378301 0.947928 0.234385
H8    H     H_    0.544903 0.621549 0.051964 0.231819
N1    N     N_R   0.851677 0.500816 0.487176 -0.493271
N2    N     N_R   0.148341 0.485135 0.519708 -0.467211
N3    N     N_2   0.484110 0.456420 0.038520 -0.217302
N4    N     N_2   0.515890 0.543580 0.961480 -0.219519
O1    O     O_R   0.504120 0.286130 0.619770 -0.583669
O2    O     O_R   0.495880 0.713870 0.380230 -0.583438
O3    O     O_R   0.493410 0.256770 0.308360 -0.582589
O4    O     O_R   0.506590 0.743230 0.691640 -0.584786
O5    O     O_R   0.423230 0.514630 0.655730 -0.596643
O6    O     O_R   0.576770 0.485370 0.344270 -0.591923
O7    O     O_R   0.412530 0.485280 0.344320 -0.562976
O8    O     O_R   0.587470 0.514720 0.655680 -0.573565
O9    O     O_2   0.856887 0.777377 0.525806 -0.398837
O10   O     O_2   0.142757 0.209001 0.486377 -0.411419
O11   O     O_2   0.843696 0.224024 0.444821 -0.467510
O12   O     O_2   0.156182 0.761644 0.557541 -0.473463
O13   O     O_3   0.930532 0.065062 0.308714 -0.658700
H9    H     H_    0.901471 0.088996 0.216615 0.368449
O14   O     O_3   0.069496 0.921273 0.694148 -0.660801
H10   H     H_    0.098658 0.897583 0.786109 0.364408
O15   O     O_3   0.048860 0.059021 0.357277 -0.623379
H11   H     H_    0.020368 0.968097 0.318678 0.368420
O16   O     O_3   0.951173 0.927453 0.646605 -0.624657
H12   H     H_    0.979695 0.018333 0.684694 0.368114
C33   C     C_R   0.318145 0.288066 0.190500 0.105910
C34   C     C_R   0.315599 0.324657 0.015582 -0.117952
C35   C     C_R   0.339551 0.225360 0.867585 -0.126272
C36   C     C_R   0.366634 0.090240 0.893662 -0.125539
C37   C     C_R   0.369642 0.053724 0.067633 -0.114235
C38   C     C_R   0.345473 0.152080 0.215724 -0.104581
H13   H     H_    0.294915 0.429406 0.994347 0.141832
H14   H     H_    0.337279 0.253076 0.732712 0.140504
H15   H     H_    0.385302 0.013913 0.779105 0.130244
H16   H     H_    0.390667 0.949137 0.087704 0.129250
H17   H     H_    0.348079 0.122624 0.349969 0.109978
C39   C     C_R   0.683487 0.705217 0.814949 0.180787
C40   C     C_R   0.653664 0.836961 0.787896 -0.107377
C41   C     C_R   0.630861 0.937731 0.937177 -0.119399
C42   C     C_R   0.637812 0.908278 0.114441 -0.133075
C43   C     C_R   0.667631 0.778081 0.142745 -0.131448
C44   C     C_R   0.690345 0.676583 0.993713 -0.045607
H18   H     H_    0.647996 0.861203 0.651206 0.102950
H19   H     H_    0.607820 0.038708 0.915438 0.131716
H20   H     H_    0.620135 0.986369 0.229859 0.134788
H21   H     H_    0.673070 0.755933 0.280241 0.144567
H22   H     H_    0.712996 0.575459 0.017043 0.140012
O17   O     O_3   0.194595 0.318839 0.204028 -0.702965
H23   H     H_    0.214461 0.244232 0.111470 0.345242
O18   O     O_3   0.800331 0.657726 0.818639 -0.701138
H24   H     H_    0.837835 0.609435 0.817523 0.331089

loop_
_geom_bond_atom_site_label_1
_geom_bond_atom_site_label_2
_ccdc_geom_bond_type
C4    H2    S    
C5    H3    S    
C12   O18   S    
C20   O10   S    
C17   O5    A    
C42   C43   A    
C10   C39   S    
C18   O6    A    
N3    N4    D    
C41   H19   S    
C23   C29   A    
C24   C26   A    
C40   H18   S    
C43   H21   S    
C33   C38   A    
H8    N4    S    
C2    O4    A    
C21   N1    A    
C39   C44   A    
C22   N2    A    
C29   O13   S    
C34   C35   A    
C7    C17   S    
C6    H4    S    
C36   C37   A    
C1    C15   S    
C2    C16   S    
C42   H20   S    
C3    C13   A    
C25   C26   A    
C44   H22   S    
O13   H9    S    
Cu1   N4    S    
O14   H10   S    
C20   N2    A    
C19   N1    A    
C33   C34   A    
C31   O15   S    
C4    C6    A    
O18   H24   S    
C5    C7    A    
C39   C40   A    
C1    O1    A    
C6    C8    A    
C20   C28   A    
C2    O2    A    
Cu1   O4    S    
C8    C18   S    
Cu1   O5    S    
O15   H11   S    
C9    C33   S    
C21   O11   S    
C38   H17   S    
C11   O17   S    
C3    H1    S    
Cu1   Cu2   S    
C35   H14   S    
Cu2   N3    S    
C9    C11   A    
C15   H5    S    
C10   C12   A    
C16   H6    S    
C12   C14   A    
O16   H12   S    
C21   C23   A    
Cu1   O1    S    
C22   C24   A    
Cu2   O2    S    
C17   O7    A    
C19   C27   A    
C19   O9    S    
Cu1   O8    S    
C7    C9    A    
Cu2   O3    S    
C27   C32   A    
Cu2   O6    S    
C28   C31   A    
C41   C42   A    
C3    C5    A    
C22   O12   S    
C25   C27   A    
C26   C28   A    
C34   H13   S    
C37   C38   A    
C29   C31   A    
C30   C32   A    
C11   C13   A    
C37   H16   S    
C23   C25   A    
C4    C14   A    
C35   C36   A    
C24   C30   A    
C18   O8    A    
C40   C41   A    
Cu2   O7    S    
C8    C10   A    
C43   C44   A    
C30   O14   S    
C36   H15   S    
H7    N3    S    
C32   O16   S    
O17   H23   S    
C1    O3    A    
C13   N2    S    
C15   C16   D    
C14   N1    S    
