data_mof_unit_55302.cif
_audit_creation_date              2013-03-05T16:31:43-0500
_audit_creation_method            fapswitch 2.2
_symmetry_space_group_name_H-M    P1
_symmetry_Int_Tables_number       1
_space_group_crystal_system       triclinic
_cell_length_a                    14.310428
_cell_length_b                    14.941798
_cell_length_c                    15.642153
_cell_angle_alpha                 91.528057
_cell_angle_beta                  68.267903
_cell_angle_gamma                 89.654314
_cell_volume                      3105.37894125

loop_
_atom_site_label
_atom_site_type_symbol
_atom_site_description
_atom_site_fract_x
_atom_site_fract_y
_atom_site_fract_z
_atom_type_partial_charge
O1    O     O_R   0.420530 0.630930 0.499990 -0.598777
O2    O     O_R   0.579470 0.369070 0.500010 -0.582994
O3    O     O_R   0.579480 0.630940 0.499990 -0.587769
O4    O     O_R   0.420520 0.369060 0.500010 -0.593703
C1    C     C_R   0.499832 0.672009 0.500308 0.888576
C2    C     C_R   0.500880 0.327766 0.499717 0.899749
O5    O     O_R   0.375120 0.499990 0.632240 -0.539086
O6    O     O_R   0.624880 0.500010 0.367760 -0.556976
O7    O     O_R   0.534080 0.500000 0.632240 -0.617369
O8    O     O_R   0.465920 0.500000 0.367760 -0.609109
C3    C     C_R   0.436821 0.497922 0.675417 0.944630
C4    C     C_R   0.562625 0.502297 0.324614 0.934383
Zn1   Zn    Zn3+2 0.393860 0.499990 0.500000 1.034717
Zn2   Zn    Zn3+2 0.606140 0.500010 0.500000 1.041758
C5    C     C_R   0.396424 0.494125 0.776090 -0.248479
C6    C     C_R   0.599757 0.503643 0.223970 -0.279182
C7    C     C_R   0.264882 0.524977 0.925065 0.357020
C8    C     C_R   0.730967 0.476365 0.074428 0.380420
C9    C     C_R   0.293959 0.508458 0.829545 0.369180
C10   C     C_R   0.702444 0.501598 0.168015 0.368709
C11   C     C_R   0.464254 0.478601 0.818813 -0.223306
C12   C     C_R   0.528474 0.503697 0.182955 -0.196547
C13   C     C_R   0.435941 0.485582 0.914078 0.027344
C14   C     C_R   0.556534 0.498995 0.087931 0.034703
C15   C     C_R   0.336907 0.516349 0.966684 -0.042179
C16   C     C_R   0.657042 0.473754 0.034489 -0.089125
C17   C     C_R   0.507499 0.473691 0.956189 -0.058576
C18   C     C_R   0.483820 0.508408 0.047037 -0.023320
C19   C     C_R   0.389608 0.553119 0.094309 0.474399
C20   C     C_R   0.603074 0.429823 0.910560 0.473755
C21   C     C_R   0.314408 0.548036 0.056786 -0.277749
C22   C     C_R   0.678998 0.438743 0.945730 -0.253493
H1    H     H_    0.241144 0.578015 0.093532 0.176072
H2    H     H_    0.752730 0.410237 0.906391 0.183876
H3    H     H_    0.449606 0.501869 0.225757 0.239441
H4    H     H_    0.541712 0.468478 0.775476 0.270128
C23   C     C_R   0.412502 0.906688 0.573128 0.332209
C24   C     C_R   0.559895 0.098950 0.557088 0.354152
C25   C     C_R   0.412822 0.813944 0.563688 -0.193084
C26   C     C_R   0.560218 0.191299 0.548620 -0.253677
H5    H     H_    0.347588 0.777424 0.604843 0.243643
H6    H     H_    0.603396 0.231843 0.578596 0.184897
C27   C     C_R   0.498932 0.767988 0.505229 -0.082543
C28   C     C_R   0.503032 0.231633 0.503829 -0.087573
C29   C     C_R   0.586652 0.813419 0.456532 -0.148933
C30   C     C_R   0.450191 0.179851 0.462347 -0.121471
H7    H     H_    0.653865 0.777660 0.411845 0.153512
H8    H     H_    0.413331 0.209820 0.421180 0.230367
C31   C     C_R   0.587341 0.905551 0.464337 -0.143277
C32   C     C_R   0.448409 0.088215 0.470759 -0.165225
H9    H     H_    0.654553 0.941036 0.424427 0.160424
H10   H     H_    0.407073 0.048156 0.438348 0.168682
C33   C     C_R   0.500795 0.951975 0.521670 0.023457
C34   C     C_R   0.501610 0.048066 0.518961 0.021954
C35   C     C_R   0.862744 0.542008 0.576257 0.328939
C36   C     C_R   0.113042 0.422664 0.477457 0.315364
C37   C     C_R   0.766370 0.545608 0.569683 0.271308
C38   C     C_R   0.215216 0.425893 0.469541 0.271344
N1    N     N_R   0.747530 0.500020 0.500000 -0.227875
N2    N     N_R   0.252470 0.499980 0.500000 -0.220439
C39   C     C_R   0.826958 0.457981 0.430632 0.322617
C40   C     C_R   0.189552 0.573488 0.533392 0.317009
C41   C     C_R   0.925409 0.462119 0.430614 -0.333815
C42   C     C_R   0.091845 0.575763 0.531213 -0.351348
H11   H     H_    0.986937 0.432249 0.373077 0.248370
H12   H     H_    0.046919 0.636619 0.553197 0.259707
C43   C     C_R   0.945174 0.502091 0.503930 -0.042958
C44   C     C_R   0.051223 0.500282 0.504035 -0.053604
O9    O     O_3   0.876222 0.584090 0.650629 -0.558139
C45   C     C_3   0.876406 0.518877 0.714372 0.114445
H13   H     H_    0.937957 0.468466 0.683091 0.104007
H14   H     H_    0.803334 0.483621 0.740494 0.185080
C46   C     C_3   0.893047 0.564589 0.795511 -0.727159
H15   H     H_    0.828835 0.610640 0.832981 0.278062
H16   H     H_    0.899508 0.513559 0.843385 0.221131
H17   H     H_    0.963635 0.603295 0.770826 0.269620
O10   O     O_3   0.076834 0.344193 0.453198 -0.565478
C47   C     C_3   0.018143 0.300583 0.534277 0.114984
H18   H     H_    0.949871 0.340897 0.575133 0.112973
H19   H     H_    0.062370 0.287305 0.578293 0.161474
C48   C     C_3   0.983653 0.211548 0.508010 -0.653374
H20   H     H_    0.049900 0.168527 0.468245 0.273473
H21   H     H_    0.937265 0.176679 0.571138 0.216106
H22   H     H_    0.937713 0.222989 0.465419 0.259572
N3    N     N_R   0.690941 0.603250 0.633387 0.262154
O11   O     O_R   0.664048 0.591290 0.721223 -0.389662
O12   O     O_R   0.675722 0.681780 0.606690 -0.333325
N4    N     N_R   0.279212 0.350543 0.427738 0.243428
O13   O     O_R   0.355055 0.360084 0.350841 -0.404160
O14   O     O_R   0.248312 0.270258 0.452870 -0.406101
N5    N     N_R   0.813349 0.410737 0.355114 0.253729
O15   O     O_R   0.884622 0.411574 0.273934 -0.381790
O16   O     O_R   0.748236 0.347146 0.371303 -0.363490
N6    N     N_R   0.219905 0.648764 0.574158 0.226342
O17   O     O_R   0.239913 0.637902 0.647759 -0.341684
O18   O     O_R   0.201240 0.729224 0.554090 -0.396744
O19   O     O_3   0.774875 0.517523 0.204911 -0.534175
C49   C     C_3   0.787951 0.611066 0.208380 0.159291
H23   H     H_    0.714830 0.648355 0.240421 0.100733
H24   H     H_    0.827816 0.635380 0.137674 0.146165
C50   C     C_3   0.850543 0.632495 0.266270 -0.766795
H25   H     H_    0.922057 0.593012 0.240436 0.274470
H26   H     H_    0.868063 0.704910 0.262894 0.192535
H27   H     H_    0.807722 0.616466 0.339148 0.252020
O20   O     O_3   0.225545 0.518140 0.786765 -0.561131
C51   C     C_3   0.154074 0.449237 0.811827 0.170274
H28   H     H_    0.084010 0.475986 0.866100 0.193492
H29   H     H_    0.179935 0.388368 0.837396 0.122334
C52   C     C_3   0.130017 0.420627 0.728270 -0.831816
H30   H     H_    0.198469 0.391958 0.673345 0.268828
H31   H     H_    0.070671 0.369264 0.747410 0.190102
H32   H     H_    0.102860 0.479214 0.701500 0.261092
O21   O     O_3   0.166615 0.550497 0.977446 -0.623832
C53   C     C_3   0.153242 0.642347 0.964843 0.117309
H33   H     H_    0.165663 0.655725 0.891830 0.207482
H34   H     H_    0.205356 0.684067 0.986542 0.144094
C54   C     C_3   0.045940 0.670759 0.023315 -0.799297
H35   H     H_    0.032184 0.661629 0.097116 0.250730
H36   H     H_    0.033639 0.742418 0.012819 0.220255
H37   H     H_    0.992296 0.629704 0.003454 0.273992
O22   O     O_3   0.830337 0.454361 0.022685 -0.620390
C55   C     C_3   0.849024 0.365868 0.042862 0.142428
H38   H     H_    0.798739 0.317864 0.025721 0.119752
H39   H     H_    0.837997 0.360262 0.116813 0.223496
C56   C     C_3   0.957177 0.338908 0.985812 -0.803859
H40   H     H_    0.009367 0.384683 0.002414 0.279215
H41   H     H_    0.972277 0.269470 0.001442 0.227507
H42   H     H_    0.970117 0.341667 0.911489 0.231330
O23   O     O_3   0.381906 0.614356 0.165784 -0.611768
C57   C     C_3   0.284115 0.621615 0.234089 0.032238
H43   H     H_    0.249654 0.554675 0.252689 0.151149
H44   H     H_    0.235562 0.665102 0.210640 0.162693
C58   C     C_3   0.290484 0.666707 0.319943 -0.716654
H45   H     H_    0.326846 0.732786 0.303105 0.265205
H46   H     H_    0.213625 0.677231 0.372401 0.224627
H47   H     H_    0.335186 0.624293 0.348427 0.258442
O24   O     O_3   0.623383 0.374553 0.833434 -0.647599
C59   C     C_3   0.581132 0.290119 0.861556 0.038906
H48   H     H_    0.500477 0.295762 0.908286 0.155064
H49   H     H_    0.624407 0.254536 0.897013 0.161832
C60   C     C_3   0.586427 0.234729 0.777058 -0.702277
H50   H     H_    0.665570 0.229109 0.727785 0.277594
H51   H     H_    0.557420 0.166636 0.797356 0.246530
H52   H     H_    0.539816 0.267398 0.743277 0.229566
N7    N     N_R   0.323599 0.953153 0.635043 0.210953
O25   O     O_R   0.330456 0.027647 0.677205 -0.364442
O26   O     O_R   0.235803 0.916667 0.656519 -0.328057
N8    N     N_R   0.618099 0.058382 0.604052 0.198706
O27   O     O_R   0.584343 0.989926 0.655703 -0.337386
O28   O     O_R   0.702472 0.093560 0.600204 -0.411686

loop_
_geom_bond_atom_site_label_1
_geom_bond_atom_site_label_2
_geom_bond_distance
_ccdc_geom_bond_type
C15   C21   1.393106 A    
C24   C26   1.389595 A    
C41   H11   1.082345 S    
C16   C22   1.391475 A    
C50   H25   1.110152 S    
C46   H15   1.110582 S    
C8    C16   1.414071 A    
C48   H20   1.110633 S    
C7    O21   1.384874 S    
C25   H5    1.078657 S    
Zn1   N2    2.023352 S    
N3    O11   1.300060 A    
O5    C3    1.295799 A    
C12   H3    1.079155 S    
C32   C34   1.397023 A    
O1    C1    1.295015 A    
C42   C44   1.398561 A    
C18   C19   1.426629 A    
C14   C16   1.412813 A    
O21   C53   1.413567 S    
C52   H31   1.109822 S    
C47   H19   1.114649 S    
C37   N1    1.380225 A    
C51   H28   1.110172 S    
C38   N2    1.379760 A    
O19   C49   1.413570 S    
N2    C40   1.378077 A    
O4    Zn1   1.990938 S    
C39   C41   1.410499 A    
C40   C42   1.411424 A    
C48   H21   1.110582 S    
C5    C9    1.404923 A    
C3    C5    1.465695 S    
C19   O23   1.397236 S    
C10   O19   1.379389 S    
C4    C6    1.464051 S    
C36   C38   1.422206 A    
C31   H9    1.084028 S    
C58   H47   1.109321 S    
C32   H10   1.084148 S    
C21   H1    1.079161 S    
C45   H13   1.111660 S    
C13   C17   1.420439 A    
C6    C10   1.404275 A    
C23   C33   1.410138 A    
C29   H7    1.084088 S    
C1    C27   1.433844 S    
C50   H26   1.110359 S    
C20   O24   1.380662 S    
C2    C28   1.440214 S    
C17   C20   1.432143 A    
C46   H16   1.109766 S    
O2    C2    1.287553 A    
C60   H50   1.110301 S    
N7    O26   1.301570 A    
C28   C30   1.391084 A    
N7    O25   1.301374 A    
C30   H8    1.075864 S    
N3    O12   1.299622 A    
C11   C13   1.392724 A    
C41   C43   1.399154 A    
N1    C39   1.380437 A    
C43   C44   1.518301 S    
N8    O27   1.301287 A    
O4    C2    1.300217 A    
C52   H32   1.108452 S    
N5    O15   1.301841 A    
C11   H4    1.071048 S    
C47   H18   1.111669 S    
C25   C27   1.395709 A    
O6    Zn2   1.984916 S    
C36   C44   1.410675 A    
C59   C60   1.518032 S    
C60   H52   1.110515 S    
C36   O10   1.384353 S    
C60   H51   1.110411 S    
C42   H12   1.082123 S    
C57   H44   1.111530 S    
O7    Zn2   1.939733 S    
Zn2   N1    2.023352 S    
N5    O16   1.297671 A    
O7    C3    1.303765 A    
C53   H34   1.114348 S    
C24   C34   1.407578 A    
O5    Zn1   1.984916 S    
O6    C4    1.302491 A    
C45   C46   1.521064 S    
C29   C31   1.379193 A    
N6    O17   1.298957 A    
C35   C37   1.421245 A    
N6    O18   1.301368 A    
C27   C29   1.395200 A    
C24   N8    1.439319 S    
O22   C55   1.414202 S    
C35   O9    1.383665 S    
O3    Zn2   1.990938 S    
O8    C4    1.296909 A    
C9    O20   1.384134 S    
N4    O14   1.300752 A    
C50   H27   1.109701 S    
C49   H24   1.112352 S    
C40   N6    1.425880 S    
C58   H45   1.110651 S    
C46   H17   1.110887 S    
C12   C14   1.388377 A    
C54   H37   1.110972 S    
C57   C58   1.519493 S    
O1    Zn1   1.995611 S    
C55   H39   1.113619 S    
C48   H22   1.110990 S    
C56   H41   1.110350 S    
O23   C57   1.412966 S    
O20   C51   1.413155 S    
C6    C12   1.391721 A    
C14   C18   1.416936 A    
N8    O28   1.301263 A    
O3    C1    1.289540 A    
O8    Zn1   1.939733 S    
C38   N4    1.427825 S    
C35   C43   1.412231 A    
C33   C34   1.437509 S    
C59   H49   1.113506 S    
C49   C50   1.521005 S    
O24   C59   1.411576 S    
C30   C32   1.378489 A    
C7    C15   1.415131 A    
C55   C56   1.518065 S    
C54   H36   1.110338 S    
C57   H43   1.115106 S    
C23   C25   1.389483 A    
C54   H35   1.109258 S    
C20   C22   1.393336 A    
C47   C48   1.520261 S    
C56   H40   1.110580 S    
C5    C11   1.388720 A    
C51   H29   1.117618 S    
C56   H42   1.109408 S    
C31   C33   1.397588 A    
C26   H6    1.082845 S    
C7    C9    1.408968 A    
C37   N3    1.430514 S    
C8    C10   1.406410 A    
C53   H33   1.112742 S    
C13   C15   1.416089 A    
O9    C45   1.413279 S    
O2    Zn2   1.995608 S    
C53   C54   1.518558 S    
C59   H48   1.115512 S    
C8    O22   1.383179 S    
C26   C28   1.401746 A    
N4    O13   1.299752 A    
C19   C21   1.405250 A    
C49   H23   1.116358 S    
C17   C18   1.416086 A    
C58   H46   1.109282 S    
O10   C47   1.414329 S    
C45   H14   1.113400 S    
C23   N7    1.442082 S    
C55   H38   1.114915 S    
C52   H30   1.110525 S    
C39   N5    1.434980 S    
C22   H2    1.083137 S    
C51   C52   1.521419 S    
