data_mof_unit_9110.cif
_audit_creation_date              2012-12-11T16:05:05-0500
_audit_creation_method            fapswitch 2.2
_symmetry_space_group_name_H-M    P1
_symmetry_Int_Tables_number       1
_space_group_crystal_system       triclinic
_cell_length_a                    10.636037
_cell_length_b                    10.5828
_cell_length_c                    16.922341
_cell_angle_alpha                 98.273992
_cell_angle_beta                  98.638914
_cell_angle_gamma                 61.769109
_cell_volume                      1653.33498285

loop_
_atom_site_label
_atom_site_type_symbol
_atom_type_description
_atom_site_fract_x
_atom_site_fract_y
_atom_site_fract_z
_atom_type_partial_charge
C1    C     C_R   0.375403 0.723842 0.386501 0.529878
C2    C     C_3   0.369403 0.701855 0.232953 -0.147359
C3    C     C_3   0.352804 0.790693 0.313673 0.060735
C4    C     C_R   0.370385 0.346910 0.358805 0.599675
C5    C     C_3   0.428448 0.869702 0.288983 -0.106280
C6    C     C_3   0.280364 0.986863 0.257249 -0.130027
C7    C     C_3   0.205679 0.906939 0.283511 -0.105656
C8    C     C_3   0.222147 0.818023 0.202389 -0.103917
C9    C     C_3   0.297082 0.897315 0.176891 0.048910
C10   C     C_3   0.481258 0.265643 0.789137 -0.016097
C11   C     C_3   0.449874 0.409386 0.759350 -0.169314
C12   C     C_3   0.705975 0.303231 0.239953 -0.143347
C13   C     C_3   0.380688 0.367113 0.680435 0.021383
C14   C     C_3   0.412875 0.224813 0.710867 -0.006918
C15   C     C_3   0.265649 0.297241 0.743420 -0.125898
C16   C     C_R   0.707425 0.415437 0.390560 0.529642
C17   C     C_3   0.232460 0.442063 0.713217 -0.105177
C18   C     C_3   0.301034 0.483077 0.793866 -0.139374
C19   C     C_3   0.334862 0.338203 0.822667 0.029940
C20   C     C_1   0.846259 0.328512 0.705895 -0.046342
C21   C     C_1   0.892548 0.295505 0.773234 -0.044329
C22   C     C_1   0.338588 0.811562 0.709894 -0.034186
C23   C     C_3   0.753506 0.383722 0.310865 0.034155
C24   C     C_1   0.313507 0.838928 0.778599 -0.044223
C25   C     C_R   0.894839 0.309239 0.092058 0.552233
C26   C     C_R   0.319137 0.299401 0.120285 0.533627
C27   C     C_R   0.259929 0.953262 0.099427 0.550830
C28   C     C_R   0.356887 0.770983 0.627366 0.561805
C29   C     C_R   0.942445 0.276305 0.855959 0.557907
C30   C     C_R   0.311160 0.297695 0.894955 0.539798
C31   C     C_R   0.280128 0.884543 0.859022 0.540733
C32   C     C_R   0.409530 0.377916 0.601116 0.564575
C33   C     C_R   0.778945 0.376992 0.628802 0.548781
C34   C     C_3   0.909659 0.295093 0.293846 0.023743
C35   C     C_1   0.342955 0.336624 0.275112 -0.052214
C36   C     C_1   0.331473 0.326143 0.203905 -0.070333
C37   C     C_3   0.864950 0.212465 0.222062 -0.144894
C38   C     C_1   0.617538 0.165170 0.829774 0.233400
C39   C     C_1   0.476940 0.081069 0.668064 0.235136
C40   C     C_2   0.025001 0.238372 0.361257 0.235085
C41   C     C_3   0.891027 0.409610 0.240850 -0.074820
C42   C     C_3   0.733548 0.499468 0.258775 -0.139759
C43   C     C_3   0.685493 0.419718 0.186194 -0.145083
C44   C     C_3   0.842094 0.329967 0.169335 0.037569
C45   C     C_3   0.443950 0.781718 0.206419 -0.126221
Cr1   Cr    Cr6+3 0.608340 0.611040 0.520430 1.056724
Cr2   Cr    Cr6+3 0.287650 0.601120 0.489350 1.046756
Cr3   Cr    Cr6+3 0.604040 0.287870 0.490280 1.029970
Cr4   Cr    Cr6+3 0.054020 0.052700 0.970850 1.048407
Cr5   Cr    Cr6+3 0.059230 0.375120 0.993390 1.023160
Cr6   Cr    Cr6+3 0.374950 0.061200 0.992340 1.035803
H1    H     H_    0.630012 0.259948 0.242038 0.132932
H2    H     H_    0.968536 0.451739 0.239652 0.148079
H3    H     H_    0.688107 0.614575 0.280578 0.122566
H4    H     H_    0.596482 0.467908 0.138843 0.121005
H5    H     H_    0.403257 0.584710 0.225769 0.096530
H6    H     H_    0.537583 0.735896 0.170732 0.132624
H7    H     H_    0.513556 0.889092 0.326644 0.140645
H8    H     H_    0.026600 0.161648 0.397968 0.125254
H9    H     H_    0.245770 0.103976 0.262092 0.146731
H10   H     H_    0.107643 0.952173 0.315180 0.117349
H11   H     H_    0.136372 0.796737 0.166943 0.138904
H12   H     H_    0.526253 0.454639 0.764122 0.115343
H13   H     H_    0.190049 0.250845 0.737805 0.107161
H14   H     H_    0.130092 0.514690 0.680517 0.154761
H15   H     H_    0.254442 0.588366 0.829876 0.143306
H16   H     H_    0.919628 0.095019 0.204738 0.116073
N1    N     N_1   0.723614 0.084076 0.861772 -0.252122
N2    N     N_1   0.529243 0.968278 0.634078 -0.252576
O1    O     O_R   0.751220 0.499230 0.435170 -0.493481
O2    O     O_R   0.412990 0.180750 0.091610 -0.513741
O3    O     O_R   0.366620 0.943130 0.065760 -0.496843
O4    O     O_R   0.477220 0.727600 0.436870 -0.503710
O5    O     O_R   0.160510 0.906330 0.879210 -0.507363
O6    O     O_R   0.930190 0.179050 0.889450 -0.462889
O7    O     O_R   0.909140 0.398170 0.896710 -0.498449
O8    O     O_R   0.186190 0.363460 0.918830 -0.512555
O9    O     O_R   0.401670 0.173200 0.913310 -0.505466
O10   O     O_R   0.356120 0.936130 0.900470 -0.486478
O11   O     O_3   0.162740 0.163010 0.985530 -0.300767
O12   O     O_R   0.297880 0.469080 0.560050 -0.481358
O13   O     O_R   0.258650 0.745120 0.411470 -0.512623
O14   O     O_R   0.297070 0.467240 0.395960 -0.481904
O15   O     O_R   0.488830 0.252610 0.387790 -0.516935
O16   O     O_R   0.724400 0.302390 0.420980 -0.513394
O17   O     O_R   0.752100 0.501210 0.612190 -0.491800
O18   O     O_R   0.478040 0.729440 0.600970 -0.464365
O19   O     O_R   0.259530 0.747110 0.588490 -0.515060
O20   O     O_2   0.113647 0.282690 0.377461 -0.507554
O21   O     O_R   0.489720 0.254590 0.564810 -0.488858
O22   O     O_R   0.725220 0.304230 0.585080 -0.507633
O23   O     O_3   0.500010 0.500010 0.500020 -0.331923
O24   O     O_R   0.171830 0.913880 0.057510 -0.521552
O25   O     O_R   0.940690 0.186050 0.054730 -0.506728
O26   O     O_R   0.920470 0.405720 0.075010 -0.517032
O27   O     O_R   0.196690 0.370460 0.084120 -0.502695

loop_
_geom_bond_atom_site_label_1
_geom_bond_atom_site_label_2
_ccdc_geom_bond_type
C11   C18   S    
C9    C45   S    
C34   C37   S    
C41   C42   S    
C13   C32   S    
C35   C36   T    
C43   C44   S    
C11   H12   S    
C6    C9    S    
C7    C8    S    
C29   O7    A    
C15   C19   S    
C32   O12   A    
C12   C23   S    
C45   H6    S    
C23   C42   S    
C5    H7    S    
C34   C40   S    
C12   C43   S    
C3    C7    S    
C33   O22   A    
C5    C6    S    
Cr5   O26   S    
Cr1   O23   S    
C18   C19   S    
Cr2   O23   S    
Cr2   O13   S    
C12   C37   S    
Cr6   O11   S    
C7    H10   S    
C14   C39   S    
C30   O8    A    
C32   O21   A    
C8    C9    S    
Cr3   O22   S    
C28   O19   A    
C15   H13   S    
Cr4   O6    S    
Cr2   O14   S    
Cr4   O25   S    
C4    C35   S    
C25   O25   A    
C40   H8    S    
C22   C28   S    
C13   C14   S    
C26   O2    A    
C34   C41   S    
Cr6   O2    S    
C25   C44   S    
C12   H1    S    
C2    C45   S    
C26   O27   A    
Cr1   O1    S    
C6    H9    S    
C16   O1    A    
C10   C14   S    
C31   O5    A    
C1    O13   A    
C21   C29   S    
Cr3   O15   S    
C1    C3    S    
C33   O17   A    
Cr5   O7    S    
C4    O15   A    
C10   C19   S    
C23   C34   S    
C28   O18   A    
C14   C15   S    
C17   C18   S    
C39   N2    T    
C41   H2    S    
C20   C33   S    
C26   C36   S    
C38   N1    T    
C25   O26   A    
C16   C23   S    
C16   O16   A    
C40   O20   D    
C41   C44   S    
C22   C24   T    
C27   O24   A    
C42   C43   S    
Cr5   O8    S    
Cr6   O3    S    
C9    C27   S    
Cr1   O18   S    
C43   H4    S    
C15   C17   S    
Cr3   O16   S    
C2    C8    S    
C3    C5    S    
Cr5   O11   S    
C31   O10   A    
C6    C7    S    
C29   O6    A    
C18   H15   S    
C17   H14   S    
Cr4   O11   S    
C13   C17   S    
C10   C38   S    
C1    O4    A    
Cr2   O19   S    
C37   C44   S    
C2    C3    S    
C24   C31   S    
C2    H5    S    
C42   H3    S    
C11   C13   S    
Cr5   O27   S    
C4    O14   A    
C5    C45   S    
C37   H16   S    
Cr2   O12   S    
Cr6   O10   S    
Cr6   O9    S    
C10   C11   S    
C30   O9    A    
C20   C21   T    
Cr3   O23   S    
Cr4   O5    S    
Cr3   O21   S    
Cr4   O24   S    
C19   C30   S    
Cr1   O4    S    
C27   O3    A    
C8    H11   S    
Cr1   O17   S    
