data_mof_unit_47426.cif
_audit_creation_date              2012-12-10T18:57:41-0500
_audit_creation_method            fapswitch 2.2
_symmetry_space_group_name_H-M    P1
_symmetry_Int_Tables_number       1
_space_group_crystal_system       triclinic
_cell_length_a                    10.939724
_cell_length_b                    10.852408
_cell_length_c                    9.610207
_cell_angle_alpha                 90.872364
_cell_angle_beta                  91.600078
_cell_angle_gamma                 91.885964
_cell_volume                      1139.73483083

loop_
_atom_site_label
_atom_site_type_symbol
_atom_type_description
_atom_site_fract_x
_atom_site_fract_y
_atom_site_fract_z
_atom_type_partial_charge
C1    C     C_R   0.496209 0.262619 0.498808 0.801454
C2    C     C_R   0.481648 0.129498 0.495044 -0.091995
C3    C     C_R   0.494337 0.062684 0.370318 -0.179031
C4    C     C_R   0.495863 0.934263 0.372087 -0.143607
C5    C     C_R   0.484761 0.871047 0.498442 -0.154155
C6    C     C_R   0.452022 0.938241 0.616362 0.089703
C7    C     C_3   0.502251 0.940821 0.763042 0.190448
C8    C     C_3   0.499436 0.080321 0.760205 -0.403717
C9    C     C_R   0.599746 0.544271 0.077247 0.154389
C10   C     C_R   0.407754 0.443111 0.069677 0.438083
C11   C     C_R   0.407243 0.443707 0.922634 0.451666
C12   C     C_R   0.265598 0.499734 0.497882 0.858213
C13   C     C_R   0.600674 0.541450 0.930207 0.098404
C14   C     C_3   0.659231 0.666078 0.924367 -0.464656
C15   C     C_3   0.652764 0.673164 0.081656 0.100708
C16   C     C_R   0.497466 0.737742 0.500526 0.808229
C17   C     C_R   0.734575 0.493457 0.502607 0.789954
C18   C     C_2   0.929376 0.458932 0.395438 -0.248838
C19   C     C_2   0.866386 0.472033 0.512192 0.207035
C20   C     C_2   0.062956 0.444039 0.398152 0.469986
C21   C     C_2   0.133955 0.507898 0.492409 -0.208198
C22   C     C_R   0.451056 0.065315 0.614351 0.066760
Cu1   Cu    Cu3+1 0.499990 0.499980 0.640670 0.958031
Cu2   Cu    Cu3+1 0.500010 0.500020 0.359330 0.991668
H1    H     H_    0.882509 0.455835 0.294354 0.173139
H2    H     H_    0.592098 0.125730 0.766869 0.165193
H3    H     H_    0.753341 0.663263 0.883979 0.228512
H4    H     H_    0.599034 0.730275 0.871430 0.188528
H5    H     H_    0.586980 0.741403 0.118261 0.145875
H6    H     H_    0.095562 0.571111 0.566662 0.158259
H7    H     H_    0.510628 0.109118 0.273260 0.172273
H8    H     H_    0.512397 0.885750 0.275753 0.174678
H9    H     H_    0.596484 0.906879 0.774487 0.111776
H10   H     H_    0.431324 0.120561 0.830037 0.230490
N1    N     N_R   0.500780 0.500930 0.147930 -0.296429
N2    N     N_R   0.500780 0.500890 0.852020 -0.272566
O1    O     O_R   0.500000 0.319640 0.618810 -0.610548
O2    O     O_R   0.500010 0.319680 0.381230 -0.616478
O3    O     O_R   0.321940 0.499980 0.618760 -0.563837
O4    O     O_R   0.321950 0.500020 0.381180 -0.531439
O5    O     O_R   0.499990 0.680320 0.618770 -0.599416
O6    O     O_R   0.500000 0.680360 0.381190 -0.571377
O7    O     O_R   0.678050 0.499980 0.618820 -0.586935
O8    O     O_R   0.678060 0.500020 0.381240 -0.559589
O9    O     O_3   0.312917 0.380005 0.129965 -0.626655
H11   H     H_    0.346349 0.340351 0.213375 0.371844
O10   O     O_3   0.310670 0.382625 0.854522 -0.652950
H12   H     H_    0.344181 0.335878 0.776640 0.351200
Br1   Br    Br    0.813454 0.689116 0.171448 -0.509923
O11   O     O_3   0.924491 0.453537 0.640165 -0.720257
H13   H     H_    0.868438 0.469622 0.716851 0.352764
O12   O     O_3   0.115031 0.366419 0.303045 -0.678701
H14   H     H_    0.048635 0.326860 0.243945 0.343701
O13   O     O_3   0.418368 0.892066 0.857153 -0.693359
H15   H     H_    0.405176 0.803604 0.831944 0.341693

loop_
_geom_bond_atom_site_label_1
_geom_bond_atom_site_label_2
_ccdc_geom_bond_type
C12   O4    A    
C8    C22   S    
Cu1   Cu2   S    
C17   O7    A    
C2    C22   A    
C6    C7    S    
C15   H5    S    
Cu1   O1    S    
C14   H3    S    
C8    H2    S    
C21   H6    S    
O13   H15   S    
C11   O10   S    
O10   H12   S    
Cu1   O5    S    
C1    O1    A    
C12   O3    A    
C2    C3    A    
C9    C15   S    
C17   O8    A    
Cu1   O7    S    
C7    C8    S    
C20   O12   S    
C8    H10   S    
C13   C14   S    
O12   H14   S    
C3    H7    S    
C7    H9    S    
C19   O11   S    
C4    H8    S    
C18   H1    S    
C1    O2    A    
C10   O9    S    
Cu1   O3    S    
C1    C2    S    
C11   N2    A    
C17   C19   S    
O11   H13   S    
C18   C20   S    
C15   Br1   S    
C5    C6    A    
Cu2   O8    S    
C10   N1    A    
Cu2   O4    S    
Cu2   N1    S    
C10   C11   A    
Cu2   O2    S    
C6    C22   A    
C16   O6    A    
Cu2   O6    S    
C20   C21   D    
C13   N2    A    
Cu1   N2    S    
C9    N1    A    
C9    C13   A    
C14   C15   S    
C18   C19   D    
C5    C16   S    
C7    O13   S    
C14   H4    S    
O9    H11   S    
C12   C21   S    
C3    C4    A    
C4    C5    A    
C16   O5    A    
