data_mof_unit_15917.cif
_audit_creation_date              2012-12-11T14:23:10-0500
_audit_creation_method            fapswitch 2.2
_symmetry_space_group_name_H-M    P1
_symmetry_Int_Tables_number       1
_space_group_crystal_system       triclinic
_cell_length_a                    11.179104
_cell_length_b                    11.208315
_cell_length_c                    18.71158
_cell_angle_alpha                 89.712998
_cell_angle_beta                  89.221798
_cell_angle_gamma                 59.52965
_cell_volume                      2020.5490061

loop_
_atom_site_label
_atom_site_type_symbol
_atom_type_description
_atom_site_fract_x
_atom_site_fract_y
_atom_site_fract_z
_atom_type_partial_charge
C1    C     C_R   0.230204 0.648178 0.607214 0.571736
C2    C     C_R   0.589373 0.121489 0.705296 -0.178209
C3    C     C_R   0.592317 0.126509 0.778681 -0.190801
C4    C     C_R   0.655468 0.623716 0.599888 0.592682
C5    C     C_R   0.896172 0.175495 0.801636 -0.142705
C6    C     C_R   0.981841 0.200091 0.754847 -0.110082
C7    C     C_R   0.986807 0.172130 0.681103 0.071531
C8    C     C_R   0.907369 0.119894 0.655870 0.021485
C9    C     C_R   0.685838 0.134878 0.664395 -0.003604
C10   C     C_R   0.110158 0.703200 0.824876 -0.088505
C11   C     C_R   0.158375 0.570255 0.793853 -0.082881
C12   C     C_3   0.689657 0.587693 0.804290 -0.218145
C13   C     C_R   0.166453 0.559068 0.718314 -0.021660
C14   C     C_R   0.127765 0.794157 0.712856 0.332378
C15   C     C_R   0.093752 0.812577 0.783592 -0.125575
C16   C     C_R   0.632644 0.218636 0.598577 0.532396
C17   C     C_R   0.206118 0.447295 0.835082 -0.051151
C18   C     C_R   0.235743 0.323843 0.803900 0.323580
C19   C     C_R   0.232043 0.315557 0.730665 -0.157981
C20   C     C_R   0.193263 0.431974 0.688058 -0.137267
C21   C     C_R   0.161648 0.670394 0.677725 0.072277
C22   C     C_R   0.641351 0.659481 0.161956 -0.008075
C23   C     C_3   0.735972 0.692676 0.806269 -0.017926
C24   C     C_R   0.696736 0.522171 0.185480 0.030591
C25   C     C_R   0.706186 0.494954 0.259933 0.009950
C26   C     C_R   0.562132 0.742657 0.282302 -0.129873
C27   C     C_R   0.575884 0.767034 0.211123 -0.159283
C28   C     C_R   0.216534 0.654651 0.403564 0.536909
C29   C     C_R   0.757713 0.410925 0.136375 -0.078037
C30   C     C_R   0.852001 0.278723 0.159466 -0.104477
C31   C     C_R   0.877357 0.254315 0.231714 -0.112910
C32   C     C_R   0.800384 0.357861 0.281733 -0.100561
C33   C     C_R   0.628813 0.607591 0.308588 -0.004507
C34   C     C_3   0.682499 0.658152 0.673350 0.071983
C35   C     C_R   0.679353 0.057805 0.186833 -0.004149
C36   C     C_R   0.542499 0.127879 0.216122 0.032040
C37   C     C_R   0.520326 0.205703 0.277923 0.032896
C38   C     C_R   0.770147 0.079115 0.299430 -0.156075
C39   C     C_R   0.792369 0.025140 0.230641 -0.157509
C40   C     C_R   0.617822 0.588051 0.385957 0.552460
C41   C     C_R   0.425381 0.131413 0.183977 -0.084111
C42   C     C_R   0.291687 0.219281 0.207874 -0.059903
C43   C     C_R   0.270255 0.303832 0.264924 -0.051554
C44   C     C_R   0.381539 0.306919 0.294956 -0.079503
C45   C     C_3   0.839818 0.604280 0.683051 0.234337
C46   C     C_R   0.636245 0.177851 0.321273 0.014037
C47   C     C_R   0.138185 0.676352 0.187022 0.008421
C48   C     C_R   0.191515 0.753131 0.219159 0.000612
C49   C     C_R   0.161112 0.787102 0.291274 -0.023294
C50   C     C_R   0.088124 0.619849 0.305453 -0.172925
C51   C     C_R   0.080104 0.615626 0.230987 -0.161255
C52   C     C_R   0.611637 0.237213 0.392853 0.530148
C53   C     C_R   0.255596 0.813620 0.179718 -0.132818
C54   C     C_R   0.258388 0.927189 0.207029 -0.098817
C55   C     C_R   0.208430 0.974591 0.275790 0.341189
C56   C     C_3   0.639444 0.582244 0.729256 -0.151774
C57   C     C_R   0.156872 0.907431 0.316952 -0.062584
C58   C     C_R   0.140913 0.696176 0.335674 0.002387
C59   C     C_R   0.706014 0.094745 0.893401 0.528437
C60   C     C_R   0.758820 0.711552 0.883123 0.526769
C61   C     C_R   0.065795 0.736004 0.898038 0.540570
C62   C     C_R   0.702023 0.036582 0.109797 0.562789
C63   C     C_R   0.693050 0.687872 0.095312 0.529085
C64   C     C_3   0.628241 0.830564 0.771169 -0.251404
C65   C     C_R   0.091048 0.709767 0.113239 0.535484
C66   C     C_3   0.604510 0.813667 0.691268 -0.235784
C67   C     C_R   0.699962 0.129056 0.815662 -0.020763
C68   C     C_3   0.867832 0.634114 0.759868 -0.207379
C69   C     C_3   0.061819 0.208417 0.625293 -0.263853
C70   C     C_3   0.198719 0.082329 0.600407 -0.278192
C71   C     C_3   0.276904 0.122831 0.547409 -0.444905
C72   C     C_3   0.482697 0.642779 0.735893 -0.247484
C73   C     C_3   0.454832 0.547157 0.781545 -0.335039
C74   C     C_3   0.476443 0.427561 0.737547 -0.416010
C75   C     C_R   0.803838 0.136757 0.773849 -0.009100
C76   C     C_R   0.802797 0.123044 0.698163 0.011347
Cr1   Cr    Cr6+3 0.392940 0.397950 0.502230 0.993311
Cr2   Cr    Cr6+3 0.398400 0.708500 0.501260 1.016919
Cr3   Cr    Cr6+3 0.708640 0.393530 0.496460 0.988410
Cr4   Cr    Cr6+3 0.937880 0.938320 0.007620 0.994895
Cr5   Cr    Cr6+3 0.625560 0.937220 0.994510 1.028478
Cr6   Cr    Cr6+3 0.938080 0.625010 0.001190 1.012385
F1    F     F_    0.148618 0.891036 0.682501 -0.676156
F2    F     F_    0.272350 0.210610 0.844971 -0.665084
F3    F     F_    0.209036 0.085328 0.303573 -0.676070
F4    F     F_    0.886447 0.663977 0.633197 -0.658067
H1    H     H_    0.679322 0.890631 0.773990 0.139024
H2    H     H_    0.527683 0.883140 0.800960 0.175541
H3    H     H_    0.233625 0.438966 0.890563 0.183884
H4    H     H_    0.067464 0.910101 0.807871 0.184830
H5    H     H_    0.263160 0.216385 0.707195 0.127593
H6    H     H_    0.182197 0.420333 0.631945 0.179320
H7    H     H_    0.508396 0.831001 0.317733 0.181003
H8    H     H_    0.740324 0.427584 0.079473 0.133863
H9    H     H_    0.543362 0.870334 0.195564 0.126013
H10   H     H_    0.908651 0.196116 0.121269 0.146146
H11   H     H_    0.953170 0.152548 0.249323 0.141819
H12   H     H_    0.692140 0.471969 0.712528 0.138566
H13   H     H_    0.491869 0.862775 0.680848 0.120016
H14   H     H_    0.823547 0.327365 0.336389 0.179300
H15   H     H_    0.857625 0.051365 0.333712 0.114686
H16   H     H_    0.432329 0.063871 0.141502 0.137293
H17   H     H_    0.897503 0.963239 0.210472 0.142298
H18   H     H_    0.204389 0.220052 0.182983 0.134271
H19   H     H_    0.166733 0.364096 0.286135 0.138820
H20   H     H_    0.357776 0.388417 0.331444 0.167422
H21   H     H_    0.054550 0.563976 0.339652 0.136201
H22   H     H_    0.295282 0.779247 0.126007 0.145848
H23   H     H_    0.949059 0.536224 0.783887 0.118790
H24   H     H_    0.028629 0.565281 0.207952 0.148139
H25   H     H_    0.643829 0.867349 0.656504 0.179971
H26   H     H_    0.297097 0.978502 0.173680 0.104499
H27   H     H_    0.112887 0.950777 0.368919 0.151886
H28   H     H_    0.900483 0.712168 0.757515 0.157528
H29   H     H_    0.775279 0.482386 0.818896 0.129603
H30   H     H_    0.609262 0.619596 0.847129 0.157992
H31   H     H_    0.212724 0.172590 0.499557 0.171022
H32   H     H_    0.303771 0.195307 0.572632 0.161880
H33   H     H_    0.374526 0.028791 0.530149 0.166068
H34   H     H_    0.898998 0.491075 0.674812 0.127079
H35   H     H_    0.265578 0.030803 0.647100 0.204821
H36   H     H_    0.176601 0.007730 0.573428 0.228669
H37   H     H_    0.993966 0.254114 0.578055 0.156692
H38   H     H_    0.076885 0.291074 0.644502 0.118508
H39   H     H_    0.433110 0.455601 0.683706 0.186111
H40   H     H_    0.587814 0.360186 0.731189 0.165953
H41   H     H_    0.432534 0.374449 0.766788 0.174893
H42   H     H_    0.519693 0.502226 0.829428 0.158529
H43   H     H_    0.352701 0.607695 0.804097 0.179823
H44   H     H_    0.430902 0.746320 0.761904 0.171682
H45   H     H_    0.501446 0.122970 0.680958 0.142196
H46   H     H_    0.435131 0.657489 0.683026 0.203397
H47   H     H_    0.894839 0.197399 0.857954 0.146209
H48   H     H_    0.509485 0.121856 0.806015 0.219908
H49   H     H_    0.042525 0.241420 0.776152 0.158850
H50   H     H_    0.917970 0.089590 0.600098 0.135917
O1    O     O_R   0.507340 0.255690 0.581430 -0.531670
O2    O     O_R   0.837290 0.593240 0.915240 -0.522305
O3    O     O_R   0.065320 0.635310 0.931580 -0.523157
O4    O     O_R   0.280360 0.527380 0.578910 -0.530329
O5    O     O_R   0.068470 0.828620 0.091850 -0.534522
O6    O     O_R   0.799150 0.057200 0.079350 -0.506895
O7    O     O_R   0.585220 0.080180 0.076770 -0.523870
O8    O     O_R   0.627170 0.809480 0.067050 -0.526563
O9    O     O_R   0.816200 0.596410 0.076500 -0.516408
O10   O     O_R   0.045770 0.638240 0.081070 -0.497256
O11   O     O_3   0.833840 0.833520 0.001110 -0.316292
O12   O     O_R   0.524510 0.695820 0.424050 -0.490584
O13   O     O_R   0.260600 0.739610 0.584580 -0.471351
O14   O     O_R   0.532370 0.695050 0.573830 -0.517779
O15   O     O_R   0.744850 0.503430 0.576380 -0.520760
O16   O     O_R   0.699080 0.276500 0.571950 -0.525795
O17   O     O_R   0.498860 0.256520 0.419860 -0.516100
O18   O     O_R   0.272490 0.528150 0.429140 -0.516401
O19   O     O_R   0.252110 0.740440 0.423010 -0.535009
O20   O     O_R   0.736370 0.504260 0.414810 -0.520689
O21   O     O_R   0.691220 0.277270 0.422180 -0.539774
O22   O     O_3   0.499990 0.499990 0.499980 -0.282549
O23   O     O_R   0.089570 0.825450 0.930590 -0.508910
O24   O     O_R   0.818700 0.054260 0.929860 -0.516813
O25   O     O_R   0.606310 0.077010 0.915520 -0.493185
O26   O     O_R   0.646730 0.806540 0.917560 -0.494538

loop_
_geom_bond_atom_site_label_1
_geom_bond_atom_site_label_2
_ccdc_geom_bond_type
C50   H21   S    
C23   C68   S    
C41   C42   A    
C1    C21   S    
C8    H50   S    
Cr5   O26   S    
C27   H9    S    
C19   C20   A    
C53   H22   S    
Cr1   O4    S    
C56   H12   S    
C62   O7    A    
C75   C76   A    
C34   C66   S    
Cr3   O22   S    
Cr6   O11   S    
C7    C8    A    
C53   C54   A    
C5    H47   S    
C20   H6    S    
C12   C23   S    
C26   C27   A    
C29   C30   A    
C14   C21   A    
C47   C65   S    
C36   C37   A    
C9    C16   S    
Cr1   O1    S    
C38   H15   S    
C10   C15   A    
C61   O23   A    
C43   H19   S    
C5    C6    A    
Cr2   O19   S    
Cr4   O24   S    
C74   H39   S    
C69   H37   S    
C46   C52   S    
C8    C76   A    
C49   C57   A    
C41   H16   S    
C18   C19   A    
C73   C74   S    
C24   C29   A    
C30   H10   S    
C59   C67   S    
C22   C63   S    
Cr2   O22   S    
Cr5   O8    S    
C11   C17   A    
C16   O1    A    
C56   C72   S    
C28   O19   A    
C18   F2    S    
C63   O8    A    
C44   H20   S    
C1    O13   A    
C70   C71   S    
C9    C76   A    
C66   H25   S    
C64   H1    S    
C71   H32   S    
Cr2   O12   S    
Cr1   O22   S    
C12   H29   S    
Cr1   O17   S    
C26   H7    S    
Cr3   O20   S    
C28   O18   A    
C36   C41   A    
C48   C53   A    
C14   F1    S    
C62   O6    A    
C34   C56   S    
Cr6   O10   S    
C72   H46   S    
C73   H43   S    
Cr4   O11   S    
C23   C60   S    
C4    C34   S    
C33   C40   S    
C2    H45   S    
C71   H31   S    
C54   H26   S    
C50   C58   A    
C47   C48   A    
C17   H3    S    
C24   C25   A    
C40   O12   A    
C61   O3    A    
Cr4   O23   S    
C57   H27   S    
C69   H38   S    
C50   C51   A    
C52   O17   A    
C49   C58   A    
C32   H14   S    
C35   C36   A    
C64   C66   S    
C66   H13   S    
C5    C75   A    
C35   C39   A    
C43   C44   A    
C55   F3    S    
C7    C69   S    
Cr6   O3    S    
C59   O25   A    
Cr1   O18   S    
C65   O5    A    
C59   O24   A    
C70   H36   S    
C26   C33   A    
C60   O26   A    
C74   H41   S    
C30   C31   A    
C45   C68   S    
C17   C18   A    
C13   C21   A    
C16   O16   A    
C34   C45   S    
C39   H17   S    
C12   C56   S    
C1    O4    A    
C45   H34   S    
C23   C64   S    
C51   H24   S    
Cr4   O6    S    
C22   C27   A    
C55   C57   A    
C29   H8    S    
C22   C24   A    
C6    H49   S    
C67   C75   A    
C42   C43   A    
Cr6   O9    S    
Cr2   O14   S    
Cr3   O15   S    
C52   O21   A    
C4    O15   A    
C54   C55   A    
C48   C49   A    
C13   C20   A    
C38   C39   A    
Cr5   O25   S    
C31   C32   A    
C3    C67   A    
C72   C73   S    
C42   H18   S    
Cr3   O21   S    
C47   C51   A    
C72   H44   S    
C6    C7    A    
C28   C58   S    
C73   H42   S    
C4    O14   A    
C71   H33   S    
C3    H48   S    
C37   C44   A    
C2    C3    A    
C37   C46   A    
Cr6   O2    S    
C15   H4    S    
C11   C13   A    
C70   H35   S    
Cr5   O11   S    
C74   H40   S    
C25   C32   A    
C64   H2    S    
C45   F4    S    
C35   C62   S    
C68   H23   S    
C31   H11   S    
C69   C70   S    
C38   C46   A    
C19   H5    S    
C10   C11   A    
C10   C61   S    
Cr5   O7    S    
Cr4   O5    S    
C68   H28   S    
C14   C15   A    
C40   O20   A    
C65   O10   A    
C2    C9    A    
C63   O9    A    
Cr2   O13   S    
C25   C33   A    
Cr3   O16   S    
C12   H30   S    
C60   O2    A    
