data_mof_unit_52800.cif
_audit_creation_date              2012-12-10T17:42:35-0500
_audit_creation_method            fapswitch 2.2
_symmetry_space_group_name_H-M    P1
_symmetry_Int_Tables_number       1
_space_group_crystal_system       triclinic
_cell_length_a                    9.937433
_cell_length_b                    10.621142
_cell_length_c                    13.108605
_cell_angle_alpha                 91.347173
_cell_angle_beta                  69.787645
_cell_angle_gamma                 89.983099
_cell_volume                      1297.9589096

loop_
_atom_site_label
_atom_site_type_symbol
_atom_type_description
_atom_site_fract_x
_atom_site_fract_y
_atom_site_fract_z
_atom_type_partial_charge
C1    C     C_R   0.501179 0.739232 0.497295 0.858775
C2    C     C_R   0.367937 0.491824 0.822352 -0.152086
C3    C     C_R   0.467101 0.863495 0.312591 -0.159314
C4    C     C_R   0.419996 0.495315 0.704019 0.854541
C5    C     C_R   0.449913 0.926746 0.225779 -0.121588
C6    C     C_R   0.450716 0.057801 0.225509 -0.130097
C7    C     C_R   0.468422 0.126008 0.312151 -0.189093
C8    C     C_R   0.484502 0.063240 0.401387 0.092494
C9    C     C_R   0.484046 0.931259 0.401551 0.100539
C10   C     C_R   0.504764 0.871367 0.490000 -0.085520
C11   C     C_R   0.530948 0.937839 0.573753 -0.211309
C12   C     C_R   0.432808 0.485427 0.984272 0.045764
C13   C     C_R   0.531091 0.066469 0.573691 -0.198653
C14   C     C_R   0.505203 0.128132 0.489821 -0.092511
C15   C     C_R   0.796946 0.665793 0.642547 -0.134565
C16   C     C_R   0.501416 0.260645 0.497085 0.857286
C17   C     C_R   0.835084 0.743864 0.714666 -0.184454
C18   C     C_R   0.973553 0.740617 0.716314 -0.176398
C19   C     C_R   0.075111 0.660093 0.645130 -0.161233
C20   C     C_R   0.040271 0.579505 0.571255 0.162852
C21   C     C_R   0.896162 0.580778 0.570565 0.176804
C22   C     C_R   0.959598 0.423426 0.432015 -0.104346
C23   C     C_R   0.457597 0.445205 0.876183 0.089413
C24   C     C_R   0.102624 0.423706 0.431826 -0.103954
C25   C     C_R   0.579997 0.498746 0.295943 0.844206
C26   C     C_R   0.763830 0.356294 0.019879 -0.183777
C27   C     C_R   0.628466 0.479807 0.179076 -0.039440
C28   C     C_R   0.238733 0.553372 0.881487 -0.235774
C29   C     C_R   0.203369 0.576842 0.992378 0.220156
C30   C     C_R   0.300616 0.546184 0.043261 -0.241972
C31   C     C_R   0.541075 0.462695 0.028952 0.092043
C32   C     C_R   0.660347 0.383745 0.972729 0.166563
C33   C     C_R   0.672626 0.331084 0.871661 -0.249913
C34   C     C_R   0.572613 0.361328 0.823831 -0.185933
C35   C     C_R   0.534509 0.517408 0.127968 -0.252959
C36   C     C_R   0.745958 0.401833 0.124362 -0.160748
H1    H     H_    0.818941 0.371229 0.164170 0.161024
H2    H     H_    0.002889 0.801470 0.772557 0.161188
H3    H     H_    0.179762 0.663402 0.650077 0.200955
H4    H     H_    0.760590 0.267715 0.828862 0.150523
H5    H     H_    0.181545 0.361212 0.376067 0.149643
H6    H     H_    0.854359 0.295049 0.978180 0.144803
H7    H     H_    0.452103 0.585217 0.170343 0.143179
H8    H     H_    0.167949 0.587517 0.841114 0.171746
H9    H     H_    0.268230 0.568028 0.129158 0.158151
H10   H     H_    0.585292 0.317050 0.745861 0.162891
H11   H     H_    0.548292 0.889853 0.640371 0.136347
H12   H     H_    0.469087 0.761786 0.308394 0.142613
H13   H     H_    0.437311 0.873851 0.158077 0.142794
H14   H     H_    0.438869 0.106795 0.157558 0.142844
H15   H     H_    0.471509 0.227529 0.307583 0.142217
H16   H     H_    0.548464 0.118284 0.640284 0.139386
H17   H     H_    0.931396 0.360789 0.376433 0.146430
H18   H     H_    0.689163 0.675906 0.645646 0.196465
H19   H     H_    0.756553 0.807639 0.769411 0.148155
I1    I     I_    0.008434 0.669136 0.081347 -0.425218
N1    N     N_R   0.856860 0.501200 0.500990 -0.118016
N2    N     N_R   0.142450 0.501280 0.501020 -0.119400
O1    O     O_R   0.385310 0.683220 0.500000 -0.635345
O2    O     O_R   0.614640 0.683250 0.500010 -0.619193
O3    O     O_R   0.328400 0.499950 0.653610 -0.626003
O4    O     O_R   0.557730 0.499970 0.653620 -0.631096
O5    O     O_R   0.385360 0.316750 0.499990 -0.610748
O6    O     O_R   0.614690 0.316780 0.500000 -0.617897
O7    O     O_R   0.442270 0.500030 0.346380 -0.626588
O8    O     O_R   0.671600 0.500050 0.346390 -0.592122
Zn1   Zn    Zn3+2 0.346880 0.499980 0.499990 0.929651
Zn2   Zn    Zn3+2 0.653120 0.500020 0.500010 0.944824

loop_
_geom_bond_atom_site_label_1
_geom_bond_atom_site_label_2
_ccdc_geom_bond_type
O8    Zn2   S    
C21   N1    A    
C6    C7    A    
C3    C9    A    
C16   O5    A    
C27   C36   A    
C25   C27   S    
C13   H16   S    
C35   H7    S    
C9    C10   A    
C17   H19   S    
C30   H9    S    
C11   H11   S    
C19   C20   A    
O4    Zn2   S    
C3    C5    A    
C23   C34   A    
C27   C35   A    
C32   C33   A    
C22   N1    A    
C17   C18   A    
C18   H2    S    
C7    H15   S    
C7    C8    A    
N2    Zn1   S    
C13   C14   A    
C6    H14   S    
C26   C32   A    
C24   H5    S    
C11   C13   A    
C12   C23   A    
C5    H13   S    
C29   C30   A    
C19   H3    S    
C34   H10   S    
C2    C4    S    
O6    Zn2   S    
C22   C24   A    
C26   C36   A    
C28   C29   A    
C29   I1    S    
C33   C34   A    
C22   H17   S    
C31   C35   A    
C1    O1    A    
C12   C31   A    
C5    C6    A    
O5    Zn1   S    
C33   H4    S    
C2    C28   A    
C10   C11   A    
C1    C10   S    
N1    Zn2   S    
C20   N2    A    
C15   H18   S    
C4    O4    A    
C3    H12   S    
C15   C21   A    
C25   O7    A    
C20   C21   A    
O2    Zn2   S    
C24   N2    A    
C18   C19   A    
C1    O2    A    
C2    C23   A    
C26   H6    S    
O3    Zn1   S    
C36   H1    S    
C8    C14   A    
C16   O6    A    
O1    Zn1   S    
C14   C16   S    
C15   C17   A    
C12   C30   A    
C4    O3    A    
C28   H8    S    
C25   O8    A    
C31   C32   A    
C8    C9    A    
O7    Zn1   S    
