data_mof_unit_9788.cif
_audit_creation_date              2013-03-05T15:47:19-0500
_audit_creation_method            fapswitch 2.2
_symmetry_space_group_name_H-M    P1
_symmetry_Int_Tables_number       1
_space_group_crystal_system       triclinic
_cell_length_a                    19.454941
_cell_length_b                    11.409147
_cell_length_c                    18.74006
_cell_angle_alpha                 90.000013
_cell_angle_beta                  90.136383
_cell_angle_gamma                 89.999989
_cell_volume                      4159.61217359

loop_
_atom_site_label
_atom_site_type_symbol
_atom_site_description
_atom_site_fract_x
_atom_site_fract_y
_atom_site_fract_z
_atom_type_partial_charge
O1    O     O_R   0.214130 0.708570 0.829890 -0.529027
O2    O     O_R   0.785870 0.708570 0.170110 -0.529028
O3    O     O_R   0.714130 0.208570 0.829890 -0.529028
O4    O     O_R   0.285870 0.208570 0.170110 -0.529028
O5    O     O_R   0.236050 0.959150 0.825270 -0.519639
O6    O     O_R   0.763950 0.959150 0.174730 -0.519639
O7    O     O_R   0.736050 0.459150 0.825270 -0.519639
O8    O     O_R   0.263950 0.459150 0.174730 -0.519639
C1    C     C_R   0.272842 0.041964 0.854504 0.532135
C2    C     C_R   0.727158 0.041964 0.145496 0.532134
C3    C     C_R   0.772842 0.541964 0.854504 0.532134
C4    C     C_R   0.227158 0.541964 0.145496 0.532134
O9    O     O_R   0.332100 0.076650 0.832310 -0.518814
O10   O     O_R   0.667900 0.076650 0.167690 -0.518813
O11   O     O_R   0.832100 0.576650 0.832310 -0.518814
O12   O     O_R   0.167900 0.576650 0.167690 -0.518813
O13   O     O_R   0.446500 0.918620 0.826240 -0.503037
O14   O     O_R   0.553500 0.918620 0.173760 -0.503038
O15   O     O_R   0.946500 0.418620 0.826240 -0.503037
O16   O     O_R   0.053500 0.418620 0.173760 -0.503038
C5    C     C_R   0.445219 0.817866 0.862112 0.519672
C6    C     C_R   0.554781 0.817866 0.137887 0.519672
C7    C     C_R   0.945219 0.317866 0.862112 0.519672
C8    C     C_R   0.054781 0.317866 0.137887 0.519672
O17   O     O_R   0.457310 0.715830 0.831280 -0.530275
O18   O     O_R   0.542690 0.715830 0.168720 -0.530275
O19   O     O_R   0.957310 0.215830 0.831280 -0.530275
O20   O     O_R   0.042690 0.215830 0.168720 -0.530275
O21   O     O_R   0.321000 0.623520 0.824130 -0.516989
O22   O     O_R   0.679000 0.623520 0.175870 -0.516989
O23   O     O_R   0.821000 0.123520 0.824130 -0.516990
O24   O     O_R   0.179000 0.123520 0.175870 -0.516989
C9    C     C_R   0.261487 0.638344 0.853940 0.535616
C10   C     C_R   0.738513 0.638344 0.146060 0.535616
C11   C     C_R   0.761487 0.138344 0.853940 0.535616
C12   C     C_R   0.238513 0.138344 0.146060 0.535615
O25   O     O_R   0.213990 0.710040 0.667000 -0.534583
O26   O     O_R   0.786010 0.710040 0.333000 -0.534583
O27   O     O_R   0.713990 0.210040 0.667000 -0.534583
O28   O     O_R   0.286010 0.210040 0.333000 -0.534583
O29   O     O_R   0.235920 0.960520 0.674260 -0.520289
O30   O     O_R   0.764080 0.960520 0.325740 -0.520289
O31   O     O_R   0.735920 0.460520 0.674260 -0.520290
O32   O     O_R   0.264080 0.460520 0.325740 -0.520289
C13   C     C_R   0.272118 0.047565 0.647819 0.565497
C14   C     C_R   0.727882 0.047566 0.352181 0.565497
C15   C     C_R   0.772118 0.547566 0.647819 0.565497
C16   C     C_R   0.227882 0.547566 0.352181 0.565497
O33   O     O_R   0.331960 0.078120 0.669410 -0.461051
O34   O     O_R   0.668040 0.078120 0.330590 -0.461052
O35   O     O_R   0.831960 0.578120 0.669410 -0.461052
O36   O     O_R   0.168040 0.578120 0.330590 -0.461052
O37   O     O_R   0.446360 0.919990 0.675230 -0.507123
O38   O     O_R   0.553640 0.919990 0.324770 -0.507123
O39   O     O_R   0.946360 0.419990 0.675230 -0.507123
O40   O     O_R   0.053640 0.419990 0.324770 -0.507123
C17   C     C_R   0.468002 0.822263 0.645258 0.534192
C18   C     C_R   0.531998 0.822263 0.354741 0.534192
C19   C     C_R   0.968002 0.322263 0.645258 0.534192
C20   C     C_R   0.031998 0.322263 0.354742 0.534192
O41   O     O_R   0.457170 0.717300 0.668380 -0.519685
O42   O     O_R   0.542830 0.717300 0.331620 -0.519685
O43   O     O_R   0.957170 0.217300 0.668380 -0.519685
O44   O     O_R   0.042830 0.217300 0.331620 -0.519685
O45   O     O_R   0.320870 0.624890 0.673130 -0.480566
O46   O     O_R   0.679130 0.624890 0.326870 -0.480565
O47   O     O_R   0.820870 0.124890 0.673130 -0.480566
O48   O     O_R   0.179130 0.124890 0.326870 -0.480565
C21   C     C_R   0.260856 0.643127 0.642733 0.547334
C22   C     C_R   0.739144 0.643127 0.357267 0.547334
C23   C     C_R   0.760856 0.143127 0.642733 0.547334
C24   C     C_R   0.239144 0.143127 0.357267 0.547334
Cr1   Cr    Cr6+3 0.229620 0.836040 0.749110 1.001178
Cr2   Cr    Cr6+3 0.770380 0.836040 0.250890 1.001178
Cr3   Cr    Cr6+3 0.729620 0.336040 0.749110 1.001177
Cr4   Cr    Cr6+3 0.270380 0.336040 0.250890 1.001178
Cr5   Cr    Cr6+3 0.387630 0.990680 0.750730 1.046893
Cr6   Cr    Cr6+3 0.612370 0.990680 0.249270 1.046892
Cr7   Cr    Cr6+3 0.887630 0.490680 0.750730 1.046892
Cr8   Cr    Cr6+3 0.112370 0.490680 0.249270 1.046892
Cr9   Cr    Cr6+3 0.386020 0.676590 0.749210 1.029291
Cr10  Cr    Cr6+3 0.613980 0.676590 0.250790 1.029291
Cr11  Cr    Cr6+3 0.886020 0.176590 0.749210 1.029291
Cr12  Cr    Cr6+3 0.113980 0.176590 0.250790 1.029291
O49   O     O_3   0.334430 0.834430 0.749680 -0.302884
O50   O     O_3   0.665570 0.834430 0.250320 -0.302884
O51   O     O_3   0.834430 0.334430 0.749680 -0.302884
O52   O     O_3   0.165570 0.334430 0.250320 -0.302884
C25   C     C_3   0.480008 0.919312 0.035841 -0.106833
C26   C     C_3   0.519992 0.919312 0.964159 -0.106833
C27   C     C_3   0.980008 0.419312 0.035841 -0.106833
C28   C     C_3   0.019992 0.419312 0.964159 -0.106833
C29   C     C_3   0.431868 0.822872 0.006939 -0.165001
C30   C     C_3   0.568132 0.822872 0.993061 -0.165001
C31   C     C_3   0.931868 0.322872 0.006939 -0.165001
C32   C     C_3   0.068132 0.322872 0.993061 -0.165001
H1    H     H_    0.378053 0.810325 0.021194 0.095146
H2    H     H_    0.621947 0.810324 0.978806 0.095146
H3    H     H_    0.878053 0.310325 0.021194 0.095146
H4    H     H_    0.121948 0.310324 0.978806 0.095146
H5    H     H_    0.465204 0.999087 0.065798 0.118297
H6    H     H_    0.534796 0.999087 0.934201 0.118297
H7    H     H_    0.965204 0.499087 0.065798 0.118297
H8    H     H_    0.034796 0.499087 0.934201 0.118297
C33   C     C_3   0.472111 0.823657 0.936073 0.042381
C34   C     C_3   0.527889 0.823657 0.063927 0.042381
C35   C     C_3   0.972111 0.323657 0.936073 0.042381
C36   C     C_3   0.027889 0.323657 0.063927 0.042381
C37   C     C_3   0.519730 0.727884 0.964574 -0.082305
C38   C     C_3   0.480270 0.727884 0.035426 -0.082306
C39   C     C_3   0.019730 0.227884 0.964574 -0.082305
C40   C     C_3   0.980270 0.227884 0.035426 -0.082306
H9    H     H_    0.535740 0.647757 0.935505 0.156329
H10   H     H_    0.464260 0.647757 0.064494 0.156329
H11   H     H_    0.035740 0.147757 0.935505 0.156329
H12   H     H_    0.964260 0.147757 0.064494 0.156329
C41   C     C_3   0.309412 0.517687 0.043511 -0.174109
C42   C     C_3   0.690588 0.517686 0.956489 -0.174110
C43   C     C_3   0.809412 0.017687 0.043511 -0.174109
C44   C     C_3   0.190588 0.017687 0.956489 -0.174110
H13   H     H_    0.316221 0.427458 0.061186 0.121710
H14   H     H_    0.683780 0.427458 0.938813 0.121710
H15   H     H_    0.816220 0.927458 0.061186 0.121710
H16   H     H_    0.183780 0.927458 0.938813 0.121710
H17   H     H_    0.352464 0.565451 0.069748 0.142075
H18   H     H_    0.647536 0.565451 0.930252 0.142075
H19   H     H_    0.852464 0.065451 0.069748 0.142075
H20   H     H_    0.147536 0.065451 0.930252 0.142075
C45   C     C_3   0.315373 0.525048 0.961871 -0.023373
C46   C     C_3   0.684627 0.525048 0.038129 -0.023373
C47   C     C_3   0.815373 0.025048 0.961871 -0.023373
C48   C     C_3   0.184627 0.025048 0.038129 -0.023373
H21   H     H_    0.309680 0.435296 0.940163 0.129537
H22   H     H_    0.690320 0.435295 0.059837 0.129537
H23   H     H_    0.809680 0.935296 0.940163 0.129537
H24   H     H_    0.190320 0.935295 0.059837 0.129537
H25   H     H_    0.665075 0.938211 0.044812 0.102864
H26   H     H_    0.334925 0.938211 0.955187 0.102864
H27   H     H_    0.165075 0.438211 0.044812 0.102864
H28   H     H_    0.834925 0.438211 0.955187 0.102864
H29   H     H_    0.692993 0.943433 0.920656 0.104405
H30   H     H_    0.307007 0.943433 0.079344 0.104405
H31   H     H_    0.192993 0.443433 0.920656 0.104405
H32   H     H_    0.807007 0.443433 0.079344 0.104405
C49   C     C_3   0.177663 0.525183 0.025936 -0.223065
C50   C     C_3   0.822337 0.525183 0.974064 -0.223064
C51   C     C_3   0.677663 0.025183 0.025936 -0.223065
C52   C     C_3   0.322337 0.025183 0.974064 -0.223064
C53   C     C_3   0.244969 0.701460 0.055957 -0.259911
C54   C     C_3   0.755031 0.701460 0.944043 -0.259911
C55   C     C_3   0.744969 0.201460 0.055957 -0.259911
C56   C     C_3   0.255031 0.201460 0.944043 -0.259911
C57   C     C_3   0.240699 0.570601 0.069636 0.036513
C58   C     C_3   0.759301 0.570601 0.930364 0.036514
C59   C     C_3   0.740699 0.070601 0.069636 0.036513
C60   C     C_3   0.259300 0.070601 0.930364 0.036513
H33   H     H_    0.199176 0.745593 0.078883 0.131009
H34   H     H_    0.800824 0.745593 0.921117 0.131010
H35   H     H_    0.699176 0.245593 0.078883 0.131009
H36   H     H_    0.300824 0.245593 0.921117 0.131010
H37   H     H_    0.290750 0.739381 0.082585 0.105594
H38   H     H_    0.709250 0.739381 0.917415 0.105594
H39   H     H_    0.790750 0.239381 0.082585 0.105594
H40   H     H_    0.209250 0.239381 0.917415 0.105594
C61   C     C_3   0.254870 0.602694 0.931084 0.062918
C62   C     C_3   0.745130 0.602694 0.068916 0.062918
C63   C     C_3   0.754870 0.102694 0.931084 0.062918
C64   C     C_3   0.245130 0.102694 0.068916 0.062918
C65   C     C_3   0.188959 0.532101 0.944431 -0.271131
C66   C     C_3   0.811041 0.532101 0.055569 -0.271131
C67   C     C_3   0.688959 0.032101 0.944431 -0.271131
C68   C     C_3   0.311041 0.032101 0.055569 -0.271131
C69   C     C_3   0.246729 0.718789 0.974403 -0.221854
C70   C     C_3   0.753271 0.718789 0.025597 -0.221854
C71   C     C_3   0.746729 0.218789 0.974403 -0.221854
C72   C     C_3   0.253271 0.218789 0.025597 -0.221854
H41   H     H_    0.286285 0.780569 0.958536 0.096329
H42   H     H_    0.713715 0.780569 0.041464 0.096328
H43   H     H_    0.786285 0.280569 0.958536 0.096328
H44   H     H_    0.213715 0.280569 0.041464 0.096328
H45   H     H_    0.195989 0.754717 0.959879 0.133802
H46   H     H_    0.804011 0.754718 0.040121 0.133803
H47   H     H_    0.695989 0.254717 0.959879 0.133802
H48   H     H_    0.304011 0.254717 0.040121 0.133803
H49   H     H_    0.631305 0.078559 0.038669 0.146710
H50   H     H_    0.368695 0.078559 0.961331 0.146710
H51   H     H_    0.131305 0.578559 0.038669 0.146710
H52   H     H_    0.868695 0.578559 0.961331 0.146710
H53   H     H_    0.144133 0.575684 0.918855 0.132772
H54   H     H_    0.855867 0.575684 0.081145 0.132773
H55   H     H_    0.644133 0.075684 0.918855 0.132773
H56   H     H_    0.355867 0.075684 0.081145 0.132773
C73   C     C_3   0.504605 0.698005 0.460295 -0.215106
C74   C     C_3   0.495395 0.698005 0.539705 -0.215106
C75   C     C_3   0.004605 0.198005 0.460295 -0.215106
C76   C     C_3   0.995395 0.198005 0.539705 -0.215107
H57   H     H_    0.548386 0.642984 0.446756 0.156221
H58   H     H_    0.451614 0.642984 0.553244 0.156221
H59   H     H_    0.048386 0.142984 0.446756 0.156221
H60   H     H_    0.951614 0.142984 0.553244 0.156221
H61   H     H_    0.460431 0.652581 0.434833 0.130095
H62   H     H_    0.539568 0.652581 0.565167 0.130095
H63   H     H_    0.960431 0.152581 0.434833 0.130095
H64   H     H_    0.039568 0.152581 0.565167 0.130096
H65   H     H_    0.615745 0.894487 0.454035 0.097160
H66   H     H_    0.384255 0.894487 0.545964 0.097161
H67   H     H_    0.115744 0.394487 0.454036 0.097161
H68   H     H_    0.884255 0.394487 0.545964 0.097161
H69   H     H_    0.600444 0.824674 0.576039 0.109310
H70   H     H_    0.399556 0.824674 0.423961 0.109310
H71   H     H_    0.100444 0.324674 0.576039 0.109310
H72   H     H_    0.899556 0.324674 0.423961 0.109310
C77   C     C_3   0.564032 0.900501 0.474175 -0.216348
C78   C     C_3   0.435968 0.900501 0.525825 -0.216349
C79   C     C_3   0.064032 0.400501 0.474175 -0.216349
C80   C     C_3   0.935968 0.400501 0.525825 -0.216349
C81   C     C_3   0.441460 0.880520 0.444303 -0.265129
C82   C     C_3   0.558540 0.880520 0.555697 -0.265129
C83   C     C_3   0.941460 0.380520 0.444303 -0.265129
C84   C     C_3   0.058540 0.380520 0.555697 -0.265128
C85   C     C_3   0.511138 0.825198 0.431025 0.043965
C86   C     C_3   0.488862 0.825198 0.568975 0.043965
C87   C     C_3   0.011138 0.325198 0.431025 0.043965
C88   C     C_3   0.988862 0.325198 0.568975 0.043965
H73   H     H_    0.439540 0.963566 0.414994 0.152891
H74   H     H_    0.560460 0.963566 0.585006 0.152891
H75   H     H_    0.939540 0.463566 0.414994 0.152890
H76   H     H_    0.060460 0.463566 0.585007 0.152891
H77   H     H_    0.451379 0.992510 0.535203 0.158172
H78   H     H_    0.548621 0.992510 0.464797 0.158171
H79   H     H_    0.951379 0.492510 0.535203 0.158171
H80   H     H_    0.048621 0.492510 0.464797 0.158171
C89   C     C_3   0.175036 0.651394 0.456920 0.150839
C90   C     C_3   0.824963 0.651393 0.543080 0.150839
C91   C     C_3   0.675036 0.151393 0.456920 0.150839
C92   C     C_3   0.324963 0.151393 0.543080 0.150839
H81   H     H_    0.132520 0.591336 0.451372 0.156229
H82   H     H_    0.867480 0.591335 0.548628 0.156230
H83   H     H_    0.632520 0.091336 0.451372 0.156229
H84   H     H_    0.367480 0.091335 0.548628 0.156230
C93   C     C_3   0.183770 0.677090 0.535737 0.003963
C94   C     C_3   0.816230 0.677090 0.464263 0.003962
C95   C     C_3   0.683770 0.177090 0.535737 0.003962
C96   C     C_3   0.316230 0.177090 0.464263 0.003961
H85   H     H_    0.192373 0.769654 0.542082 0.162559
H86   H     H_    0.807627 0.769654 0.457918 0.162557
H87   H     H_    0.692373 0.269654 0.542082 0.162558
H88   H     H_    0.307627 0.269654 0.457919 0.162556
H89   H     H_    0.720858 0.895366 0.450108 0.103815
H90   H     H_    0.279141 0.895365 0.549892 0.103815
H91   H     H_    0.220858 0.395366 0.450108 0.103816
H92   H     H_    0.779141 0.395366 0.549892 0.103815
H93   H     H_    0.692553 0.951540 0.569448 0.126103
H94   H     H_    0.307448 0.951541 0.430552 0.126103
H95   H     H_    0.192553 0.451540 0.569448 0.126104
H96   H     H_    0.807448 0.451540 0.430552 0.126103
C97   C     C_3   0.251178 0.468500 0.469917 -0.273878
C98   C     C_3   0.748822 0.468500 0.530083 -0.273878
C99   C     C_3   0.751178 0.968500 0.469917 -0.273879
C100  C     C_3   0.248822 0.968500 0.530083 -0.273878
C101  C     C_3   0.302121 0.660870 0.441461 -0.280196
C102  C     C_3   0.697879 0.660869 0.558539 -0.280196
C103  C     C_3   0.802121 0.160869 0.441461 -0.280196
C104  C     C_3   0.197879 0.160869 0.558539 -0.280196
C105  C     C_3   0.239515 0.583914 0.427167 0.023936
C106  C     C_3   0.760485 0.583914 0.572833 0.023936
C107  C     C_3   0.739515 0.083914 0.427167 0.023936
C108  C     C_3   0.260485 0.083914 0.572833 0.023936
H97   H     H_    0.347409 0.626790 0.412143 0.120545
H98   H     H_    0.652590 0.626789 0.587857 0.120545
H99   H     H_    0.847409 0.126789 0.412143 0.120545
H100  H     H_    0.152590 0.126789 0.587857 0.120545
H101  H     H_    0.292516 0.751467 0.423405 0.155280
H102  H     H_    0.707484 0.751467 0.576595 0.155280
H103  H     H_    0.792516 0.251467 0.423405 0.155280
H104  H     H_    0.207484 0.251467 0.576595 0.155281
C109  C     C_3   0.250042 0.615137 0.565689 0.020295
C110  C     C_3   0.749958 0.615137 0.434311 0.020296
C111  C     C_3   0.750042 0.115137 0.565689 0.020295
C112  C     C_3   0.249958 0.115137 0.434311 0.020296
C113  C     C_3   0.242307 0.485815 0.550536 -0.276064
C114  C     C_3   0.757694 0.485815 0.449464 -0.276065
C115  C     C_3   0.742306 0.985815 0.550536 -0.276065
C116  C     C_3   0.257694 0.985815 0.449464 -0.276065
C117  C     C_3   0.314725 0.657393 0.523192 -0.269612
C118  C     C_3   0.685275 0.657393 0.476807 -0.269612
C119  C     C_3   0.814725 0.157393 0.523192 -0.269612
C120  C     C_3   0.185275 0.157393 0.476807 -0.269612
H105  H     H_    0.334733 0.738830 0.543655 0.112311
H106  H     H_    0.665267 0.738829 0.456345 0.112310
H107  H     H_    0.834733 0.238829 0.543655 0.112310
H108  H     H_    0.165267 0.238829 0.456345 0.112310
H109  H     H_    0.354757 0.590752 0.532528 0.159333
H110  H     H_    0.645243 0.590751 0.467472 0.159336
H111  H     H_    0.854757 0.090751 0.532528 0.159335
H112  H     H_    0.145243 0.090751 0.467472 0.159336
H113  H     H_    0.305775 0.445279 0.460587 0.161181
H114  H     H_    0.694225 0.445279 0.539412 0.161184
H115  H     H_    0.805775 0.945279 0.460587 0.161182
H116  H     H_    0.194225 0.945279 0.539412 0.161185
H117  H     H_    0.283613 0.441604 0.578536 0.224056
H118  H     H_    0.716388 0.441603 0.421463 0.224057
H119  H     H_    0.783612 0.941604 0.578536 0.224057
H120  H     H_    0.216389 0.941603 0.421463 0.224058
N1    N     N_R   0.153949 0.757971 0.417699 0.041847
O53   O     O_R   0.181548 0.787454 0.356953 -0.362786
O54   O     O_R   0.099074 0.813718 0.438275 -0.359370
N2    N     N_R   0.846051 0.757971 0.582301 0.041847
O55   O     O_R   0.818450 0.787454 0.643047 -0.362788
O56   O     O_R   0.900928 0.813714 0.561727 -0.359365
N3    N     N_R   0.653949 0.257971 0.417699 0.041848
O57   O     O_R   0.681549 0.287454 0.356953 -0.362787
O58   O     O_R   0.599074 0.313717 0.438274 -0.359368
N4    N     N_R   0.346051 0.257970 0.582301 0.041847
O59   O     O_R   0.318450 0.287454 0.643046 -0.362789
O60   O     O_R   0.400929 0.313711 0.561729 -0.359363
N5    N     N_3   0.119090 0.647721 0.572484 -0.654393
H121  H     H_    0.126697 0.602483 0.620183 0.249452
H122  H     H_    0.092138 0.724647 0.584344 0.279245
N6    N     N_3   0.880910 0.647723 0.427516 -0.654391
H123  H     H_    0.873303 0.602484 0.379817 0.249451
H124  H     H_    0.907861 0.724649 0.415656 0.279244
N7    N     N_3   0.619090 0.147722 0.572484 -0.654389
H125  H     H_    0.626697 0.102482 0.620183 0.249451
H126  H     H_    0.592139 0.224649 0.584345 0.279245
N8    N     N_3   0.380910 0.147723 0.427516 -0.654393
H127  H     H_    0.373304 0.102484 0.379817 0.249452
H128  H     H_    0.407862 0.224648 0.415657 0.279244
N9    N     N_3   0.384585 0.564670 0.944584 -0.649483
H129  H     H_    0.382326 0.653310 0.933649 0.259818
H130  H     H_    0.402917 0.520336 0.899639 0.265086
N10   N     N_3   0.615414 0.564670 0.055416 -0.649483
H131  H     H_    0.617674 0.653310 0.066351 0.259818
H132  H     H_    0.597083 0.520336 0.100361 0.265086
N11   N     N_3   0.884585 0.064670 0.944584 -0.649483
H133  H     H_    0.882326 0.153310 0.933649 0.259818
H134  H     H_    0.902917 0.020336 0.899639 0.265086
N12   N     N_3   0.115415 0.064670 0.055416 -0.649483
H135  H     H_    0.117674 0.153310 0.066351 0.259818
H136  H     H_    0.097083 0.020336 0.100362 0.265085

loop_
_geom_bond_atom_site_label_1
_geom_bond_atom_site_label_2
_geom_bond_distance
_ccdc_geom_bond_type
O4    C12   1.300749 A    
O25   C21   1.273950 A    
C80   C83   1.548586 S    
Cr7   O51   2.061425 S    
H92   C98   1.086710 S    
C103  C107  1.524663 S    
H71   C84   1.102015 S    
C93   H85   1.075801 S    
O39   C19   1.317978 A    
C31   H3    1.090565 S    
C75   H63   1.110338 S    
C52   H50   1.114552 S    
O21   C9    1.297805 A    
C12   C64   1.507617 S    
C73   H61   1.110339 S    
C89   H81   1.078930 S    
O44   Cr12  2.106246 S    
C78   C86   1.564280 S    
C3    C58   1.482887 S    
C3    O11   1.288786 A    
C56   C60   1.517148 S    
C1    C60   1.482888 S    
C14   C107  1.482028 S    
C25   C34   1.527562 S    
N8    H127  1.042451 S    
C55   C59   1.517148 S    
C76   H64   1.110338 S    
C51   C59   1.561523 S    
C111  C115  1.509980 S    
C29   C38   1.530952 S    
C74   C86   1.556678 S    
O2    C10   1.300749 A    
C32   C36   1.543277 S    
O17   Cr9   2.116442 S    
C46   H22   1.107310 S    
C100  C116  1.533815 S    
C101  C117  1.551080 S    
C61   C65   1.535266 S    
C102  H102  1.103415 S    
C116  H120  1.083296 S    
C62   C70   1.561773 S    
C103  C119  1.551082 S    
O16   Cr8   1.995582 S    
N7    H125  1.042452 S    
C97   C105  1.557677 S    
C95   C111  1.572763 S    
N11   H134  1.045895 S    
C63   C67   1.535267 S    
N4    O59   1.303951 A    
O13   C5    1.331921 A    
O28   Cr4   2.127097 S    
O12   Cr8   2.115254 S    
O22   Cr10  1.986559 S    
O15   C7    1.331921 A    
C80   C88   1.564280 S    
O46   Cr10  1.994643 S    
C50   C58   1.561521 S    
O48   C24   1.314470 A    
C7    C35   1.481782 S    
C91   C95   1.515012 S    
C76   C88   1.556679 S    
C45   H21   1.107310 S    
C41   C57   1.547347 S    
C94   C110  1.572763 S    
O31   Cr3   2.000098 S    
C71   H47   1.102394 S    
C72   H48   1.102392 S    
C25   H5    1.107835 S    
O36   Cr8   2.117260 S    
Cr12  O52   2.061660 S    
C26   C33   1.527562 S    
C89   N1    1.478393 S    
O7    Cr3   2.006156 S    
C17   O41   1.291004 A    
C43   H15   1.089396 S    
C30   C37   1.530952 S    
C19   O43   1.291003 A    
C22   C110  1.493101 S    
C20   O44   1.291004 A    
Cr8   O52   2.061424 S    
C79   C84   1.548587 S    
O46   C22   1.314470 A    
C16   C105  1.482028 S    
C119  H111  1.102100 S    
C120  H112  1.102100 S    
C19   C88   1.487345 S    
C28   H8    1.107835 S    
C75   C76   1.499313 S    
C16   O36   1.280006 A    
C73   C74   1.499312 S    
O27   C23   1.273951 A    
C24   C112  1.493099 S    
C78   H77   1.105656 S    
O31   C15   1.315063 A    
C82   H74   1.095767 S    
H93   C115  1.103226 S    
C55   H35   1.110686 S    
H94   C116  1.103226 S    
O47   Cr11  1.994643 S    
C39   C40   1.535316 S    
C65   H53   1.111553 S    
C70   H46   1.102392 S    
C68   H56   1.111552 S    
C99   H115  1.108986 S    
C104  H104  1.103414 S    
O24   C12   1.297806 A    
O30   C14   1.315063 A    
C117  H105  1.077558 S    
H29   C67   1.108241 S    
C118  H110  1.102099 S    
C42   H14   1.089395 S    
O32   Cr4   2.000096 S    
C26   H6    1.107835 S    
C53   C57   1.517148 S    
O11   Cr7   2.115258 S    
H26   C52   1.081729 S    
N1    O54   1.301890 A    
C43   C47   1.536889 S    
O27   Cr3   2.127097 S    
C100  C108  1.557677 S    
C41   C45   1.536889 S    
C38   H10   1.109188 S    
C101  H97   1.109807 S    
C48   H24   1.107310 S    
C103  H99   1.109808 S    
Cr5   O49   2.061425 S    
C97   C113  1.533815 S    
N9    H130  1.045895 S    
C90   N2    1.478392 S    
C18   C85   1.487344 S    
N2    O56   1.301892 A    
C75   H59   1.088560 S    
C91   C107  1.574967 S    
C32   C39   1.530952 S    
O22   C10   1.297806 A    
C79   H80   1.105657 S    
C104  C120  1.551079 S    
C4    O12   1.288786 A    
N10   H131  1.032779 S    
C2    O10   1.288786 A    
C27   C28   1.553896 S    
C114  H118  1.083295 S    
C109  C117  1.566843 S    
C23   C111  1.493101 S    
N11   H133  1.032779 S    
N7    H126  1.046504 S    
C111  C119  1.566842 S    
O5    C1    1.305119 A    
O3    C11   1.300749 A    
O8    C4    1.305120 A    
H95   C113  1.103227 S    
Cr1   O49   2.039160 S    
C90   C94   1.515012 S    
Cr3   O51   2.039160 S    
C102  C118  1.551082 S    
C62   C66   1.535267 S    
C103  H103  1.103414 S    
N3    O58   1.301890 A    
C98   C106  1.557677 S    
C20   C87   1.487343 S    
C29   H1    1.090565 S    
C40   H12   1.109188 S    
C63   C71   1.561772 S    
O26   Cr2   2.127097 S    
C89   C93   1.515012 S    
C64   C72   1.561773 S    
C5    O17   1.321009 A    
O29   C13   1.315063 A    
O28   C24   1.273948 A    
O14   C6    1.331920 A    
C35   C39   1.528124 S    
C9    C61   1.507619 S    
C8    O20   1.321009 A    
C2    C59   1.482888 S    
C77   C82   1.548588 S    
N12   H136  1.045895 S    
O40   Cr8   1.991368 S    
O41   Cr9   2.106244 S    
H66   C78   1.077560 S    
C74   H58   1.088560 S    
C32   H4    1.090565 S    
O33   Cr5   2.117260 S    
C42   C58   1.547349 S    
O5    Cr1   2.006156 S    
O35   Cr7   2.117260 S    
H65   C77   1.077562 S    
O32   C16   1.315064 A    
C72   H44   1.085602 S    
O40   C20   1.317979 A    
C104  H100  1.109808 S    
N8    H128  1.046501 S    
C41   H17   1.112801 S    
Cr9   O49   2.061660 S    
C81   H73   1.095767 S    
C43   H19   1.112801 S    
C18   O42   1.291004 A    
Cr11  O51   2.061660 S    
O26   C22   1.273948 A    
O20   Cr12  2.116440 S    
C96   N8    1.474464 S    
C94   H86   1.075799 S    
H70   C81   1.102015 S    
C49   H51   1.114551 S    
C120  H108  1.077558 S    
C50   H52   1.114552 S    
C31   C40   1.530952 S    
O38   C18   1.317979 A    
C30   H2    1.090565 S    
N4    O60   1.301892 A    
C74   H62   1.110339 S    
H32   C66   1.108242 S    
C44   C60   1.547347 S    
C80   H79   1.105657 S    
C1    O9    1.288786 A    
C84   H76   1.095767 S    
C90   H82   1.078931 S    
N5    H122  1.046503 S    
C95   N7    1.474465 S    
C33   C37   1.528124 S    
C77   C85   1.564277 S    
C30   C34   1.543277 S    
C66   H54   1.111552 S    
C26   C30   1.542321 S    
C8    C36   1.481782 S    
C70   H42   1.085602 S    
C89   C105  1.574966 S    
C73   C85   1.556679 S    
O42   Cr10  2.106246 S    
C69   H45   1.102394 S    
O18   Cr10  2.116440 S    
C81   C85   1.516413 S    
C54   H38   1.107868 S    
O34   Cr6   2.117260 S    
O6    Cr2   2.006156 S    
C17   C86   1.487345 S    
O24   Cr12  1.986559 S    
C49   C65   1.545677 S    
O30   Cr2   2.000096 S    
C55   C71   1.541527 S    
C118  H106  1.077558 S    
O48   Cr12  1.994643 S    
C48   C64   1.581117 S    
H28   C50   1.081728 S    
O37   C17   1.317978 A    
C15   O35   1.280008 A    
Cr10  O50   2.061660 S    
C36   C40   1.528124 S    
O43   Cr11  2.106244 S    
N6    H124  1.046504 S    
O37   Cr5   1.991365 S    
C112  C120  1.566842 S    
C101  C105  1.524663 S    
C42   C46   1.536889 S    
C102  H98   1.109808 S    
O39   Cr7   1.991365 S    
O13   Cr5   1.995582 S    
C46   C62   1.581117 S    
O45   Cr9   1.994643 S    
C13   O33   1.280008 A    
H67   C79   1.077559 S    
C67   H55   1.111553 S    
C98   C114  1.533816 S    
O15   Cr7   1.995582 S    
C31   C35   1.543277 S    
C97   H113  1.108988 S    
C95   H87   1.075800 S    
O23   C11   1.297805 A    
C53   H37   1.107869 S    
C109  C113  1.509979 S    
C110  C118  1.566842 S    
C91   H83   1.078930 S    
C27   C36   1.527562 S    
H25   C51   1.081727 S    
O6    C2    1.305120 A    
C44   H20   1.112799 S    
H72   C83   1.102015 S    
C93   N5    1.474465 S    
C54   H34   1.110685 S    
C45   C61   1.581116 S    
O1    Cr1   2.121249 S    
O19   Cr11  2.116442 S    
C37   C38   1.535316 S    
H91   C97   1.086710 S    
O45   C21   1.314470 A    
O47   C23   1.314470 A    
C99   C107  1.557677 S    
C83   C87   1.516412 S    
C96   H88   1.075800 S    
C64   C68   1.535267 S    
N1    O53   1.303950 A    
C6    O18   1.321009 A    
H96   C114  1.103228 S    
C92   C108  1.574965 S    
C52   C60   1.561523 S    
C83   H75   1.095767 S    
C25   C26   1.553896 S    
C10   C62   1.507617 S    
C53   H33   1.110686 S    
C5    C33   1.481782 S    
C77   H78   1.105656 S    
C91   N3    1.478393 S    
O38   Cr6   1.991368 S    
N3    O57   1.303949 A    
C56   H36   1.110686 S    
N9    H129  1.032778 S    
C28   C32   1.542321 S    
C4    C57   1.482888 S    
C76   H60   1.088558 S    
C45   N9    1.457564 S    
O1    C9    1.300749 A    
C51   H49   1.114551 S    
O7    C3    1.305119 A    
H69   C82   1.102014 S    
N10   H132  1.045894 S    
C47   H23   1.107310 S    
C90   C106  1.574966 S    
C101  H101  1.103415 S    
C61   C69   1.561772 S    
C96   C112  1.572765 S    
O23   Cr11  1.986562 S    
C41   H13   1.089396 S    
C29   C33   1.543277 S    
C13   C108  1.482027 S    
O16   C8    1.331920 A    
C11   C63   1.507619 S    
C7    O19   1.321009 A    
C27   H7    1.107835 S    
Cr4   O52   2.039156 S    
O2    Cr2   2.121250 S    
C37   H9    1.109188 S    
C47   N11   1.457565 S    
Cr6   O50   2.061424 S    
H68   C80   1.077559 S    
C25   C29   1.542321 S    
H89   C99   1.086710 S    
H90   C100  1.086709 S    
C51   C67   1.545677 S    
C82   C86   1.516412 S    
O9    Cr5   2.115258 S    
C94   N6    1.474465 S    
C93   C109  1.572763 S    
H31   C65   1.108242 S    
C71   H43   1.085603 S    
C100  H116  1.108987 S    
C6    C34   1.481782 S    
O29   Cr1   2.000098 S    
C92   H84   1.078931 S    
C28   C35   1.527562 S    
C69   H41   1.085602 S    
C104  C108  1.524665 S    
C21   C109  1.493103 S    
C46   N10   1.457564 S    
Cr2   O50   2.039156 S    
C56   H40   1.107868 S    
C15   C106  1.482030 S    
C92   N4    1.478392 S    
O14   Cr6   1.995582 S    
C54   C70   1.541529 S    
O21   Cr9   1.986562 S    
C55   H39   1.107869 S    
C50   C66   1.545677 S    
O8    Cr4   2.006156 S    
C110  C114  1.509980 S    
C119  H107  1.077557 S    
C113  H117  1.083296 S    
C84   C88   1.516411 S    
O3    Cr3   2.121249 S    
N2    O55   1.303951 A    
H30   C68   1.108242 S    
C34   C38   1.528124 S    
C115  H119  1.083296 S    
O25   Cr1   2.127097 S    
H27   C49   1.081727 S    
C43   C59   1.547347 S    
C44   C48   1.536889 S    
C112  C116  1.509980 S    
C78   C81   1.548588 S    
C79   C87   1.564281 S    
C102  C106  1.524663 S    
C14   O34   1.280006 A    
N6    H123  1.042453 S    
C92   C96   1.515012 S    
C99   C115  1.533815 S    
C48   N12   1.457564 S    
C49   C57   1.561523 S    
C75   C87   1.556679 S    
C98   H114  1.108985 S    
C73   H57   1.088559 S    
C52   C68   1.545677 S    
C53   C69   1.541527 S    
O10   Cr6   2.115254 S    
N5    H121  1.042450 S    
O4    Cr4   2.121250 S    
C47   C63   1.581116 S    
C56   C72   1.541529 S    
C27   C31   1.542321 S    
N12   H135  1.032779 S    
C54   C58   1.517148 S    
C117  H109  1.102099 S    
C39   H11   1.109188 S    
C42   H18   1.112800 S    
C44   H16   1.089396 S    
