data_mof_unit_47667.cif
_audit_creation_date              2012-12-10T17:31:08-0500
_audit_creation_method            fapswitch 2.2
_symmetry_space_group_name_H-M    P1
_symmetry_Int_Tables_number       1
_space_group_crystal_system       triclinic
_cell_length_a                    11.984719
_cell_length_b                    12.911956
_cell_length_c                    15.454975
_cell_angle_alpha                 87.196683
_cell_angle_beta                  115.365287
_cell_angle_gamma                 93.408891
_cell_volume                      2156.48416089

loop_
_atom_site_label
_atom_site_type_symbol
_atom_type_description
_atom_site_fract_x
_atom_site_fract_y
_atom_site_fract_z
_atom_type_partial_charge
C1    C     C_R   0.477542 0.299448 0.499027 0.908159
C2    C     C_R   0.522443 0.700559 0.500939 0.911936
C3    C     C_R   0.636534 0.405330 0.111212 -0.220460
C4    C     C_R   0.342338 0.413229 0.890269 -0.216997
C5    C     C_R   0.723443 0.402326 0.074183 -0.225381
C6    C     C_R   0.255861 0.419411 0.927420 -0.224039
C7    C     C_R   0.535723 0.811841 0.501487 -0.113666
C8    C     C_R   0.464208 0.188188 0.498353 -0.110375
C9    C     C_R   0.340779 0.030606 0.483571 0.159307
C10   C     C_R   0.659091 0.969447 0.516123 0.159310
C11   C     C_R   0.352416 0.137771 0.486128 -0.214556
C12   C     C_R   0.647492 0.862273 0.513652 -0.213364
C13   C     C_R   0.565646 0.132492 0.509037 -0.236847
C14   C     C_R   0.434246 0.867544 0.490717 -0.236201
C15   C     C_R   0.556853 0.025816 0.506338 0.092296
C16   C     C_R   0.443016 0.974227 0.493361 0.092628
C17   C     C_R   0.003549 0.599418 0.410902 -0.299533
C18   C     C_R   0.996595 0.400738 0.589344 -0.303822
C19   C     C_R   0.124347 0.589954 0.419742 0.032607
C20   C     C_R   0.875727 0.410164 0.580406 0.033137
C21   C     C_R   0.160795 0.457183 0.538987 -0.040952
C22   C     C_R   0.839273 0.542832 0.461084 -0.042843
C23   C     C_R   0.575639 0.492282 0.680427 0.880982
C24   C     C_R   0.423628 0.502739 0.319476 0.877795
C25   C     C_R   0.039863 0.463959 0.532595 0.087362
C26   C     C_R   0.960236 0.536084 0.467549 0.083893
C27   C     C_R   0.618609 0.470520 0.783025 -0.060088
C28   C     C_R   0.375593 0.486828 0.216616 -0.061367
C29   C     C_R   0.777622 0.429497 0.940359 -0.193746
C30   C     C_R   0.208620 0.455227 0.060520 -0.192889
C31   C     C_R   0.742914 0.454326 0.843630 -0.192822
C32   C     C_R   0.248743 0.478765 0.156748 -0.190247
C33   C     C_R   0.529645 0.458500 0.818801 -0.255245
C34   C     C_R   0.460921 0.469600 0.180286 -0.251337
C35   C     C_R   0.561342 0.430110 0.914222 0.093285
C36   C     C_R   0.423088 0.440336 0.086078 0.093301
C37   C     C_R   0.688003 0.419610 0.976488 0.175358
C38   C     C_R   0.295097 0.437543 0.024417 0.175932
C39   C     C_R   0.470824 0.420722 0.950415 0.070893
C40   C     C_R   0.510562 0.421463 0.050443 0.067080
H1    H     H_    0.819417 0.391406 0.122695 0.151889
H2    H     H_    0.158253 0.414497 0.879403 0.145602
H3    H     H_    0.843070 0.361306 0.624414 0.133972
H4    H     H_    0.157032 0.638907 0.375811 0.136300
H5    H     H_    0.944627 0.655752 0.360175 0.160240
H6    H     H_    0.055610 0.344564 0.640241 0.154528
H7    H     H_    0.557881 0.482179 0.226107 0.159425
H8    H     H_    0.435515 0.475601 0.771784 0.161321
H9    H     H_    0.181144 0.490527 0.184119 0.155786
H10   H     H_    0.812865 0.461621 0.816599 0.153908
H11   H     H_    0.874432 0.419827 0.987163 0.131243
H12   H     H_    0.110416 0.451529 0.014279 0.130564
H13   H     H_    0.669752 0.392915 0.187655 0.156974
H14   H     H_    0.306364 0.400441 0.814380 0.142918
H15   H     H_    0.348240 0.827011 0.480584 0.198313
H16   H     H_    0.651658 0.173024 0.519189 0.197867
H17   H     H_    0.725962 0.818581 0.521759 0.188330
H18   H     H_    0.273961 0.181469 0.478050 0.187326
H19   H     H_    0.777139 0.598100 0.411467 0.129981
H20   H     H_    0.222962 0.401937 0.588626 0.124453
N1    N     N_R   0.799120 0.480200 0.517090 -0.101327
N2    N     N_R   0.200880 0.519800 0.482910 -0.101198
O1    O     O_R   0.580150 0.341050 0.504560 -0.623487
O2    O     O_R   0.419850 0.658950 0.495440 -0.621101
O3    O     O_R   0.388090 0.353760 0.493600 -0.623655
O4    O     O_R   0.611910 0.646240 0.506400 -0.620985
O5    O     O_R   0.650890 0.490020 0.640860 -0.620464
O6    O     O_R   0.349110 0.509980 0.359140 -0.621060
O7    O     O_R   0.458830 0.502730 0.629890 -0.619471
O8    O     O_R   0.541170 0.497270 0.370110 -0.621056
Zn1   Zn    Zn3+2 0.628240 0.491510 0.507320 0.950568
Zn2   Zn    Zn3+2 0.371760 0.508490 0.492680 0.951223
I1    I     I_    0.165662 0.962385 0.464493 -0.362829
I2    I     I_    0.834163 0.037720 0.535110 -0.364586

loop_
_geom_bond_atom_site_label_1
_geom_bond_atom_site_label_2
_ccdc_geom_bond_type
C8    C13   A    
C5    C37   A    
C1    C8    S    
C3    H13   S    
C23   O7    A    
C2    C7    S    
C24   O8    A    
C27   C33   A    
C17   C26   A    
C35   C37   A    
C9    C16   A    
C17   H5    S    
C10   C15   A    
O5    Zn1   S    
C19   N2    A    
C15   C16   A    
C18   H6    S    
C30   C38   A    
C23   O5    A    
C20   N1    A    
C21   C25   A    
C17   C19   A    
C7    C14   A    
C1    O3    A    
C6    C38   A    
O8    Zn1   S    
C23   C27   S    
C11   H18   S    
C34   C36   A    
C13   H16   S    
N1    Zn1   S    
C14   H15   S    
C28   C34   A    
C18   C25   A    
C9    I1    S    
C1    O1    A    
C2    O2    A    
C7    C12   A    
C27   C31   A    
C36   C40   A    
C21   H20   S    
C4    C6    A    
C22   H19   S    
C3    C5    A    
C25   C26   A    
O7    Zn2   S    
C35   C39   A    
O4    Zn1   S    
C4    C39   A    
C28   C32   A    
O6    Zn2   S    
N2    Zn2   S    
C9    C11   A    
C21   N2    A    
C10   C12   A    
C12   H17   S    
O1    Zn1   S    
C3    C40   A    
C13   C15   A    
C22   C26   A    
C14   C16   A    
C31   H10   S    
C39   C40   A    
C20   H3    S    
C19   H4    S    
C29   H11   S    
C5    H1    S    
C4    H14   S    
C24   C28   S    
C2    O4    A    
O3    Zn2   S    
C36   C38   A    
C29   C31   A    
C22   N1    A    
C30   C32   A    
C10   I2    S    
C30   H12   S    
C8    C11   A    
C33   C35   A    
C18   C20   A    
O2    Zn2   S    
C32   H9    S    
C24   O6    A    
C6    H2    S    
C29   C37   A    
C33   H8    S    
C34   H7    S    
