data_mof_unit_37437.cif
_audit_creation_date              2012-12-11T16:37:16-0500
_audit_creation_method            fapswitch 2.2
_symmetry_space_group_name_H-M    P1
_symmetry_Int_Tables_number       1
_space_group_crystal_system       triclinic
_cell_length_a                    19.481116
_cell_length_b                    6.949884
_cell_length_c                    17.668566
_cell_angle_alpha                 90.003297
_cell_angle_beta                  108.867015
_cell_angle_gamma                 89.996169
_cell_volume                      2263.64611566

loop_
_atom_site_label
_atom_site_type_symbol
_atom_type_description
_atom_site_fract_x
_atom_site_fract_y
_atom_site_fract_z
_atom_type_partial_charge
O1    O     O_R   0.561710 0.369960 0.440200 -0.538972
O2    O     O_R   0.061710 0.630040 0.940200 -0.538967
O3    O     O_R   0.412630 0.033330 0.406330 -0.542849
O4    O     O_R   0.912630 0.966670 0.906330 -0.542978
O5    O     O_R   0.438290 0.869790 0.559800 -0.533289
O6    O     O_R   0.938290 0.130210 0.059800 -0.533334
C1    C     C_R   0.384576 0.203090 0.383635 0.700527
C2    C     C_R   0.884576 0.796912 0.883635 0.701554
O7    O     O_R   0.559570 0.039810 0.430640 -0.543993
O8    O     O_R   0.059570 0.960190 0.930640 -0.544246
O9    O     O_R   0.586280 0.876320 0.584290 -0.539010
O10   O     O_R   0.086280 0.123680 0.084290 -0.539157
C3    C     C_R   0.581152 0.208648 0.415533 0.694436
C4    C     C_R   0.081152 0.791334 0.915519 0.695074
O11   O     O_R   0.413720 0.363440 0.415710 -0.537637
O12   O     O_R   0.913720 0.636560 0.915710 -0.537563
O13   O     O_3   0.508590 0.205630 0.550380 -0.364967
O14   O     O_3   0.008590 0.794370 0.050380 -0.364716
V1    V     V_3+5 0.498410 0.928130 0.490650 1.405554
V2    V     V_3+5 0.998410 0.071870 0.990650 1.406800
O15   O     O_R   0.587370 0.546990 0.593670 -0.541102
O16   O     O_R   0.087370 0.453010 0.093670 -0.541371
C5    C     C_R   0.615558 0.716781 0.616449 0.692294
C6    C     C_R   0.115558 0.283217 0.116449 0.691346
O17   O     O_R   0.440430 0.540520 0.569360 -0.537878
O18   O     O_R   0.940430 0.459480 0.069360 -0.536448
C7    C     C_R   0.418989 0.708990 0.584145 0.689638
C8    C     C_R   0.918988 0.291025 0.084140 0.689811
V3    V     V_3+5 0.501590 0.428960 0.509350 1.413918
V4    V     V_3+5 0.001590 0.571040 0.009350 1.417572
O19   O     O_3   0.491410 0.701330 0.449620 -0.371344
O20   O     O_3   0.991410 0.298670 0.949620 -0.371578
C9    C     C_R   0.253499 0.808657 0.645509 -0.066372
C10   C     C_R   0.753871 0.189203 0.145872 -0.070080
H1    H     H_    0.199471 0.866209 0.618182 0.112216
H2    H     H_    0.700034 0.130362 0.118689 0.106892
C11   C     C_R   0.300293 0.797894 0.599869 -0.161647
C12   C     C_R   0.800642 0.199995 0.100214 -0.151933
C13   C     C_R   0.369855 0.718713 0.632476 -0.040073
C14   C     C_R   0.869864 0.281328 0.132474 -0.043892
C15   C     C_R   0.391948 0.649858 0.711337 -0.154021
C16   C     C_R   0.891611 0.352454 0.210980 -0.142214
C17   C     C_R   0.346083 0.666801 0.757982 -0.130015
C18   C     C_R   0.845793 0.335512 0.257674 -0.084602
C19   C     C_R   0.276580 0.748983 0.726012 0.111131
C20   C     C_R   0.776672 0.250882 0.226124 0.106473
C21   C     C_R   0.218563 0.609313 0.820845 -0.116216
C22   C     C_R   0.718953 0.390149 0.321372 -0.152252
H3    H     H_    0.248204 0.477641 0.821186 0.137354
H4    H     H_    0.748647 0.521784 0.321785 0.152686
C23   C     C_R   0.170365 0.615333 0.864728 -0.133613
C24   C     C_R   0.670685 0.384240 0.365164 -0.135445
H5    H     H_    0.164735 0.488646 0.897937 0.120971
H6    H     H_    0.665183 0.510773 0.398532 0.123698
C25   C     C_R   0.130778 0.782894 0.866639 -0.080963
C26   C     C_R   0.630819 0.217016 0.366727 -0.076324
C27   C     C_R   0.140724 0.944610 0.823445 -0.205682
C28   C     C_R   0.640557 0.055492 0.323307 -0.209248
H7    H     H_    0.111532 0.076207 0.825539 0.152742
H8    H     H_    0.611156 0.924125 0.325140 0.153818
C29   C     C_R   0.189060 0.940693 0.778753 0.017820
C30   C     C_R   0.688987 0.059221 0.278833 0.023589
C31   C     C_R   0.227948 0.768867 0.776160 0.010273
C32   C     C_R   0.728101 0.230879 0.276389 0.001269
C33   C     C_R   0.768088 0.623781 0.811635 0.108905
C34   C     C_R   0.268087 0.376231 0.311634 0.108958
C35   C     C_R   0.814192 0.782819 0.817959 -0.113287
C36   C     C_R   0.314194 0.217184 0.317959 -0.113423
C37   C     C_R   0.790416 0.927862 0.759877 -0.180788
C38   C     C_R   0.290420 0.072132 0.259876 -0.181419
H9    H     H_    0.823718 0.053380 0.762060 0.136330
H10   H     H_    0.323724 0.946605 0.262060 0.135986
C39   C     C_R   0.725870 0.905480 0.694881 -0.169324
C40   C     C_R   0.225874 0.094512 0.194881 -0.170021
H11   H     H_    0.711115 0.016696 0.649633 0.127567
H12   H     H_    0.211120 0.983288 0.149633 0.127143
C41   C     C_R   0.683178 0.736953 0.685695 -0.109524
C42   C     C_R   0.183178 0.263046 0.185695 -0.109581
C43   C     C_R   0.704282 0.601529 0.747393 0.099728
C44   C     C_R   0.204281 0.398482 0.247393 0.100882
C45   C     C_3   0.715344 0.390264 0.743369 -0.420078
C46   C     C_3   0.215340 0.609744 0.243370 -0.420112
C47   C     C_3   0.784616 0.414000 0.813806 -0.389362
C48   C     C_3   0.284611 0.586008 0.313808 -0.389647
H13   H     H_    0.725269 0.347679 0.687176 0.168790
H14   H     H_    0.225264 0.652313 0.187177 0.168056
H15   H     H_    0.672934 0.305901 0.758215 0.178800
H16   H     H_    0.172927 0.694121 0.258215 0.179504
H17   H     H_    0.834675 0.383649 0.798664 0.175895
H18   H     H_    0.334671 0.616346 0.298668 0.175420
H19   H     H_    0.782021 0.344268 0.869448 0.163445
H20   H     H_    0.282013 0.655752 0.369450 0.163792
H21   H     H_    0.281875 0.849095 0.538665 0.099989
H22   H     H_    0.782441 0.147232 0.039236 0.099213
H23   H     H_    0.445356 0.587353 0.737391 0.109928
H24   H     H_    0.944754 0.416653 0.236760 0.106907
H25   H     H_    0.365260 0.617694 0.819430 0.117007
H26   H     H_    0.864810 0.386181 0.318905 0.113175
C49   C     C_2   0.199769 0.120827 0.738764 0.696759
O21   O     O_2   0.148922 0.231382 0.711238 -0.561175
O22   O     O_R   0.268147 0.166883 0.734002 -0.665922
H27   H     H_    0.267970 0.291368 0.704038 0.297633
C50   C     C_2   0.699051 0.878633 0.238841 0.693431
O23   O     O_2   0.758768 0.835499 0.235185 -0.562194
O24   O     O_R   0.640138 0.754976 0.206820 -0.668912
H28   H     H_    0.653321 0.637596 0.180333 0.298063

loop_
_geom_bond_atom_site_label_1
_geom_bond_atom_site_label_2
_ccdc_geom_bond_type
C28   C30   A    
C34   C36   A    
O22   H27   S    
C33   C43   A    
O13   V3    S    
O4    C2    A    
V1    O19   S    
C21   H3    S    
O9    V1    S    
C16   C18   A    
C16   H24   S    
C12   C14   A    
O3    C1    A    
C21   C31   A    
C42   C44   A    
C33   C47   S    
C8    C14   S    
O12   V4    S    
C9    C19   A    
C37   H9    S    
C29   C31   A    
O7    C3    A    
C30   C32   A    
C22   C32   A    
O13   V1    S    
C1    C36   S    
O5    C7    A    
C18   H26   S    
O7    V1    S    
O6    C8    A    
O8    V2    S    
C33   C35   A    
C38   C40   A    
O3    V1    S    
C10   C20   A    
C23   C25   A    
C3    C26   S    
C22   H4    S    
C4    C25   S    
C2    O12   A    
C15   C17   A    
O10   V2    S    
C29   C49   S    
C48   H18   S    
C45   C47   S    
C24   H6    S    
O11   V3    S    
C41   C43   A    
O17   V3    S    
C47   H17   S    
C13   C15   A    
O8    C4    A    
C7    C13   S    
C43   C45   S    
C21   C23   A    
C1    O11   A    
C18   C20   A    
C46   H14   S    
O15   V3    S    
C19   C31   S    
C9    C11   A    
C20   C32   S    
C23   H5    S    
C49   O21   D    
C12   H22   S    
O1    V3    S    
C11   H21   S    
C50   O24   S    
C5    C41   S    
C37   C39   A    
C17   C19   A    
C45   H15   S    
C40   H12   S    
O14   V4    S    
C44   C46   S    
C49   O22   S    
O18   V4    S    
C46   C48   S    
C25   C27   A    
O16   C6    A    
O1    C3    A    
C39   H11   S    
C47   H19   S    
C30   C50   S    
V2    O20   S    
C6    C42   S    
O16   V4    S    
C10   C12   A    
C17   H25   S    
C14   C16   A    
C27   C29   A    
O5    V1    S    
O17   C7    A    
C34   C44   A    
O24   H28   S    
O10   C6    A    
O18   C8    A    
O2    V4    S    
O15   C5    A    
V3    O19   S    
V4    O20   S    
C15   H23   S    
O6    V2    S    
C46   H16   S    
O9    C5    A    
C9    H1    S    
C10   H2    S    
C26   C28   A    
O14   V2    S    
O2    C4    A    
C27   H7    S    
C34   C48   S    
O4    V2    S    
C22   C24   A    
C2    C35   S    
C11   C13   A    
C40   C42   A    
C50   O23   D    
C36   C38   A    
C39   C41   A    
C38   H10   S    
C48   H20   S    
C35   C37   A    
C28   H8    S    
C45   H13   S    
C24   C26   A    
