data_mof_unit_15297.cif
_audit_creation_date              2012-12-11T15:06:44-0500
_audit_creation_method            fapswitch 2.2
_symmetry_space_group_name_H-M    P1
_symmetry_Int_Tables_number       1
_space_group_crystal_system       triclinic
_cell_length_a                    7.240907
_cell_length_b                    14.791567
_cell_length_c                    22.59036
_cell_angle_alpha                 89.998937
_cell_angle_beta                  89.983685
_cell_angle_gamma                 88.91884
_cell_volume                      2419.09522814

loop_
_atom_site_label
_atom_site_type_symbol
_atom_type_description
_atom_site_fract_x
_atom_site_fract_y
_atom_site_fract_z
_atom_type_partial_charge
O1    O     O_R   0.390810 0.844810 0.447340 -0.531939
O2    O     O_R   0.109190 0.155190 0.947340 -0.531904
O3    O     O_R   0.890810 0.655190 0.552660 -0.539141
O4    O     O_R   0.609190 0.344810 0.052660 -0.539181
O5    O     O_R   0.720550 0.655820 0.440420 -0.535805
O6    O     O_R   0.779450 0.344180 0.940420 -0.535852
O7    O     O_R   0.220550 0.844180 0.559580 -0.532193
O8    O     O_R   0.279450 0.155820 0.059580 -0.532192
C1    C     C_R   0.553603 0.626557 0.426197 0.676918
C2    C     C_R   0.946432 0.373437 0.926199 0.676984
C3    C     C_R   0.050835 0.873307 0.573772 0.678439
C4    C     C_R   0.449129 0.126703 0.073782 0.678574
O9    O     O_R   0.720530 0.844130 0.440420 -0.537217
O10   O     O_R   0.779470 0.155870 0.940420 -0.537266
O11   O     O_R   0.220530 0.655870 0.559580 -0.533618
O12   O     O_R   0.279470 0.344130 0.059580 -0.533613
O13   O     O_R   0.890830 0.844810 0.552660 -0.537745
O14   O     O_R   0.609170 0.155190 0.052660 -0.537783
O15   O     O_R   0.390830 0.655190 0.447340 -0.530392
O16   O     O_R   0.109170 0.344810 0.947340 -0.530366
C5    C     C_R   0.550773 0.873512 0.426370 0.694682
C6    C     C_R   0.949265 0.126485 0.926377 0.694718
C7    C     C_R   0.053745 0.626613 0.573858 0.692835
C8    C     C_R   0.446217 0.373380 0.073869 0.692871
O17   O     O_3   0.557310 0.749980 0.536820 -0.375657
O18   O     O_3   0.942690 0.250020 0.036820 -0.375705
O19   O     O_3   0.057310 0.750020 0.463180 -0.369526
O20   O     O_3   0.442690 0.249980 0.963180 -0.369534
V1    V     V_3+5 0.832160 0.749980 0.493170 1.445128
V2    V     V_3+5 0.667840 0.250020 0.993170 1.444764
V3    V     V_3+5 0.332160 0.750020 0.506830 1.462243
V4    V     V_3+5 0.167840 0.249980 0.006830 1.462166
C9    C     C_R   0.867418 0.602204 0.857457 -0.144375
C10   C     C_R   0.634079 0.397971 0.357344 -0.144434
C11   C     C_R   0.502862 0.892858 0.137114 -0.148531
C12   C     C_R   0.994865 0.107039 0.637095 -0.148476
H1    H     H_    0.841147 0.546366 0.944479 0.110988
H2    H     H_    0.660495 0.453827 0.444349 0.111065
H3    H     H_    0.472020 0.948758 0.050074 0.110689
H4    H     H_    0.025527 0.051183 0.550034 0.110719
H5    H     H_    0.831153 0.721080 0.770887 0.150218
H6    H     H_    0.670936 0.279230 0.270713 0.150032
H7    H     H_    0.569353 0.770029 0.219612 0.154293
H8    H     H_    0.927509 0.229723 0.719616 0.154079
H9    H     H_    0.813484 0.667653 0.871454 0.118856
H10   H     H_    0.688755 0.332637 0.371279 0.118833
H11   H     H_    0.518174 0.824521 0.120217 0.116984
H12   H     H_    0.978452 0.175314 0.620195 0.116982
C13   C     C_R   0.948302 0.447653 0.882557 -0.067358
C14   C     C_R   0.551882 0.552334 0.382554 -0.067441
C15   C     C_R   0.462273 0.052411 0.117125 -0.064646
C16   C     C_R   0.037509 0.947600 0.617109 -0.064683
C17   C     C_R   0.133497 0.468928 0.597295 -0.267358
C18   C     C_R   0.365439 0.530909 0.097420 -0.267130
C19   C     C_R   0.504228 0.035808 0.408270 -0.270176
C20   C     C_R   0.997244 0.964298 0.908305 -0.270150
C21   C     C_R   0.171994 0.399596 0.636980 -0.180536
C22   C     C_R   0.326380 0.600094 0.137167 -0.180683
C23   C     C_R   0.460100 0.108691 0.371941 -0.176243
C24   C     C_R   0.041938 0.891503 0.871970 -0.176335
C25   C     C_R   0.133084 0.409587 0.697044 0.588925
C26   C     C_R   0.365577 0.590102 0.197203 0.588745
C27   C     C_R   0.447381 0.098097 0.310772 0.592861
C28   C     C_R   0.054067 0.902058 0.810786 0.592827
C29   C     C_R   0.041671 0.488954 0.718769 -0.042671
C30   C     C_R   0.457928 0.510932 0.218826 -0.042601
C31   C     C_R   0.490225 0.013427 0.283576 -0.043567
C32   C     C_R   0.010102 0.986588 0.783585 -0.043566
C33   C     C_R   0.007246 0.561262 0.677439 -0.006972
C34   C     C_R   0.492895 0.438749 0.177438 -0.006931
C35   C     C_R   0.529880 0.937958 0.321832 -0.007803
C36   C     C_R   0.969750 0.061976 0.821848 -0.007800
C37   C     C_R   0.989229 0.501124 0.779858 0.089897
C38   C     C_R   0.510787 0.498826 0.279874 0.089901
C39   C     C_R   0.488518 0.999478 0.220454 0.091864
C40   C     C_R   0.011315 0.000506 0.720452 0.091805
C41   C     C_R   0.916513 0.586755 0.798133 0.123666
C42   C     C_R   0.584452 0.413347 0.298066 0.123857
C43   C     C_R   0.511690 0.909947 0.198189 0.117979
C44   C     C_R   0.986779 0.089956 0.698183 0.118152
C45   C     C_R   0.889079 0.656319 0.757098 -0.102598
C46   C     C_R   0.612328 0.343875 0.256987 -0.102260
C47   C     C_R   0.547069 0.837828 0.236682 -0.120175
C48   C     C_R   0.950750 0.161996 0.736685 -0.119449
C49   C     C_R   0.931770 0.643675 0.697795 -0.134806
C50   C     C_R   0.569225 0.356478 0.197716 -0.134874
C51   C     C_R   0.558445 0.851612 0.297285 -0.127834
C52   C     C_R   0.939967 0.148221 0.797300 -0.128016
C53   C     C_R   0.999352 0.431390 0.823392 -0.160020
C54   C     C_R   0.500232 0.568510 0.323437 -0.159917
C55   C     C_R   0.470670 0.070532 0.178143 -0.163450
C56   C     C_R   0.029957 0.929485 0.678139 -0.163577
C57   C     C_R   0.883300 0.533324 0.899202 -0.160497
C58   C     C_R   0.617846 0.466796 0.399116 -0.160321
C59   C     C_R   0.476653 0.963409 0.097040 -0.164042
C60   C     C_R   0.021634 0.036548 0.597011 -0.163989
C61   C     C_R   0.055441 0.550731 0.616689 -0.072104
C62   C     C_R   0.444337 0.449244 0.116721 -0.072277
C63   C     C_R   0.535353 0.949918 0.384293 -0.066760
C64   C     C_R   0.964874 0.050064 0.884318 -0.066759
H13   H     H_    0.035514 0.362613 0.812694 0.181719
H14   H     H_    0.463343 0.637213 0.312780 0.181673
H15   H     H_    0.471499 0.140673 0.190402 0.178765
H16   H     H_    0.030353 0.859329 0.690390 0.178921
H17   H     H_    0.172982 0.460213 0.551326 0.137896
H18   H     H_    0.325653 0.539594 0.051482 0.137921
H19   H     H_    0.506244 0.045715 0.455807 0.135445
H20   H     H_    0.995778 0.954443 0.955848 0.135452
H21   H     H_    0.240469 0.338422 0.621308 0.150611
H22   H     H_    0.257195 0.661122 0.121571 0.150582
H23   H     H_    0.428096 0.173826 0.391719 0.149144
H24   H     H_    0.074864 0.826483 0.891748 0.149219
H25   H     H_    0.905747 0.699665 0.667912 0.110308
H26   H     H_    0.595623 0.300570 0.167797 0.110550
H27   H     H_    0.588775 0.793504 0.324983 0.102504
H28   H     H_    0.909114 0.206264 0.825005 0.102682
F1    F     F_    0.200900 0.343548 0.732824 -0.723163
F2    F     F_    0.297078 0.655889 0.233069 -0.723070
F3    F     F_    0.377790 0.169930 0.280500 -0.725434
F4    F     F_    0.124056 0.830319 0.780495 -0.725443

loop_
_geom_bond_atom_site_label_1
_geom_bond_atom_site_label_2
_ccdc_geom_bond_type
O17   V3    S    
C47   C51   A    
C22   C26   A    
C19   C23   A    
O19   V1    S    
C9    H9    S    
O3    C7    A    
H6    C46   S    
C44   C48   A    
C11   H11   S    
C36   C64   A    
C29   C37   A    
O1    C5    A    
C8    C62   S    
C28   C32   A    
O9    V1    S    
H4    C60   S    
C18   C22   A    
O4    C8    A    
C29   C33   A    
C30   C38   A    
O1    V3    S    
H7    C47   S    
O2    V4    S    
C11   C43   A    
O3    V1    S    
C12   C60   A    
C20   H20   S    
C3    C16   S    
C15   C55   A    
C1    O15   A    
C21   H21   S    
C2    O16   A    
O2    C6    A    
C23   H23   S    
C16   C60   A    
C10   H10   S    
C51   H27   S    
C39   C55   A    
C53   H13   S    
O11   C7    A    
O15   V3    S    
O12   C8    A    
O10   V2    S    
C36   C52   A    
C14   C54   A    
O5    V1    S    
C27   C31   A    
O7    V3    S    
C18   H18   S    
C25   F1    S    
O8    V4    S    
C40   C44   A    
O9    C5    A    
C6    C64   S    
C12   C44   A    
C13   C53   A    
C26   C30   A    
O18   V4    S    
C14   C58   A    
C17   C61   A    
C46   C50   A    
C35   C63   A    
C20   C24   A    
C19   H19   S    
C32   C36   A    
C52   H28   S    
O7    C3    A    
O5    C1    A    
C24   H24   S    
C25   C29   A    
C27   F3    S    
C42   C46   A    
C41   C45   A    
O8    C4    A    
H5    C45   S    
H2    C58   S    
H1    C57   S    
O11   V3    S    
H3    C59   S    
C40   C56   A    
C35   C51   A    
C7    C61   S    
C10   C58   A    
O14   V2    S    
C16   C56   A    
C32   C40   A    
C20   C64   A    
C4    O14   A    
C34   C50   A    
C4    C15   S    
C33   C49   A    
O16   V4    S    
C3    O13   A    
C17   C21   A    
O6    V2    S    
C22   H22   S    
C1    C14   S    
C48   C52   A    
C55   H15   S    
H8    C48   S    
C9    C57   A    
O6    C2    A    
C21   C25   A    
C11   C59   A    
O12   V4    S    
C23   C27   A    
C28   F4    S    
C50   H26   S    
C24   C28   A    
O10   C6    A    
C49   H25   S    
C37   C53   A    
C54   H14   S    
O13   V1    S    
C10   C42   A    
C43   C47   A    
C9    C41   A    
C30   C34   A    
C5    C63   S    
C38   C54   A    
O20   V2    S    
C12   H12   S    
C31   C35   A    
O4    V2    S    
C26   F2    S    
C56   H16   S    
C17   H17   S    
C31   C39   A    
C38   C42   A    
C19   C63   A    
C37   C41   A    
C18   C62   A    
C13   C57   A    
C2    C13   S    
C39   C43   A    
C45   C49   A    
C34   C62   A    
C15   C59   A    
C33   C61   A    
