data_mof_unit_37599.cif
_audit_creation_date              2012-12-11T16:30:35-0500
_audit_creation_method            fapswitch 2.2
_symmetry_space_group_name_H-M    P1
_symmetry_Int_Tables_number       1
_space_group_crystal_system       triclinic
_cell_length_a                    6.929924
_cell_length_b                    14.373945
_cell_length_c                    16.102754
_cell_angle_alpha                 90.0
_cell_angle_beta                  89.884629
_cell_angle_gamma                 90.000025
_cell_volume                      1603.99765263

loop_
_atom_site_label
_atom_site_type_symbol
_atom_type_description
_atom_site_fract_x
_atom_site_fract_y
_atom_site_fract_z
_atom_type_partial_charge
O1    O     O_R   0.611670 0.415650 0.164070 -0.543076
O2    O     O_R   0.388330 0.915650 0.835930 -0.543076
O3    O     O_R   0.940950 0.405490 0.337780 -0.547666
O4    O     O_R   0.059050 0.905490 0.662220 -0.547667
O5    O     O_R   0.111350 0.584350 0.338470 -0.519752
O6    O     O_R   0.888650 0.084350 0.661530 -0.519752
C1    C     C_R   0.771513 0.382142 0.366257 0.629340
C2    C     C_R   0.228487 0.882141 0.633743 0.629341
O7    O     O_R   0.941380 0.404630 0.164680 -0.543012
O8    O     O_R   0.058620 0.904630 0.835320 -0.543012
O9    O     O_R   0.111780 0.583470 0.164130 -0.510408
O10   O     O_R   0.888220 0.083470 0.835870 -0.510407
C3    C     C_R   0.772518 0.382057 0.136565 0.687457
C4    C     C_R   0.227482 0.882057 0.863435 0.687457
O11   O     O_R   0.611240 0.416530 0.338400 -0.547832
O12   O     O_R   0.388760 0.916530 0.661600 -0.547832
O13   O     O_3   0.778020 0.558680 0.251290 -0.348956
O14   O     O_3   0.221980 0.058680 0.748710 -0.348955
V1    V     V_3+5 0.052840 0.489110 0.251260 1.448628
V2    V     V_3+5 0.947160 0.989110 0.748740 1.448629
O15   O     O_R   0.441500 0.594510 0.164760 -0.543403
O16   O     O_R   0.558500 0.094510 0.835240 -0.543404
C5    C     C_R   0.272513 0.617191 0.136467 0.829343
C6    C     C_R   0.727487 0.117191 0.863533 0.829341
O17   O     O_R   0.441080 0.595370 0.337860 -0.547190
O18   O     O_R   0.558920 0.095370 0.662140 -0.547191
C7    C     C_R   0.272280 0.617646 0.367372 0.731311
C8    C     C_R   0.727720 0.117647 0.632629 0.731313
V3    V     V_3+5 0.552850 0.510890 0.251270 1.425852
V4    V     V_3+5 0.447150 0.010890 0.748730 1.425852
O19   O     O_3   0.277800 0.441320 0.251250 -0.380667
O20   O     O_3   0.722200 0.941320 0.748750 -0.380667
C9    C     C_3   0.153340 0.646532 0.514751 -0.338321
C10   C     C_3   0.846618 0.146525 0.485243 -0.338321
H1    H     H_    0.004133 0.626604 0.496502 0.135451
H2    H     H_    0.995827 0.126590 0.503481 0.135448
H3    H     H_    0.227302 0.582074 0.535947 0.116075
H4    H     H_    0.772631 0.082072 0.464054 0.116072
C11   C     C_3   0.143604 0.717590 0.587703 -0.312566
C12   C     C_3   0.856342 0.217581 0.412289 -0.312565
H5    H     H_    0.216728 0.687879 0.643141 0.119293
H6    H     H_    0.783170 0.187876 0.356859 0.119294
H7    H     H_    0.990046 0.729645 0.604956 0.136870
H8    H     H_    0.009896 0.229620 0.395017 0.136860
H9    H     H_    0.007469 0.760445 0.388811 0.174656
H10   H     H_    0.992571 0.260425 0.611179 0.174644
H11   H     H_    0.982743 0.861505 0.498357 0.138662
H12   H     H_    0.017316 0.361471 0.501624 0.138672
C13   C     C_3   0.154481 0.777976 0.411656 -0.263275
C14   C     C_3   0.845561 0.277969 0.588339 -0.263280
C15   C     C_3   0.466681 0.717278 0.468453 -0.326924
C16   C     C_3   0.533319 0.217297 0.531562 -0.326921
C17   C     C_3   0.262031 0.688078 0.438697 0.088607
C18   C     C_3   0.737969 0.188080 0.561305 0.088607
H13   H     H_    0.549972 0.747613 0.415835 0.145421
H14   H     H_    0.450055 0.247635 0.584187 0.145420
H15   H     H_    0.547374 0.655040 0.490459 0.129105
H16   H     H_    0.452599 0.155068 0.509557 0.129114
C19   C     C_3   0.240700 0.811100 0.563259 0.128824
C20   C     C_3   0.759300 0.311102 0.436742 0.128829
C21   C     C_3   0.137842 0.848414 0.484553 -0.370146
C22   C     C_3   0.862213 0.348403 0.515440 -0.370138
C23   C     C_3   0.454360 0.789595 0.539547 -0.302664
C24   C     C_3   0.545640 0.289620 0.460473 -0.302669
H17   H     H_    0.533063 0.762449 0.594665 0.132574
H18   H     H_    0.466893 0.262487 0.405360 0.132583
H19   H     H_    0.528333 0.854678 0.519689 0.129349
H20   H     H_    0.471710 0.354711 0.480342 0.129339
H21   H     H_    0.234616 0.811622 0.359877 0.178514
H22   H     H_    0.765448 0.311624 0.640119 0.178525
H23   H     H_    0.202596 0.916092 0.465751 0.119221
H24   H     H_    0.797509 0.416092 0.534246 0.119214
H25   H     H_    0.497529 0.586319 0.765341 0.107632
H26   H     H_    0.502471 0.086319 0.234659 0.107632
C25   C     C_R   0.099460 0.931411 0.027626 -0.158920
C26   C     C_R   0.900542 0.431411 0.972375 -0.158921
C27   C     C_R   0.035600 0.958241 0.105886 -0.219004
C28   C     C_R   0.964405 0.458241 0.894114 -0.219003
C29   C     C_R   0.041804 0.895810 0.171390 -0.193369
C30   C     C_R   0.958202 0.395809 0.828611 -0.193369
C31   C     C_R   0.113689 0.806177 0.159656 0.576415
C32   C     C_R   0.886315 0.306176 0.840344 0.576416
C33   C     C_R   0.181860 0.776462 0.080570 -0.033432
C34   C     C_R   0.818141 0.276462 0.919430 -0.033432
C35   C     C_R   0.172090 0.840671 0.013108 -0.000322
C36   C     C_R   0.827911 0.340671 0.986892 -0.000322
C37   C     C_R   0.261553 0.686030 0.067519 -0.195433
C38   C     C_R   0.738448 0.186030 0.932481 -0.195433
C39   C     C_R   0.327383 0.660243 0.987124 0.040734
C40   C     C_R   0.672617 0.160243 0.012876 0.040735
C41   C     C_R   0.314837 0.724358 0.919954 0.081774
C42   C     C_R   0.685162 0.224358 0.080046 0.081774
C43   C     C_R   0.237464 0.814435 0.933025 -0.153478
C44   C     C_R   0.762535 0.314435 0.066975 -0.153479
C45   C     C_R   0.402167 0.570108 0.971498 -0.156291
C46   C     C_R   0.597834 0.070108 0.028502 -0.156290
C47   C     C_R   0.463149 0.544246 0.892295 -0.101005
C48   C     C_R   0.536852 0.044245 0.107705 -0.101004
C49   C     C_R   0.450941 0.606918 0.826867 -0.140839
C50   C     C_R   0.549058 0.106918 0.173132 -0.140839
C51   C     C_R   0.377364 0.695893 0.840121 -0.151115
C52   C     C_R   0.622635 0.195893 0.159879 -0.151115
H27   H     H_    0.092908 0.983249 0.979037 0.130582
H28   H     H_    0.907094 0.483248 0.020963 0.130582
H29   H     H_    0.981776 0.028069 0.115835 0.161655
H30   H     H_    0.018230 0.528069 0.884166 0.161655
H31   H     H_    0.991432 0.917196 0.232165 0.133567
H32   H     H_    0.008576 0.417195 0.767835 0.133565
H33   H     H_    0.412352 0.518074 0.019794 0.108930
H34   H     H_    0.587650 0.018073 0.980206 0.108930
H35   H     H_    0.518552 0.474861 0.881508 0.131265
H36   H     H_    0.481451 0.974861 0.118492 0.131265
H37   H     H_    0.368649 0.741625 0.786907 0.094328
H38   H     H_    0.631348 0.241626 0.213093 0.094329
F1    F     F_    0.115419 0.749951 0.226872 -0.742372
F2    F     F_    0.884587 0.249950 0.773128 -0.742371

loop_
_geom_bond_atom_site_label_1
_geom_bond_atom_site_label_2
_ccdc_geom_bond_type
C26   H28   S    
C33   C37   A    
C23   H17   S    
C12   C20   S    
O13   V3    S    
O4    C2    A    
V1    O19   S    
C11   H5    S    
O9    V1    S    
C14   C18   S    
C10   C12   S    
C24   H20   S    
C34   C36   A    
O3    C1    A    
C2    C19   S    
C47   H35   S    
C28   C30   A    
O12   V4    S    
C51   H37   S    
O17   V3    S    
C20   C22   S    
O7    V1    S    
O7    C3    A    
C36   C44   A    
C47   C49   A    
O5    C7    A    
C35   C43   A    
C25   C35   A    
O6    C8    A    
O8    V2    S    
C46   C48   A    
O3    V1    S    
O14   V4    S    
C39   C41   A    
C4    C43   S    
C15   H13   S    
C42   C52   A    
C21   H23   S    
C12   H6    S    
C2    O12   A    
C5    C37   S    
C7    C17   S    
C25   H27   S    
O10   V2    S    
C41   C51   A    
C42   C44   A    
C31   C33   A    
C16   C18   S    
O11   V3    S    
C27   C29   A    
C9    C17   S    
C40   C42   A    
C23   H19   S    
C19   C21   S    
C13   C21   S    
C22   H24   S    
C15   C23   S    
C30   C32   A    
C16   C24   S    
C29   C31   A    
C8    C18   S    
O13   V1    S    
C11   H7    S    
C1    O11   A    
C46   H34   S    
C9    H3    S    
C15   C17   S    
C24   H18   S    
C39   C45   A    
C52   H38   S    
C41   C43   A    
C6    C38   S    
H12   C22   S    
H9    C13   S    
C11   C19   S    
C31   F1    S    
O1    V3    S    
C30   H32   S    
C29   H31   S    
C9    C11   S    
C25   C27   A    
C16   H16   S    
C15   H15   S    
C49   C51   A    
C38   C40   A    
O18   V4    S    
C32   C34   A    
O15   C5    A    
C45   H33   S    
C14   C22   S    
O16   C6    A    
C19   C23   S    
O1    C3    A    
O2    V4    S    
C26   C36   A    
C1    C20   S    
C50   C52   A    
V2    O20   S    
H25   C49   S    
O10   C6    A    
O16   V4    S    
C33   C35   A    
C10   H4    S    
O18   C8    A    
C34   C38   A    
C26   C28   A    
H11   C21   S    
H26   C50   S    
C45   C47   A    
C40   C46   A    
O5    V1    S    
O17   C7    A    
O6    V2    S    
H10   C14   S    
C48   C50   A    
C28   H30   S    
C3    C44   S    
C20   C24   S    
C48   H36   S    
C27   H29   S    
C14   H22   S    
C32   F2    S    
V3    O19   S    
V4    O20   S    
C10   C18   S    
O15   V3    S    
C13   C17   S    
O9    C5    A    
C9    H1    S    
C10   H2    S    
O14   V2    S    
O2    C4    A    
O4    V2    S    
C12   H8    S    
C37   C39   A    
C13   H21   S    
C16   H14   S    
O8    C4    A    
