data_mof_unit_13736.cif
_audit_creation_date              2012-12-10T17:52:21-0500
_audit_creation_method            fapswitch 2.2
_symmetry_space_group_name_H-M    P1
_symmetry_Int_Tables_number       1
_space_group_crystal_system       triclinic
_cell_length_a                    18.483319
_cell_length_b                    10.553074
_cell_length_c                    9.918972
_cell_angle_alpha                 89.296927
_cell_angle_beta                  89.843096
_cell_angle_gamma                 94.822897
_cell_volume                      1927.74409686

loop_
_atom_site_label
_atom_site_type_symbol
_atom_type_description
_atom_site_fract_x
_atom_site_fract_y
_atom_site_fract_z
_atom_type_partial_charge
C1    C     C_R   0.511702 0.262795 0.500806 0.948279
C2    C     C_R   0.302091 0.596476 0.499345 -0.332098
C3    C     C_R   0.942530 0.639443 0.547176 0.397323
C4    C     C_R   0.088304 0.684635 0.538403 0.398309
C5    C     C_R   0.824854 0.554554 0.644851 0.376354
C6    C     C_R   0.753113 0.502800 0.628885 0.405076
C7    C     C_R   0.717729 0.512435 0.502799 -0.331117
C8    C     C_R   0.759927 0.554014 0.387679 -0.140571
C9    C     C_R   0.833829 0.596511 0.403433 0.486530
C10   C     C_R   0.864984 0.601729 0.532567 -0.251495
C11   C     C_R   0.575705 0.128476 0.743136 -0.149594
C12   C     C_R   0.368490 0.526403 0.499654 0.994790
C13   C     C_R   0.606753 0.061257 0.846686 -0.266572
C14   C     C_R   0.629848 0.940794 0.822597 0.488400
C15   C     C_R   0.611392 0.880551 0.700615 -0.054398
C16   C     C_R   0.566052 0.938991 0.607371 -0.017039
C17   C     C_R   0.557447 0.069622 0.618749 0.069210
C18   C     C_R   0.537773 0.135732 0.499873 -0.193584
C19   C     C_R   0.545447 0.076128 0.373853 -0.102893
C20   C     C_R   0.536940 0.944415 0.370461 0.406182
C21   C     C_R   0.536120 0.875984 0.493056 -0.155612
C22   C     C_R   0.379519 0.371529 0.137755 -0.102697
C23   C     C_R   0.510326 0.741099 0.498476 0.930045
C24   C     C_R   0.311685 0.353830 0.070480 0.416544
C25   C     C_R   0.311169 0.369986 0.929627 0.317475
C26   C     C_R   0.378560 0.382450 0.863669 -0.163728
C27   C     C_R   0.440177 0.443109 0.928796 0.040136
C28   C     C_R   0.440048 0.441879 0.072913 -0.032344
C29   C     C_R   0.557000 0.552231 0.070203 -0.064869
C30   C     C_R   0.557071 0.552297 0.927673 -0.054960
C31   C     C_R   0.636636 0.498358 0.499887 0.964096
C32   C     C_R   0.284247 0.665907 0.613679 0.380350
C33   C     C_R   0.214585 0.712071 0.621557 0.401895
C34   C     C_R   0.166203 0.691239 0.512459 -0.145165
C35   C     C_R   0.192348 0.652237 0.386386 -0.131458
C36   C     C_R   0.263336 0.614837 0.379452 0.320769
H1    H     H_    0.571997 0.227765 0.761870 0.214346
H2    H     H_    0.619983 0.108325 0.940825 0.156541
H3    H     H_    0.603589 0.594661 0.122481 0.145924
H4    H     H_    0.603894 0.594914 0.874053 0.160285
N1    N     N_R   0.045562 0.769824 0.483350 -0.100006
N2    N     N_R   0.973583 0.747116 0.487197 -0.108849
N3    N     N_R   0.985437 0.557146 0.606119 -0.148780
N4    N     N_R   0.057093 0.579107 0.601148 -0.216235
N5    N     N_R   0.499340 0.498800 0.142780 -0.092682
N6    N     N_R   0.499320 0.498720 0.857170 -0.102527
O1    O     O_R   0.500000 0.316780 0.614690 -0.637031
O2    O     O_R   0.499990 0.316750 0.385360 -0.600189
O3    O     O_R   0.398140 0.500000 0.614700 -0.619189
O4    O     O_R   0.398130 0.499970 0.385370 -0.560711
O5    O     O_R   0.500010 0.683250 0.614640 -0.600147
O6    O     O_R   0.500000 0.683220 0.385310 -0.596507
O7    O     O_R   0.601870 0.500030 0.614630 -0.591556
O8    O     O_R   0.601860 0.500000 0.385300 -0.630344
Zn1   Zn    Zn3+2 0.500000 0.500020 0.653130 0.976202
Zn2   Zn    Zn3+2 0.500000 0.499980 0.346870 0.990741
O9    O     O_3   0.341063 0.709752 0.697341 -0.566892
C37   C     C_3   0.323788 0.694330 0.835148 -0.139499
H5    H     H_    0.282541 0.614260 0.856292 0.112304
H6    H     H_    0.306338 0.784295 0.876060 0.203624
H7    H     H_    0.373927 0.674112 0.889239 0.154288
O10   O     O_3   0.672754 0.882747 0.915111 -0.656244
C38   C     C_3   0.741776 0.950542 0.920707 -0.361960
H8    H     H_    0.738914 0.044043 0.969913 0.174751
H9    H     H_    0.766956 0.963322 0.818748 0.161249
H10   H     H_    0.777841 0.894858 0.982979 0.228277
C39   C     C_2   0.656334 0.779112 0.657013 0.377350
H11   H     H_    0.677990 0.715657 0.730132 0.111631
O11   O     O_2   0.674917 0.773112 0.539269 -0.630859
O12   O     O_3   0.529098 0.884357 0.247660 -0.641076
C40   C     C_3   0.598012 0.852769 0.204585 -0.173123
H12   H     H_    0.591473 0.810590 0.103641 0.217193
H13   H     H_    0.620191 0.781487 0.273085 0.203999
H14   H     H_    0.637619 0.937754 0.194648 0.167388
C41   C     C_2   0.393414 0.263441 0.225755 0.622037
H15   H     H_    0.435611 0.204033 0.197605 0.016263
O13   O     O_2   0.356445 0.235423 0.325635 -0.584415
O14   O     O_3   0.256247 0.271344 0.124686 -0.575999
C42   C     C_3   0.216987 0.333907 0.221663 -0.147052
H16   H     H_    0.193401 0.418062 0.177656 0.131153
H17   H     H_    0.250534 0.360493 0.310931 0.213934
H18   H     H_    0.171022 0.267589 0.257428 0.173573
O15   O     O_3   0.251337 0.323706 0.854459 -0.592189
C43   C     C_3   0.187694 0.380306 0.891228 -0.199562
H19   H     H_    0.197568 0.470408 0.947838 0.095187
H20   H     H_    0.151885 0.311465 0.951621 0.211213
H21   H     H_    0.157943 0.402050 0.797913 0.168396
C44   C     C_2   0.386823 0.276326 0.772007 0.638379
H22   H     H_    0.356367 0.268740 0.678602 0.096380
O16   O     O_2   0.422369 0.189275 0.806945 -0.597928
O17   O     O_3   0.199709 0.796621 0.722006 -0.575469
C45   C     C_3   0.149739 0.739117 0.817071 -0.297229
H23   H     H_    0.146969 0.633450 0.819417 0.123317
H24   H     H_    0.094911 0.770651 0.797515 0.199744
H25   H     H_    0.166152 0.772278 0.919075 0.183932
C46   C     C_2   0.148157 0.647196 0.260376 0.424501
H26   H     H_    0.174844 0.645692 0.162925 0.074777
O18   O     O_2   0.082003 0.640627 0.262154 -0.586775
O19   O     O_3   0.294187 0.593318 0.255605 -0.645857
C47   C     C_3   0.333080 0.707195 0.211467 -0.229674
H27   H     H_    0.369970 0.750001 0.290378 0.203105
H28   H     H_    0.295258 0.777348 0.176995 0.145716
H29   H     H_    0.367743 0.685469 0.125045 0.173026
O20   O     O_3   0.857223 0.552280 0.770458 -0.597257
C48   C     C_3   0.839841 0.660468 0.841810 -0.196055
H30   H     H_    0.780961 0.655386 0.866552 0.211538
H31   H     H_    0.856552 0.750039 0.785211 0.128338
H32   H     H_    0.869890 0.663427 0.938516 0.208386
O21   O     O_3   0.716095 0.451762 0.740892 -0.589227
C49   C     C_3   0.733442 0.325131 0.758498 -0.271785
H33   H     H_    0.792754 0.318770 0.772400 0.192325
H34   H     H_    0.713551 0.265515 0.672247 0.146900
H35   H     H_    0.706273 0.286057 0.851532 0.181304
C50   C     C_2   0.729583 0.549349 0.249515 0.457346
H36   H     H_    0.693691 0.468459 0.218854 0.114474
O22   O     O_2   0.745673 0.634551 0.167658 -0.561822
O23   O     O_3   0.875878 0.634585 0.291903 -0.547636
C51   C     C_3   0.906840 0.527517 0.239827 -0.181305
H37   H     H_    0.943297 0.486073 0.314474 0.163358
H38   H     H_    0.940175 0.558148 0.150238 0.213002
H39   H     H_    0.864471 0.453548 0.206354 0.130114
C52   C     C_2   0.567467 0.146152 0.247176 0.408849
H40   H     H_    0.548134 0.110514 0.150500 0.098497
O24   O     O_2   0.610809 0.240012 0.249253 -0.605087

loop_
_geom_bond_atom_site_label_1
_geom_bond_atom_site_label_2
_ccdc_geom_bond_type
C8    C9    A    
C38   H9    S    
C3    N2    A    
C16   C21   A    
C9    O23   S    
N1    N2    A    
C35   C36   A    
C43   H21   S    
C41   H15   S    
C2    C12   S    
C51   H38   S    
C50   H36   S    
C23   O6    A    
C7    C8    A    
C19   C52   S    
C35   C46   S    
C48   H31   S    
C3    N3    A    
C1    C18   S    
O10   C38   S    
C32   O9    S    
C43   H20   S    
C18   C19   A    
C33   O17   S    
C5    C6    A    
C31   O7    A    
C4    N1    A    
C37   H6    S    
C15   C16   A    
C14   O10   S    
C2    C32   A    
C34   C35   A    
C11   H1    S    
C51   H37   S    
C47   H27   S    
C49   H33   S    
C19   C20   A    
N5    Zn2   S    
C16   C17   A    
C46   O18   D    
N6    Zn1   S    
O12   C40   S    
C9    C10   A    
C8    C50   S    
C37   H7    S    
C5    O20   S    
C22   C28   A    
C13   C14   A    
C20   O12   S    
C22   C41   S    
C47   H28   S    
O20   C48   S    
C12   O3    A    
O8    Zn2   S    
O7    Zn1   S    
C48   H32   S    
C4    C34   S    
C28   N5    A    
C7    C31   S    
C39   H11   S    
C24   C25   A    
O17   C45   S    
C40   H13   S    
O14   C42   S    
C1    O1    A    
C4    N4    A    
C37   H5    S    
O3    Zn1   S    
C45   H25   S    
O4    Zn2   S    
C42   H16   S    
C29   N5    A    
C39   O11   D    
C51   H39   S    
N3    N4    A    
C29   C30   A    
C40   H14   S    
C23   O5    A    
O15   C43   S    
C15   C39   S    
C46   H26   S    
C29   H3    S    
C45   H24   S    
C17   C18   A    
C26   C27   A    
C30   H4    S    
C43   H19   S    
C41   O13   D    
C49   H35   S    
C13   H2    S    
C27   N6    A    
C24   O14   S    
C44   O16   D    
C21   C23   S    
C6    O21   S    
C22   C24   A    
C52   O24   D    
O1    Zn1   S    
C2    C36   A    
O2    Zn2   S    
C11   C17   A    
C20   C21   A    
C30   N6    A    
C42   H18   S    
C50   O22   D    
C1    O2    A    
C6    C7    A    
C48   H30   S    
C42   H17   S    
O19   C47   S    
C32   C33   A    
C25   C26   A    
C5    C10   A    
C3    C10   S    
O23   C51   S    
C11   C13   A    
O9    C37   S    
C45   H23   S    
C33   C34   A    
C36   O19   S    
O5    Zn1   S    
C47   H29   S    
C31   O8    A    
C49   H34   S    
C38   H10   S    
C38   H8    S    
C40   H12   S    
C44   H22   S    
C26   C44   S    
C27   C28   A    
C25   O15   S    
C14   C15   A    
C52   H40   S    
O21   C49   S    
C12   O4    A    
O6    Zn2   S    
