data_mof_unit_58036.cif
_audit_creation_date              2012-12-10T17:44:31-0500
_audit_creation_method            fapswitch 2.2
_symmetry_space_group_name_H-M    P1
_symmetry_Int_Tables_number       1
_space_group_crystal_system       triclinic
_cell_length_a                    9.984522
_cell_length_b                    10.619647
_cell_length_c                    15.351101
_cell_angle_alpha                 91.519544
_cell_angle_beta                  70.074039
_cell_angle_gamma                 89.762924
_cell_volume                      1529.57622039

loop_
_atom_site_label
_atom_site_type_symbol
_atom_type_description
_atom_site_fract_x
_atom_site_fract_y
_atom_site_fract_z
_atom_type_partial_charge
C1    C     C_R   0.500952 0.739073 0.497667 0.847261
C2    C     C_R   0.734449 0.411347 0.035461 0.170817
C3    C     C_R   0.588353 0.397131 0.087985 0.097713
C4    C     C_R   0.412095 0.493925 0.675468 0.871514
C5    C     C_R   0.830363 0.452983 0.078377 -0.225441
C6    C     C_R   0.783075 0.481789 0.172651 -0.190411
C7    C     C_R   0.542754 0.427075 0.182985 -0.281734
C8    C     C_R   0.460813 0.863175 0.341679 -0.175734
C9    C     C_R   0.440720 0.926368 0.268473 -0.131643
C10   C     C_R   0.441669 0.057401 0.268247 -0.138911
C11   C     C_R   0.462603 0.125682 0.341270 -0.188451
C12   C     C_R   0.434857 0.384113 0.900964 0.094625
C13   C     C_R   0.481598 0.063072 0.416596 0.095621
C14   C     C_R   0.480712 0.931063 0.416823 0.098333
C15   C     C_R   0.504038 0.871295 0.491523 -0.086404
C16   C     C_R   0.501607 0.260794 0.497435 0.865093
C17   C     C_R   0.533131 0.937967 0.562064 -0.217748
C18   C     C_R   0.533894 0.066618 0.561854 -0.194702
C19   C     C_R   0.505612 0.128171 0.491083 -0.096411
C20   C     C_R   0.799239 0.671493 0.616602 -0.158519
C21   C     C_R   0.840382 0.759845 0.670713 -0.196285
C22   C     C_R   0.979787 0.761380 0.669163 -0.221254
C23   C     C_R   0.291800 0.354377 0.949849 0.103734
C24   C     C_R   0.078346 0.673092 0.614742 -0.124509
C25   C     C_R   0.042028 0.585103 0.556630 0.183493
C26   C     C_R   0.897733 0.584706 0.557036 0.167292
C27   C     C_R   0.957807 0.418987 0.445280 -0.117037
C28   C     C_R   0.587986 0.495489 0.324715 0.835350
C29   C     C_R   0.100393 0.418898 0.445391 -0.110169
C30   C     C_R   0.365072 0.455891 0.772716 -0.171915
C31   C     C_R   0.638958 0.470277 0.225004 -0.050813
C32   C     C_R   0.189624 0.365860 0.906982 -0.329251
C33   C     C_R   0.222971 0.424562 0.821723 0.551493
C34   C     C_R   0.537525 0.373122 0.944595 0.087897
C35   C     C_R   0.469274 0.434864 0.812901 -0.350978
C36   C     C_3   0.062871 0.574440 0.821224 -0.362187
C37   C     C_R   0.491048 0.365194 0.042154 0.066586
C38   C     C_R   0.348427 0.331327 0.089549 -0.241768
C39   C     C_R   0.251508 0.320787 0.042565 -0.205444
C40   C     C_R   0.684605 0.373894 0.894408 -0.229162
C41   C     C_R   0.781547 0.388145 0.940165 -0.260466
H1    H     H_    0.142335 0.296051 0.080663 0.148967
H2    H     H_    0.689384 0.673584 0.623886 0.197846
H3    H     H_    0.762965 0.826395 0.715122 0.148900
H4    H     H_    0.431618 0.421702 0.224764 0.155307
H5    H     H_    0.010799 0.828674 0.712766 0.150956
H6    H     H_    0.180810 0.674231 0.621741 0.199540
H7    H     H_    0.177301 0.352431 0.400570 0.139154
H8    H     H_    0.858841 0.514825 0.204236 0.160155
H9    H     H_    0.892773 0.386855 0.900169 0.210067
H10   H     H_    0.082809 0.333847 0.941410 0.145087
H11   H     H_    0.576615 0.464710 0.776536 0.188349
H12   H     H_    0.940597 0.469306 0.039088 0.134673
H13   H     H_    0.310216 0.311038 0.162427 0.135325
H14   H     H_    0.726519 0.362234 0.819756 0.166296
H15   H     H_    0.142316 0.647214 0.788074 0.158825
H16   H     H_    0.031923 0.584586 0.897949 0.152354
H17   H     H_    0.965091 0.591819 0.804370 0.215607
H18   H     H_    0.552414 0.890131 0.618323 0.136276
H19   H     H_    0.462719 0.761394 0.337918 0.152618
H20   H     H_    0.425800 0.873441 0.211307 0.140080
H21   H     H_    0.427594 0.106283 0.210902 0.138641
H22   H     H_    0.465893 0.227135 0.337264 0.139556
H23   H     H_    0.553452 0.118599 0.618035 0.154624
H24   H     H_    0.928578 0.352615 0.400370 0.146697
N1    N     N_R   0.856800 0.501200 0.500850 -0.120028
N2    N     N_R   0.142390 0.501280 0.500880 -0.116910
O1    O     O_R   0.385310 0.683220 0.500000 -0.641902
O2    O     O_R   0.614640 0.683250 0.500010 -0.623732
O3    O     O_R   0.319840 0.499980 0.632240 -0.571845
O4    O     O_R   0.549160 0.500000 0.632250 -0.643518
O5    O     O_R   0.385360 0.316750 0.499990 -0.608963
O6    O     O_R   0.614690 0.316780 0.500000 -0.609844
O7    O     O_R   0.450840 0.500000 0.367750 -0.630404
O8    O     O_R   0.680160 0.500020 0.367760 -0.609477
O9    O     O_3   0.115517 0.452397 0.787697 -0.602029
Zn1   Zn    Zn3+2 0.346880 0.499980 0.499990 0.949559
Zn2   Zn    Zn3+2 0.653120 0.500020 0.500010 0.933722

loop_
_geom_bond_atom_site_label_1
_geom_bond_atom_site_label_2
_ccdc_geom_bond_type
C27   C29   A    
C34   C37   A    
C16   O5    A    
C28   O7    A    
C4    O3    A    
C12   C23   A    
C37   C38   A    
C30   C35   A    
C9    H20   S    
C7    H4    S    
C5    H12   S    
C28   O8    A    
C36   H17   S    
C5    C6    A    
C2    C41   A    
C1    O1    A    
C18   C19   A    
C36   O9    S    
C29   N2    A    
C8    C9    A    
O7    Zn1   S    
C25   N2    A    
O6    Zn2   S    
C1    C15   S    
C9    C10   A    
C6    C31   A    
C13   C14   A    
O3    Zn1   S    
O2    Zn2   S    
C10   H21   S    
C39   H1    S    
N1    Zn2   S    
C7    C31   A    
C13   C19   A    
C29   H7    S    
C16   O6    A    
C26   N1    A    
C24   C25   A    
C36   H16   S    
C25   C26   A    
C1    O2    A    
C32   H10   S    
O5    Zn1   S    
C27   H24   S    
N2    Zn1   S    
C21   H3    S    
C33   O9    S    
C38   H13   S    
C40   H14   S    
C17   C18   A    
C12   C35   A    
C17   H18   S    
C40   C41   A    
C22   H5    S    
C22   C24   A    
C2    C5    A    
C12   C34   A    
C41   H9    S    
C20   H2    S    
O1    Zn1   S    
C15   C17   A    
C8    C14   A    
C30   C33   A    
C24   H6    S    
C28   C31   S    
C23   C32   A    
C3    C7    A    
C32   C33   A    
C2    C3    A    
C27   N1    A    
C8    H19   S    
C11   C13   A    
C18   H23   S    
C38   C39   A    
C20   C26   A    
C16   C19   S    
C23   C39   A    
C36   H15   S    
O4    Zn2   S    
C6    H8    S    
O8    Zn2   S    
C10   C11   A    
C20   C21   A    
C3    C37   A    
C35   H11   S    
C14   C15   A    
C34   C40   A    
C21   C22   A    
C11   H22   S    
C4    O4    A    
C4    C30   S    
