data_mof_unit_44007.cif
_audit_creation_date              2013-03-05T15:42:51-0500
_audit_creation_method            fapswitch 2.2
_symmetry_space_group_name_H-M    P1
_symmetry_Int_Tables_number       1
_space_group_crystal_system       triclinic
_cell_length_a                    15.072809
_cell_length_b                    15.067227
_cell_length_c                    10.025184
_cell_angle_alpha                 87.920239
_cell_angle_beta                  89.753239
_cell_angle_gamma                 89.902241
_cell_volume                      2275.25016568

loop_
_atom_site_label
_atom_site_type_symbol
_atom_site_description
_atom_site_fract_x
_atom_site_fract_y
_atom_site_fract_z
_atom_type_partial_charge
O1    O     O_R   0.409520 0.909540 0.613040 -0.568933
O2    O     O_R   0.409520 0.090460 0.613040 -0.587658
O3    O     O_R   0.909520 0.409540 0.613040 -0.568901
O4    O     O_R   0.909520 0.590460 0.613040 -0.587650
O5    O     O_R   0.409560 0.909540 0.386900 -0.614696
O6    O     O_R   0.409560 0.090460 0.386900 -0.601615
O7    O     O_R   0.909560 0.409540 0.386900 -0.614603
O8    O     O_R   0.909560 0.590460 0.386900 -0.601686
C1    C     C_R   0.376062 0.886290 0.501905 0.854785
C2    C     C_R   0.382872 0.120601 0.497982 0.891544
C3    C     C_R   0.876062 0.386290 0.501904 0.854894
C4    C     C_R   0.882875 0.620604 0.497984 0.891507
Zn1   Zn    Zn3+2 0.499970 0.000000 0.650990 1.056768
Zn2   Zn    Zn3+2 0.999970 0.500000 0.650990 1.056782
Zn3   Zn    Zn3+2 0.500030 0.000000 0.349010 1.054857
Zn4   Zn    Zn3+2 0.000030 0.500000 0.349010 1.054837
O9    O     O_R   0.590440 0.090460 0.613100 -0.585114
O10   O     O_R   0.590440 0.909540 0.613100 -0.619130
O11   O     O_R   0.090440 0.590460 0.613100 -0.585018
O12   O     O_R   0.090440 0.409540 0.613100 -0.619276
O13   O     O_R   0.590480 0.090460 0.386960 -0.594102
O14   O     O_R   0.590480 0.909540 0.386960 -0.573493
O15   O     O_R   0.090480 0.590460 0.386960 -0.594013
O16   O     O_R   0.090480 0.409540 0.386960 -0.573595
C5    C     C_R   0.617602 0.120134 0.497704 0.979546
C6    C     C_R   0.611028 0.874514 0.501946 0.975692
C7    C     C_R   0.117602 0.620134 0.497704 0.979523
C8    C     C_R   0.111031 0.374516 0.501950 0.975755
C9    C     C_2   0.678105 0.745065 0.402211 0.371583
C10   C     C_2   0.680455 0.254924 0.397442 0.363575
C11   C     C_2   0.178050 0.245007 0.402288 0.371571
C12   C     C_2   0.180449 0.754929 0.397450 0.363594
C13   C     C_2   0.659968 0.793015 0.509045 -0.369780
C14   C     C_2   0.682697 0.188120 0.490430 -0.352480
C15   C     C_2   0.159980 0.293026 0.509073 -0.369722
C16   C     C_2   0.182696 0.688121 0.490430 -0.352477
H1    H     H_    0.687916 0.774542 0.606010 0.169581
H2    H     H_    0.736850 0.180813 0.561199 0.164211
H3    H     H_    0.187983 0.274607 0.606019 0.169525
H4    H     H_    0.236854 0.680810 0.561190 0.164215
C17   C     C_2   0.248830 0.179921 0.414508 -0.312396
C18   C     C_2   0.254748 0.816000 0.393790 -0.298343
C19   C     C_2   0.748878 0.679975 0.414422 -0.312404
C20   C     C_2   0.754753 0.315994 0.393786 -0.298297
C21   C     C_2   0.321525 0.192356 0.489040 0.131641
C22   C     C_2   0.290782 0.843156 0.507515 0.071938
C23   C     C_2   0.821537 0.692367 0.489053 0.131698
C24   C     C_2   0.790783 0.343155 0.507512 0.071915
H5    H     H_    0.239219 0.117775 0.364388 0.181797
H6    H     H_    0.285302 0.830676 0.297148 0.209773
H7    H     H_    0.739290 0.617861 0.364200 0.181767
H8    H     H_    0.785313 0.330667 0.297145 0.209796
C25   C     C_2   0.571653 0.991645 0.924971 -0.058822
C26   C     C_2   0.071599 0.491282 0.924989 -0.059017
N1    N     N_2   0.501330 1.000000 0.852150 -0.179467
N2    N     N_2   0.001330 0.500000 0.852150 -0.179449
H9    H     H_    0.634871 0.981767 0.875487 0.178485
H10   H     H_    0.134756 0.481080 0.875523 0.178517
H11   H     H_    0.442029 0.013991 0.897447 0.190639
H12   H     H_    0.942107 0.514288 0.897430 0.190683
C27   C     C_2   0.572083 0.996725 0.074729 -0.024114
C28   C     C_2   0.072053 0.496349 0.074748 -0.024251
N3    N     N_2   0.501360 0.000000 0.147810 -0.175462
N4    N     N_2   0.001360 0.500000 0.147810 -0.175502
H13   H     H_    0.636050 0.996137 0.123982 0.176548
H14   H     H_    0.136005 0.495412 0.124016 0.176652
H15   H     H_    0.440591 0.995799 0.102785 0.181319
H16   H     H_    0.940580 0.496142 0.102770 0.181333
N5    N     N_R   0.627981 0.751808 0.280288 0.235893
O17   O     O_R   0.666819 0.736548 0.167196 -0.333011
O18   O     O_R   0.541720 0.755528 0.284564 -0.359092
N6    N     N_R   0.609613 0.267490 0.302453 0.240397
O19   O     O_R   0.626209 0.304371 0.185665 -0.319898
O20   O     O_R   0.527381 0.258893 0.340750 -0.316331
N7    N     N_R   0.127828 0.251650 0.280452 0.235843
O21   O     O_R   0.166527 0.236116 0.167376 -0.333113
O22   O     O_R   0.041581 0.255511 0.284871 -0.359136
N8    N     N_R   0.109599 0.767503 0.302476 0.240440
O23   O     O_R   0.126185 0.804397 0.185694 -0.319815
O24   O     O_R   0.027371 0.758898 0.340786 -0.316385
N9    N     N_R   0.347850 0.277046 0.538560 0.212061
O25   O     O_R   0.395218 0.279907 0.646517 -0.307641
O26   O     O_R   0.340377 0.348748 0.462979 -0.325066
N10   N     N_R   0.242570 0.838560 0.632680 0.212569
O27   O     O_R   0.283192 0.817829 0.743811 -0.330080
O28   O     O_R   0.158840 0.859720 0.636493 -0.298465
N11   N     N_R   0.847828 0.777026 0.538734 0.212060
O29   O     O_R   0.895130 0.779823 0.646775 -0.307619
O30   O     O_R   0.840397 0.848775 0.463239 -0.325003
N12   N     N_R   0.742565 0.338565 0.632673 0.212556
O31   O     O_R   0.783183 0.317840 0.743810 -0.330068
O32   O     O_R   0.658835 0.359723 0.636476 -0.298474

loop_
_geom_bond_atom_site_label_1
_geom_bond_atom_site_label_2
_geom_bond_distance
_ccdc_geom_bond_type
Zn2   N2    2.016857 S    
N11   O29   1.301284 A    
N1    H11   1.025871 S    
O10   C6    1.286749 A    
N9    O25   1.301203 A    
O7    C3    1.293522 A    
Zn1   O10   1.971875 S    
C12   C16   1.347350 D    
N10   O28   1.301901 A    
N8    O24   1.301258 A    
C9    C13   1.340446 D    
N5    O18   1.301896 A    
C18   C22   1.342467 D    
C27   N3    1.292773 D    
O2    Zn1   1.954900 S    
C28   N4    1.292636 D    
O6    Zn3   1.971874 S    
N12   O32   1.301901 A    
Zn3   O14   1.954903 S    
C8    C15   1.431091 S    
O15   C7    1.280699 A    
O4    C4    1.289728 A    
O11   C7    1.290298 A    
C5    C14   1.419402 S    
C20   H8    1.086576 S    
C1    C22   1.441319 S    
Zn4   O16   1.954903 S    
C24   N12   1.446870 S    
C9    C19   1.450379 S    
C10   C20   1.450140 S    
C3    C24   1.441317 S    
C25   C27   1.506122 S    
C4    C23   1.422047 S    
C17   H5    1.088791 S    
N9    O26   1.301880 A    
C9    N5    1.440074 S    
C25   N1    1.293011 D    
N3    H15   1.025945 S    
C10   C14   1.347349 D    
Zn2   O12   1.971875 S    
C16   H4    1.086617 S    
C28   H14   1.084847 S    
O1    C1    1.285357 A    
N10   O27   1.301409 A    
N6    O20   1.301257 A    
C25   H9    1.084903 S    
N8    O23   1.301123 A    
C26   C28   1.506109 S    
C13   H1    1.087831 S    
N2    H12   1.025763 S    
C23   N11   1.442823 S    
C15   H3    1.087807 S    
N7    O21   1.301223 A    
O5    C1    1.293525 A    
C6    C13   1.431113 S    
C11   N7    1.440059 S    
O8    C4    1.280812 A    
C2    C21   1.422038 S    
N7    O22   1.301826 A    
Zn3   N3    2.017080 S    
O3    Zn2   1.977270 S    
C18   H6    1.086576 S    
C22   N10   1.446870 S    
O7    Zn4   1.955970 S    
Zn4   O15   1.977271 S    
N11   O30   1.301919 A    
C11   C15   1.340411 D    
O1    Zn1   1.977270 S    
O2    C2    1.289742 A    
N4    H16   1.025771 S    
C26   H10   1.084783 S    
O13   C5    1.280698 A    
C12   C18   1.450145 S    
C11   C17   1.450436 S    
C14   H2    1.086617 S    
Zn2   O11   1.955969 S    
C21   N9    1.442764 S    
O16   C8    1.289079 A    
N6    O19   1.301126 A    
O6    C2    1.280791 A    
C10   N6    1.441476 S    
C26   N2    1.292864 D    
C7    C16   1.419403 S    
O12   C8    1.286711 A    
Zn1   O9    1.955969 S    
O9    C5    1.290298 A    
C19   H7    1.088819 S    
N12   O31   1.301409 A    
O4    Zn2   1.954900 S    
N5    O17   1.301426 A    
O5    Zn3   1.955970 S    
O3    C3    1.285360 A    
C12   N8    1.441476 S    
C27   H13   1.085010 S    
Zn3   O13   1.977271 S    
O8    Zn4   1.971874 S    
O14   C6    1.289051 A    
C17   C21   1.346081 D    
Zn4   N4    2.017080 S    
C19   C23   1.346086 D    
C20   C24   1.342469 D    
Zn1   N1    2.016857 S    
