data_mof_unit_50036.cif
_audit_creation_date              2012-12-10T16:44:39-0500
_audit_creation_method            fapswitch 2.2
_symmetry_space_group_name_H-M    P1
_symmetry_Int_Tables_number       1
_space_group_crystal_system       triclinic
_cell_length_a                    15.153442
_cell_length_b                    8.727367
_cell_length_c                    7.415199
_cell_angle_alpha                 102.685607
_cell_angle_beta                  94.892392
_cell_angle_gamma                 92.249406
_cell_volume                      951.536535785

loop_
_atom_site_label
_atom_site_type_symbol
_atom_type_description
_atom_site_fract_x
_atom_site_fract_y
_atom_site_fract_z
_atom_type_partial_charge
C1    C     C_R   0.495387 0.200307 0.454269 0.842073
C2    C     C_R   0.504721 0.799694 0.545726 0.831577
C3    C     C_R   0.028732 0.372751 0.171234 -0.212007
C4    C     C_R   0.971431 0.632049 0.827452 -0.173099
C5    C     C_2   0.484476 0.033666 0.431212 -0.048115
C6    C     C_2   0.515736 0.966332 0.568744 -0.046276
C7    C     C_R   0.328653 0.499905 0.501127 0.875313
C8    C     C_R   0.671430 0.501230 0.499256 0.844837
C9    C     C_R   0.823950 0.578570 0.661585 0.031735
C10   C     C_R   0.177048 0.426786 0.338296 0.036625
C11   C     C_R   0.768425 0.502075 0.499893 -0.206596
C12   C     C_R   0.231785 0.500653 0.501064 -0.172789
C13   C     C_R   0.806214 0.422741 0.340420 0.375754
C14   C     C_R   0.194019 0.579769 0.660317 0.356498
C15   C     C_R   0.898784 0.433567 0.336067 -0.018975
C16   C     C_R   0.101440 0.570166 0.663494 -0.018472
C17   C     C_R   0.953694 0.502286 0.499546 -0.008113
C18   C     C_R   0.046684 0.502264 0.499217 0.013735
C19   C     C_R   0.916038 0.571168 0.663452 0.111164
C20   C     C_R   0.084471 0.433961 0.334937 0.062117
C21   C     C_R   0.937317 0.374286 0.171499 -0.193398
C22   C     C_R   0.062780 0.629493 0.827947 -0.235476
Cu1   Cu    Cu3+1 0.510010 0.517380 0.684380 0.968708
Cu2   Cu    Cu3+1 0.489990 0.482620 0.315620 0.987833
H1    H     H_    0.896966 0.327269 0.041912 0.171271
H2    H     H_    0.102960 0.675642 0.957961 0.174494
H3    H     H_    0.054764 0.322931 0.041128 0.146347
H4    H     H_    0.944664 0.681289 0.957159 0.179980
H5    H     H_    0.430686 0.377848 0.947321 0.229621
H6    H     H_    0.569325 0.622140 0.052668 0.222160
N1    N     N_2   0.474890 0.456420 0.038520 -0.189496
N2    N     N_2   0.525110 0.543580 0.961480 -0.197722
O1    O     O_R   0.506510 0.286130 0.619770 -0.557934
O2    O     O_R   0.493490 0.713870 0.380230 -0.559314
O3    O     O_R   0.489600 0.256770 0.308360 -0.607092
O4    O     O_R   0.510400 0.743230 0.691640 -0.612882
O5    O     O_R   0.378710 0.514640 0.655720 -0.553280
O6    O     O_R   0.621290 0.485360 0.344280 -0.543297
O7    O     O_R   0.361800 0.485290 0.344300 -0.552797
O8    O     O_R   0.638200 0.514710 0.655700 -0.599298
N3    N     N_3   0.788836 0.668724 0.823544 -0.609017
H7    H     H_    0.745361 0.748694 0.785137 0.218841
H8    H     H_    0.757068 0.593086 0.892262 0.267871
N4    N     N_3   0.216243 0.341662 0.178914 -0.567086
H9    H     H_    0.202200 0.395155 0.067463 0.240935
H10   H     H_    0.189600 0.225438 0.144473 0.199214
O9    O     O_3   0.751873 0.338458 0.187523 -0.567202
C23   C     C_3   0.761383 0.174288 0.166350 0.062396
H11   H     H_    0.822980 0.142697 0.240129 0.129622
H12   H     H_    0.763876 0.121715 0.016338 0.158599
C24   C     C_3   0.681927 0.097664 0.231376 -0.791307
H13   H     H_    0.620362 0.120073 0.151914 0.264472
H14   H     H_    0.688214 0.968573 0.207596 0.193623
H15   H     H_    0.678443 0.145992 0.381937 0.230937
O10   O     O_3   0.248377 0.662803 0.813920 -0.562919
C25   C     C_3   0.239550 0.827263 0.836233 0.060778
H16   H     H_    0.237588 0.879371 0.986511 0.156027
H17   H     H_    0.177956 0.859986 0.763577 0.127487
C26   C     C_3   0.319031 0.903258 0.770602 -0.790836
H18   H     H_    0.322025 0.855295 0.619810 0.229185
H19   H     H_    0.313222 0.032500 0.795127 0.194441
H20   H     H_    0.380624 0.879869 0.849155 0.266428
N5    N     N_3   0.435595 0.944457 0.263358 -0.561295
H21   H     H_    0.469863 0.957969 0.150802 0.221929
H22   H     H_    0.373535 0.991232 0.249469 0.209704
N6    N     N_3   0.564723 0.055520 0.736491 -0.562527
H23   H     H_    0.530545 0.042068 0.849190 0.222752
H24   H     H_    0.626776 0.008685 0.750217 0.201533

loop_
_geom_bond_atom_site_label_1
_geom_bond_atom_site_label_2
_ccdc_geom_bond_type
Cu1   O8    S    
Cu1   O1    S    
N6    H24   S    
Cu1   Cu2   S    
N5    H22   S    
C25   H17   S    
C4    C22   A    
N3    H7    S    
N3    H8    S    
C9    N3    S    
O9    C23   S    
C25   C26   S    
C12   C14   A    
O10   C25   S    
C24   H15   S    
C16   C22   A    
Cu1   N2    S    
C2    O2    A    
C3    H3    S    
C14   O10   S    
C7    O5    A    
Cu2   N1    S    
C1    O1    A    
C26   H18   S    
H5    N1    S    
C16   C18   A    
C3    C20   A    
C25   H16   S    
H6    N2    S    
C11   C13   A    
C9    C11   A    
C2    C6    S    
C6    N6    S    
C10   C12   A    
C8    O6    A    
C8    C11   S    
C1    C5    S    
C23   H12   S    
C23   H11   S    
C17   C19   A    
N4    H10   S    
N6    H23   S    
C18   C20   A    
C13   C15   A    
C5    C6    D    
C14   C16   A    
C7    C12   S    
C26   H19   S    
Cu2   O3    S    
C3    C21   A    
C10   N4    S    
Cu2   O6    S    
C15   C21   A    
Cu2   O7    S    
C24   H13   S    
N4    H9    S    
C5    N5    S    
C17   C18   A    
Cu1   O4    S    
C22   H2    S    
C2    O4    A    
C15   C17   A    
C1    O3    A    
C7    O7    A    
C26   H20   S    
C21   H1    S    
C8    O8    A    
C4    H4    S    
Cu1   O5    S    
C4    C19   A    
C13   O9    S    
C9    C19   A    
C23   C24   S    
Cu2   O2    S    
N1    N2    D    
C10   C20   A    
N5    H21   S    
C24   H14   S    
