data_mof_unit_62487.cif
_audit_creation_date              2013-03-05T16:22:43-0500
_audit_creation_method            fapswitch 2.2
_symmetry_space_group_name_H-M    P1
_symmetry_Int_Tables_number       1
_space_group_crystal_system       triclinic
_cell_length_a                    30.769942
_cell_length_b                    21.724778
_cell_length_c                    21.736444
_cell_angle_alpha                 90.137228
_cell_angle_beta                  135.090186
_cell_angle_gamma                 89.575513
_cell_volume                      10257.8273666

loop_
_atom_site_label
_atom_site_type_symbol
_atom_site_description
_atom_site_fract_x
_atom_site_fract_y
_atom_site_fract_z
_atom_type_partial_charge
O1    O     O_R   0.090190 0.500000 0.142390 -0.597286
O2    O     O_R   0.590190 0.000000 0.142390 -0.598439
O3    O     O_R   0.090130 0.500000 0.037950 -0.584051
O4    O     O_R   0.590130 0.000000 0.037950 -0.583090
C1    C     C_R   0.118681 0.499669 0.118884 0.797989
C2    C     C_R   0.618616 0.999808 0.118645 0.783973
O5    O     O_R   0.000030 0.590170 0.052220 -0.586609
O6    O     O_R   0.000030 0.409830 0.052220 -0.601166
O7    O     O_R   0.500030 0.090170 0.052220 -0.593341
O8    O     O_R   0.500030 0.909830 0.052220 -0.584951
O9    O     O_R   0.999970 0.590160 0.947780 -0.592049
O10   O     O_R   0.999970 0.409840 0.947780 -0.580176
O11   O     O_R   0.499970 0.090160 0.947780 -0.582519
O12   O     O_R   0.499970 0.909840 0.947780 -0.588091
C3    C     C_R   0.999899 0.618957 0.999836 0.798072
C4    C     C_R   0.001429 0.381241 0.001277 0.800276
C5    C     C_R   0.500734 0.118668 0.000760 0.792531
C6    C     C_R   0.500950 0.881244 0.000799 0.796542
Cu1   Cu    Cu3+1 0.000030 0.500000 0.061840 0.914591
Cu2   Cu    Cu3+1 0.500030 0.000000 0.061840 0.924835
Cu3   Cu    Cu3+1 0.999960 0.500000 0.938160 0.946532
Cu4   Cu    Cu3+1 0.499960 0.000000 0.938160 0.948751
O13   O     O_R   0.909850 0.500000 0.962050 -0.584780
O14   O     O_R   0.409850 1.000000 0.962050 -0.584577
O15   O     O_R   0.909790 0.500000 0.857610 -0.583926
O16   O     O_R   0.409790 0.000000 0.857610 -0.582324
C7    C     C_R   0.881408 0.499844 0.881324 0.804974
C8    C     C_R   0.381422 0.000060 0.881357 0.804576
C9    C     C_R   0.026273 0.718786 0.074937 0.084420
C10   C     C_R   0.958834 0.283133 0.994079 0.078631
C11   C     C_R   0.472382 0.219249 0.017102 0.091702
C12   C     C_R   0.455051 0.783066 0.986122 0.069749
C13   C     C_R   0.002514 0.685842 0.001380 -0.094705
C14   C     C_R   0.000351 0.314671 0.999016 -0.085313
C15   C     C_R   0.502207 0.185043 0.001991 -0.095152
C16   C     C_R   0.499886 0.814682 0.998508 -0.070090
C17   C     C_R   0.984780 0.718635 0.930432 -0.210103
C18   C     C_R   0.036185 0.281321 0.992521 -0.210855
C19   C     C_R   0.533259 0.217654 0.986541 -0.211981
C20   C     C_R   0.539724 0.781440 0.999702 -0.214232
H1    H     H_    0.968843 0.694685 0.873784 0.164389
H2    H     H_    0.066936 0.304828 0.992173 0.161988
H3    H     H_    0.557967 0.193254 0.975367 0.166506
H4    H     H_    0.573033 0.805083 0.004779 0.146448
C21   C     C_R   0.984175 0.783112 0.930032 -0.228613
C22   C     C_R   0.035983 0.216911 0.993492 -0.174758
C23   C     C_R   0.533466 0.282537 0.987326 -0.180462
C24   C     C_R   0.539542 0.717052 0.000572 -0.202101
H5    H     H_    0.968446 0.807784 0.873872 0.141536
H6    H     H_    0.066916 0.191659 0.994438 0.209658
H7    H     H_    0.558367 0.306895 0.976909 0.209186
H8    H     H_    0.572894 0.691882 0.006492 0.157795
C25   C     C_R   0.001835 0.815170 0.000821 -0.065656
C26   C     C_R   0.997316 0.185633 0.995851 -0.120797
C27   C     C_R   0.500782 0.315250 0.000362 -0.105075
C28   C     C_R   0.497413 0.685629 0.995813 -0.104906
C29   C     C_R   0.025502 0.782288 0.074310 0.087019
C30   C     C_R   0.954079 0.219679 0.987058 0.114258
C31   C     C_R   0.469967 0.281367 0.013658 0.056894
C32   C     C_R   0.451167 0.719495 0.980107 0.115228
C33   C     C_3   0.012009 0.784998 0.128471 -0.152191
C34   C     C_3   0.939040 0.217280 0.039702 -0.139035
C35   C     C_3   0.432714 0.285251 0.034095 -0.138722
C36   C     C_3   0.430502 0.717406 0.025686 -0.131549
C37   C     C_3   0.013941 0.714618 0.130074 -0.444097
C38   C     C_3   0.948862 0.286720 0.051669 -0.494367
C39   C     C_3   0.435253 0.214053 0.037038 -0.468024
C40   C     C_3   0.438421 0.787117 0.035661 -0.495005
H9    H     H_    0.051382 0.804984 0.193680 0.149498
H10   H     H_    0.973367 0.190685 0.101501 0.150537
H11   H     H_    0.458578 0.306882 0.098503 0.152681
H12   H     H_    0.463172 0.692287 0.089030 0.152223
H13   H     H_    0.970063 0.691207 0.096730 0.199321
H14   H     H_    0.907556 0.314918 0.022129 0.193091
H15   H     H_    0.390697 0.190953 0.983686 0.187176
H16   H     H_    0.395408 0.814324 0.999764 0.194687
H17   H     H_    0.054300 0.695554 0.195741 0.175185
H18   H     H_    0.991384 0.299816 0.119486 0.190177
H19   H     H_    0.462582 0.194817 0.103207 0.186909
H20   H     H_    0.477823 0.801660 0.104298 0.198463
C41   C     C_R   0.218945 0.452135 0.246245 0.055746
C42   C     C_R   0.717706 0.052133 0.231452 0.046732
C43   C     C_R   0.185101 0.499880 0.185248 -0.103971
C44   C     C_R   0.684913 0.999347 0.184006 -0.090311
C45   C     C_R   0.216637 0.544941 0.183242 -0.199013
C46   C     C_R   0.717263 0.948252 0.193004 -0.210523
H21   H     H_    0.191505 0.580930 0.134164 0.149838
H22   H     H_    0.692867 0.907473 0.153864 0.139218
C47   C     C_R   0.281106 0.545912 0.248220 -0.238073
C48   C     C_R   0.781829 0.948290 0.257080 -0.226247
H23   H     H_    0.304719 0.582870 0.248751 0.164419
H24   H     H_    0.806078 0.906870 0.267300 0.163399
C49   C     C_R   0.314392 0.499747 0.312618 -0.088776
C50   C     C_R   0.814267 0.000919 0.308940 -0.100076
C51   C     C_R   0.282218 0.450712 0.305869 0.072333
C52   C     C_R   0.780631 0.054315 0.288661 0.069130
C53   C     C_3   0.289583 0.419652 0.373852 -0.495065
C54   C     C_3   0.786866 0.101890 0.344348 -0.464812
C55   C     C_3   0.218662 0.421382 0.308480 0.184183
C56   C     C_3   0.716667 0.097323 0.282950 0.161421
H25   H     H_    0.315278 0.449261 0.432427 0.163136
H26   H     H_    0.310450 0.373084 0.390158 0.191407
H27   H     H_    0.802348 0.146399 0.340309 0.183626
H28   H     H_    0.815473 0.086060 0.412360 0.178506
C57   C     C_R   0.781624 0.459684 0.815903 0.128432
C58   C     C_R   0.280934 0.041717 0.813037 0.127503
C59   C     C_R   0.815203 0.500692 0.814546 -0.084788
C60   C     C_R   0.315276 0.998708 0.814862 -0.082882
C61   C     C_R   0.782182 0.542822 0.744519 -0.213587
C62   C     C_R   0.283090 0.953757 0.748819 -0.215704
H29   H     H_    0.806325 0.575844 0.740528 0.149653
H30   H     H_    0.307907 0.918987 0.747623 0.150433
C63   C     C_R   0.717288 0.543102 0.679964 -0.208465
C64   C     C_R   0.218168 0.953223 0.684438 -0.212562
H31   H     H_    0.692572 0.576306 0.627240 0.153641
H32   H     H_    0.194094 0.918149 0.634479 0.157345
C65   C     C_R   0.685023 0.499876 0.683459 -0.090947
C66   C     C_R   0.185084 0.998818 0.684233 -0.094128
C67   C     C_R   0.719553 0.458443 0.752421 0.123641
C68   C     C_R   0.218872 0.042444 0.749858 0.127605
C69   C     C_3   0.715773 0.406560 0.793093 -0.458637
C70   C     C_3   0.214043 0.098113 0.784892 -0.451081
C71   C     C_3   0.786746 0.407522 0.865076 -0.487977
C72   C     C_3   0.285002 0.097762 0.856386 -0.500439
H33   H     H_    0.696469 0.364331 0.752473 0.205741
H34   H     H_    0.694471 0.420835 0.816090 0.202595
H35   H     H_    0.193340 0.087742 0.809686 0.202204
H36   H     H_    0.193618 0.138133 0.739772 0.205455
H37   H     H_    0.808375 0.366073 0.865507 0.189450
H38   H     H_    0.806418 0.421892 0.929745 0.209223
H39   H     H_    0.305410 0.087895 0.922703 0.208696
H40   H     H_    0.305194 0.137224 0.851459 0.188968
O17   O     O_R   0.947810 1.000000 0.857560 -0.594457
O18   O     O_R   0.447810 0.500000 0.857560 -0.593617
O19   O     O_R   0.052190 0.000000 0.962010 -0.543492
O20   O     O_R   0.552190 0.500000 0.962010 -0.544136
C73   C     C_R   0.000046 0.001233 0.881262 0.867869
C74   C     C_R   0.500085 0.498776 0.881278 0.868342
O21   O     O_R   0.947800 0.909830 0.947720 -0.588641
O22   O     O_R   0.947800 0.090170 0.947720 -0.604821
O23   O     O_R   0.447800 0.409830 0.947720 -0.597093
O24   O     O_R   0.447800 0.590170 0.947720 -0.608228
O25   O     O_R   0.052180 0.909820 0.052170 -0.587116
O26   O     O_R   0.052180 0.090180 0.052170 -0.567000
O27   O     O_R   0.552180 0.409820 0.052170 -0.566969
O28   O     O_R   0.552180 0.590180 0.052170 -0.587010
C75   C     C_R   0.000297 0.881401 0.000547 0.792256
C76   C     C_R   0.999469 0.118894 0.000602 0.816347
C77   C     C_R   0.500192 0.381414 0.000745 0.825403
C78   C     C_R   0.499471 0.618892 0.000503 0.786026
Cu5   Cu    Cu3+1 0.938190 0.000000 0.938110 0.917412
Cu6   Cu    Cu3+1 0.438190 0.500000 0.938110 0.910994
Cu7   Cu    Cu3+1 0.061790 1.000000 0.061790 0.980998
Cu8   Cu    Cu3+1 0.561790 0.500000 0.061790 0.981700
O29   O     O_R   0.947790 1.000000 0.037880 -0.602780
O30   O     O_R   0.447790 0.500000 0.037880 -0.605108
O31   O     O_R   0.052170 1.000000 0.142340 -0.593257
O32   O     O_R   0.552170 0.500000 0.142340 -0.588870
C79   C     C_R   0.000112 0.999366 0.118953 0.775273
C80   C     C_R   0.500123 0.500578 0.118964 0.784259
O33   O     O_R   0.499940 0.552220 0.409760 -0.585188
O34   O     O_R   0.499940 0.447780 0.409760 -0.598944
O35   O     O_R   0.999940 0.052220 0.409760 -0.588478
O36   O     O_R   0.999940 0.947780 0.409760 -0.588480
C81   C     C_R   0.497960 0.499742 0.379266 0.787056
C82   C     C_R   0.000237 0.999970 0.381843 0.798449
O37   O     O_R   0.409830 0.552190 0.409810 -0.590076
O38   O     O_R   0.409830 0.447810 0.409810 -0.594185
O39   O     O_R   0.909830 0.052190 0.409810 -0.582261
O40   O     O_R   0.909830 0.947810 0.409810 -0.594956
C83   C     C_R   0.381136 0.500156 0.381371 0.777505
C84   C     C_R   0.881064 0.000228 0.380135 0.778210
Cu9   Cu    Cu3+1 0.500000 0.561790 0.499990 0.937509
Cu10  Cu    Cu3+1 0.500000 0.438210 0.499990 0.934524
Cu11  Cu    Cu3+1 1.000000 0.061790 0.499990 0.940558
Cu12  Cu    Cu3+1 1.000000 0.938210 0.499990 0.935391
O41   O     O_R   0.500050 0.552150 0.590200 -0.579655
O42   O     O_R   0.500050 0.447850 0.590200 -0.585028
O43   O     O_R   0.000050 0.052150 0.590200 -0.586691
O44   O     O_R   0.000050 0.947850 0.590200 -0.579784
O45   O     O_R   0.590170 0.552180 0.590150 -0.586789
O46   O     O_R   0.590170 0.447820 0.590150 -0.582607
O47   O     O_R   0.090170 0.052180 0.590150 -0.586475
O48   O     O_R   0.090170 0.947820 0.590150 -0.587281
C85   C     C_R   0.499938 0.500103 0.618736 0.821738
C86   C     C_R   0.999884 0.000025 0.618694 0.820955
C87   C     C_R   0.618678 0.499829 0.618487 0.804600
C88   C     C_R   0.118696 0.999737 0.618529 0.799486
C89   C     C_R   0.972476 0.954588 0.754499 0.039290
C90   C     C_R   0.471458 0.545322 0.753662 0.045120
C91   C     C_R   0.001183 0.001761 0.815770 -0.165343
C92   C     C_R   0.501335 0.498383 0.815865 -0.168401
C93   C     C_R   0.036703 0.044953 0.818641 0.365128
C94   C     C_R   0.538195 0.455747 0.819830 0.363534
C95   C     C_R   0.538009 0.456647 0.755194 -0.245280
C96   C     C_R   0.036533 0.044102 0.754013 -0.244983
H41   H     H_    0.564266 0.422260 0.756325 0.184783
H42   H     H_    0.061822 0.078822 0.754378 0.185455
C97   C     C_R   0.502717 0.500716 0.688114 -0.157418
C98   C     C_R   0.002484 0.999630 0.687925 -0.158036
C99   C     C_R   0.472679 0.546891 0.691385 0.144035
C100  C     C_R   0.973631 0.953152 0.692151 0.144459
C101  C     C_3   0.407254 0.568165 0.621991 -0.467934
C102  C     C_3   0.908707 0.931361 0.623233 -0.464063
C103  C     C_3   0.907442 0.933036 0.691831 -0.447005
C104  C     C_3   0.405904 0.566314 0.690497 -0.446161
H43   H     H_    0.376709 0.533627 0.569392 0.182590
H44   H     H_    0.403204 0.615540 0.599081 0.201843
H45   H     H_    0.905743 0.884005 0.601082 0.199890
H46   H     H_    0.877283 0.965708 0.570079 0.188039
H47   H     H_    0.903740 0.886646 0.709205 0.190462
H48   H     H_    0.875281 0.968409 0.678476 0.212014
H49   H     H_    0.374610 0.530618 0.677719 0.208794
H50   H     H_    0.401013 0.612617 0.706994 0.196838
C105  C     C_R   0.947555 0.992519 0.167457 0.050756
C106  C     C_R   0.455231 0.467780 0.172780 0.042537
C107  C     C_R   0.001089 0.998351 0.186676 -0.102945
C108  C     C_R   0.501151 0.498418 0.186731 -0.082411
C109  C     C_R   0.057069 0.004077 0.275734 -0.202083
C110  C     C_R   0.550313 0.523760 0.269379 -0.214195
H51   H     H_    0.100489 0.008509 0.295291 0.167251
H52   H     H_    0.588204 0.545667 0.283840 0.160243
C111  C     C_R   0.548814 0.524415 0.332271 -0.213821
C112  C     C_R   0.057244 0.004676 0.340745 -0.218637
H53   H     H_    0.585748 0.546341 0.394434 0.146863
H54   H     H_    0.100417 0.009032 0.408540 0.141876
C113  C     C_R   0.499077 0.498199 0.313919 -0.085766
C114  C     C_R   0.001546 0.999871 0.317362 -0.104866
C115  C     C_R   0.454361 0.466096 0.235494 0.079561
C116  C     C_R   0.947943 0.994317 0.230042 0.090772
C117  C     C_3   0.384503 0.468343 0.166031 0.166002
C118  C     C_3   0.879557 0.990089 0.167020 0.148851
C119  C     C_3   0.879107 0.986470 0.095101 -0.472474
C120  C     C_3   0.387146 0.471014 0.098083 -0.492354
H55   H     H_    0.856929 0.026171 0.049783 0.194401
H56   H     H_    0.865288 0.941643 0.061429 0.183797
H57   H     H_    0.371165 0.514370 0.060617 0.196542
H58   H     H_    0.369559 0.429635 0.056305 0.183168
C121  C     C_3   0.198560 0.464694 0.342874 -0.362130
C122  C     C_3   0.139624 0.446370 0.318444 -0.358476
C123  C     C_3   0.122266 0.494501 0.349432 -0.844170
H59   H     H_    0.160149 0.499899 0.421278 0.249892
H60   H     H_    0.112636 0.539556 0.317541 0.254838
H61   H     H_    0.080252 0.479689 0.332126 0.237107
H62   H     H_    0.100240 0.441375 0.247084 0.250702
H63   H     H_    0.147220 0.401607 0.349635 0.204333
H64   H     H_    0.235655 0.465690 0.415309 0.185393
H65   H     H_    0.193522 0.512804 0.321087 0.208511
C124  C     C_3   0.189119 0.356075 0.278469 -0.375616
C125  C     C_3   0.201156 0.316835 0.232499 -0.367901
C126  C     C_3   0.175587 0.252073 0.214703 -0.830393
H66   H     H_    0.201211 0.227254 0.277078 0.250345
H67   H     H_    0.126070 0.254103 0.177624 0.261540
H68   H     H_    0.180663 0.226037 0.176035 0.254652
H69   H     H_    0.178388 0.338681 0.169356 0.216021
H70   H     H_    0.251057 0.312680 0.272754 0.221047
H71   H     H_    0.205922 0.330688 0.336466 0.198619
H72   H     H_    0.138372 0.360770 0.231404 0.189060
C127  C     C_3   0.680473 0.156313 0.228603 -0.396949
C128  C     C_3   0.690277 0.210060 0.283389 -0.368369
C129  C     C_3   0.654818 0.267325 0.227265 -0.801809
H73   H     H_    0.669065 0.281128 0.194512 0.262285
H74   H     H_    0.604642 0.258201 0.177376 0.259574
H75   H     H_    0.664216 0.305930 0.268816 0.239284
H76   H     H_    0.673844 0.197494 0.313550 0.213567
H77   H     H_    0.740006 0.221238 0.336088 0.223849
H78   H     H_    0.694301 0.171177 0.195490 0.197776
H79   H     H_    0.630614 0.145304 0.176814 0.191691
C130  C     C_3   0.697850 0.070773 0.327998 -0.350275
C131  C     C_3   0.721918 0.005359 0.366977 -0.331532
C132  C     C_3   0.710626 0.989226 0.422984 -0.870707
H80   H     H_    0.735996 0.021260 0.479007 0.252530
H81   H     H_    0.660667 0.991920 0.383578 0.256964
H82   H     H_    0.727216 0.941620 0.448694 0.247334
H83   H     H_    0.697890 0.970835 0.314196 0.237898
H84   H     H_    0.771996 0.001126 0.408091 0.211683
H85   H     H_    0.715348 0.102560 0.381525 0.189864
H86   H     H_    0.646830 0.070876 0.280537 0.205288
Cl1   Cl    Cl    0.077476 0.103813 0.897137 -0.658078
Cl2   Cl    Cl    0.580887 0.397515 0.899840 -0.660759
C133  C     C_3   0.356002 0.526164 0.169683 -0.359821
C134  C     C_3   0.375358 0.589231 0.163203 -0.358701
C135  C     C_3   0.358078 0.641395 0.189853 -0.856779
H87   H     H_    0.307737 0.641449 0.148379 0.249272
H88   H     H_    0.383363 0.636244 0.259338 0.264779
H89   H     H_    0.370622 0.686202 0.181600 0.243839
H90   H     H_    0.425635 0.590945 0.205295 0.238421
H91   H     H_    0.351548 0.598044 0.095181 0.217413
H92   H     H_    0.304975 0.523234 0.116242 0.195611
H93   H     H_    0.369196 0.524445 0.232207 0.184015
C136  C     C_3   0.354927 0.406608 0.156512 -0.428025
C137  C     C_3   0.351864 0.396950 0.223062 -0.351906
C138  C     C_3   0.325275 0.334165 0.212195 -0.831908
H94   H     H_    0.277324 0.330583 0.146788 0.254332
H95   H     H_    0.353851 0.296778 0.220329 0.252215
H96   H     H_    0.324895 0.328321 0.262521 0.240284
H97   H     H_    0.398666 0.399789 0.289616 0.258876
H98   H     H_    0.321884 0.432683 0.214046 0.220708
H99   H     H_    0.307304 0.404778 0.090025 0.208719
H100  H     H_    0.381329 0.367541 0.162473 0.196562
C139  C     C_3   0.848256 0.049226 0.162006 -0.397117
C140  C     C_3   0.878259 0.110549 0.173473 -0.346988
C141  C     C_3   0.840445 0.165360 0.158721 -0.844946
H101  H     H_    0.793681 0.164889 0.091177 0.253408
H102  H     H_    0.836443 0.163960 0.205647 0.259949
H103  H     H_    0.863404 0.208819 0.168402 0.241733
H104  H     H_    0.925135 0.113452 0.240626 0.234606
H105  H     H_    0.882517 0.114090 0.127055 0.219603
H106  H     H_    0.799269 0.049475 0.098030 0.203038
H107  H     H_    0.848586 0.046858 0.213438 0.193268
C142  C     C_3   0.857529 0.931557 0.179069 -0.392480
C143  C     C_3   0.889922 0.870846 0.193559 -0.343294
C144  C     C_3   0.869101 0.818227 0.213927 -0.850179
H108  H     H_    0.881494 0.827777 0.275019 0.257281
H109  H     H_    0.818501 0.812132 0.159609 0.251005
H110  H     H_    0.892228 0.774813 0.222546 0.241576
H111  H     H_    0.878624 0.858661 0.134174 0.209074
H112  H     H_    0.940642 0.875143 0.248708 0.232550
H113  H     H_    0.865184 0.939002 0.236695 0.198221
H114  H     H_    0.807149 0.926684 0.121192 0.197109
C145  C     C_3   0.949948 0.815360 0.084832 -0.359420
C146  C     C_3   0.891833 0.788852 0.995709 -0.298541
C147  C     C_3   0.836205 0.831180 0.949296 -0.868411
H115  H     H_    0.825242 0.835586 0.987968 0.243170
H116  H     H_    0.845274 0.877466 0.938914 0.265690
H117  H     H_    0.795620 0.811502 0.884796 0.244626
H118  H     H_    0.898628 0.782577 0.952403 0.238873
H119  H     H_    0.880784 0.743371 0.004785 0.206224
H120  H     H_    0.945084 0.810726 0.130534 0.186267
H121  H     H_    0.953147 0.865358 0.078015 0.199620
C148  C     C_3   0.871381 0.201676 0.986565 -0.382715
C149  C     C_3   0.855436 0.134732 0.956595 -0.322019
C150  C     C_3   0.791659 0.118777 0.917138 -0.892513
H122  H     H_    0.789895 0.124487 0.966118 0.258203
H123  H     H_    0.756144 0.148953 0.860162 0.261979
H124  H     H_    0.781007 0.070186 0.894970 0.244156
H125  H     H_    0.854946 0.127745 0.905591 0.251984
H126  H     H_    0.890316 0.103715 0.012637 0.227009
H127  H     H_    0.863672 0.210919 0.028614 0.212091
H128  H     H_    0.839550 0.232063 0.928138 0.208116
C151  C     C_3   0.368063 0.312611 0.958972 -0.337545
C152  C     C_3   0.326452 0.301612 0.973098 -0.362602
C153  C     C_3   0.264961 0.335339 0.904718 -0.855679
H129  H     H_    0.272279 0.385730 0.908222 0.246391
H130  H     H_    0.240263 0.318734 0.838440 0.257989
H131  H     H_    0.235997 0.326511 0.916767 0.249805
H132  H     H_    0.317510 0.251598 0.969234 0.232035
H133  H     H_    0.349592 0.317906 0.038737 0.209993
H134  H     H_    0.372634 0.362940 0.956073 0.215802
H135  H     H_    0.346553 0.292171 0.895690 0.207422
C154  C     C_3   0.362282 0.700272 0.966847 -0.376871
C155  C     C_3   0.350742 0.631060 0.950731 -0.323610
C156  C     C_3   0.285938 0.615066 0.907373 -0.899542
H136  H     H_    0.278329 0.630661 0.947825 0.254746
H137  H     H_    0.251099 0.637391 0.842261 0.260273
H138  H     H_    0.279643 0.564427 0.898935 0.244357
H139  H     H_    0.354678 0.616386 0.906082 0.256370
H140  H     H_    0.385057 0.605618 0.013373 0.217317
H141  H     H_    0.348646 0.716339 0.999906 0.209538
H142  H     H_    0.332539 0.724638 0.903041 0.206060

loop_
_geom_bond_atom_site_label_1
_geom_bond_atom_site_label_2
_geom_bond_distance
_ccdc_geom_bond_type
O17   C73   1.295074 A    
C27   C31   1.387067 A    
C136  C137  1.529807 S    
C105  C119  1.495976 S    
O45   C87   1.290580 A    
C141  H102  1.111143 S    
O40   Cu12  1.968193 S    
C150  H122  1.110374 S    
C11   C39   1.486286 S    
C134  C135  1.525369 S    
Cu11  O47   1.968215 S    
C44   C46   1.403631 A    
Cu8   O32   1.971615 S    
C152  H132  1.111117 S    
C65   C67   1.386533 A    
C41   C51   1.377093 A    
C46   H22   1.083418 S    
C103  H47   1.111629 S    
C132  H80   1.110907 S    
C9    C13   1.396322 A    
C145  H120  1.109371 S    
C57   C71   1.488624 S    
O19   C73   1.290886 A    
C11   C31   1.350336 A    
C50   C84   1.453923 S    
C73   C91   1.448639 S    
O9    C3    1.292976 A    
C90   C104  1.492769 S    
O10   C4    1.292028 A    
O8    Cu2   1.969556 S    
O17   Cu5   1.971615 S    
Cu5   O29   1.970510 S    
C104  H50   1.111571 S    
O5    C3    1.297893 A    
O6    C4    1.295223 A    
C137  H97   1.104743 S    
C112  C114  1.405347 A    
C156  H137  1.110877 S    
C56   C130  1.561216 S    
C37   H17   1.111555 S    
C147  H115  1.109212 S    
C39   H19   1.111280 S    
C46   C48   1.402663 A    
C34   C38   1.525897 S    
C152  C153  1.525537 S    
O37   C83   1.295344 A    
C41   C55   1.515755 S    
O33   Cu9   1.970474 S    
C139  C140  1.542692 S    
C121  H65   1.112061 S    
C120  H57   1.105334 S    
Cu1   O13   1.969594 S    
C131  H84   1.108701 S    
O34   C81   1.289484 A    
C48   H24   1.082604 S    
C141  H101  1.110831 S    
O28   Cu8   1.968549 S    
C155  C156  1.527069 S    
C50   C52   1.396251 A    
C35   H11   1.112846 S    
O5    Cu1   1.970550 S    
C122  H62   1.106784 S    
C17   C21   1.400696 A    
C68   C70   1.489215 S    
C19   C23   1.409640 A    
C150  H124  1.110375 S    
Cu12  O48   1.971577 S    
C140  H105  1.108545 S    
C19   H3    1.083023 S    
C51   C53   1.489458 S    
C29   C33   1.501143 S    
C31   C35   1.495996 S    
C32   C36   1.510248 S    
O47   C88   1.292507 A    
C148  H127  1.112414 S    
O8    C6    1.294981 A    
C117  C120  1.536875 S    
Cu5   Cu7   2.685014 S    
C66   C68   1.386166 A    
C69   C71   1.542198 S    
C33   C37   1.529217 S    
C24   H8    1.083363 S    
C118  C142  1.552666 S    
C98   C100  1.394798 A    
C145  C146  1.544441 S    
C58   C72   1.488483 S    
O33   C81   1.297328 A    
C63   H31   1.083230 S    
C93   Cl1   1.761146 S    
C94   Cl2   1.760855 S    
C155  H140  1.110377 S    
C154  C155  1.529335 S    
C124  H72   1.109362 S    
C55   C124  1.561902 S    
O35   Cu11  1.970474 S    
Cu10  O46   1.971577 S    
O43   C86   1.293789 A    
O38   Cu10  1.968193 S    
C57   C59   1.385294 A    
C34   H10   1.113031 S    
C124  C125  1.542030 S    
C36   C40   1.526102 S    
Cu1   Cu3   2.686838 S    
C106  C108  1.391917 A    
C61   H29   1.083282 S    
C129  H73   1.110859 S    
C111  C113  1.404561 A    
C144  H109  1.110925 S    
C38   H14   1.112367 S    
C143  C144  1.525865 S    
C72   H40   1.111327 S    
C123  H59   1.110878 S    
C70   H35   1.111758 S    
C89   C91   1.394560 A    
C127  H79   1.111751 S    
C4    C14   1.446748 S    
C109  C112  1.409333 A    
O38   C83   1.292401 A    
C80   C108  1.451672 S    
C52   C54   1.496069 S    
Cu9   O41   1.971412 S    
C47   H23   1.081423 S    
C62   C64   1.410547 A    
C56   C127  1.549449 S    
C21   C25   1.401460 A    
C134  H90   1.107967 S    
C49   C51   1.394835 A    
O28   C78   1.299673 A    
C135  H89   1.110495 S    
C70   H36   1.111611 S    
C99   C101  1.493297 S    
C41   C43   1.397540 A    
C27   C77   1.437466 S    
C95   C97   1.403697 A    
C67   C69   1.489281 S    
C125  H70   1.107561 S    
O6    Cu1   1.969556 S    
C10   C14   1.389722 A    
O29   C79   1.295682 A    
Cu6   O30   1.970510 S    
O30   C80   1.296036 A    
C149  C150  1.526915 S    
C126  H68   1.110449 S    
O9    Cu3   1.969315 S    
C147  H116  1.111024 S    
C92   C94   1.413568 A    
C69   H33   1.111469 S    
C138  H94   1.110957 S    
O4    Cu4   1.969401 S    
C151  H135  1.113196 S    
C108  C110  1.406091 A    
C93   C96   1.401157 A    
C106  C115  1.382856 A    
C130  H85   1.111222 S    
C64   C66   1.412832 A    
C85   C97   1.448783 S    
C136  H100  1.112794 S    
O44   C86   1.292084 A    
C63   C65   1.412179 A    
O27   Cu8   1.971912 S    
C113  C115  1.404181 A    
C139  H107  1.112099 S    
C153  H130  1.110838 S    
C71   H38   1.111437 S    
C143  H112  1.110438 S    
C39   H15   1.109835 S    
C28   C78   1.451429 S    
C132  H81   1.110888 S    
C154  H142  1.113445 S    
C26   C76   1.451493 S    
Cu3   O15   1.970459 S    
C131  H83   1.108170 S    
C117  C133  1.560477 S    
O14   C8    1.291658 A    
C128  C129  1.525853 S    
C25   C29   1.393665 A    
C149  H125  1.108115 S    
C129  H75   1.110283 S    
C64   H32   1.083322 S    
C111  H53   1.083535 S    
C89   C100  1.380899 A    
C40   H16   1.112534 S    
C101  H44   1.111510 S    
O11   C5    1.291806 A    
C123  H61   1.110443 S    
O12   Cu4   1.970308 S    
C152  H133  1.109182 S    
C58   C60   1.384708 A    
O21   Cu5   1.968336 S    
C122  C123  1.526523 S    
C60   C62   1.410353 A    
C146  C147  1.525894 S    
C47   C49   1.405369 A    
C8    C60   1.437457 S    
C119  H56   1.107609 S    
C62   H30   1.083451 S    
C18   C22   1.399615 A    
C20   H4    1.083424 S    
C102  C103  1.519222 S    
C135  H87   1.110897 S    
C70   C72   1.541446 S    
C110  C111  1.400105 A    
O23   Cu6   1.968336 S    
C95   H41   1.083731 S    
C30   C34   1.508964 S    
C132  H82   1.110586 S    
C122  H63   1.111446 S    
C105  C116  1.352421 A    
C106  C120  1.486751 S    
C137  H98   1.107277 S    
C121  C122  1.541040 S    
C153  H129  1.110814 S    
C114  C116  1.380254 A    
C156  H136  1.109852 S    
C126  H66   1.110698 S    
C100  C102  1.493583 S    
O1    C1    1.289954 A    
C138  H96   1.109830 S    
O25   Cu7   1.971912 S    
C54   H27   1.111802 S    
C81   C113  1.445245 S    
O41   C85   1.292156 A    
C121  H64   1.112192 S    
C120  H58   1.110349 S    
O24   Cu6   1.971696 S    
C36   C154  1.545060 S    
C89   C103  1.492957 S    
C142  H113  1.110079 S    
C102  H45   1.111491 S    
Cu10  O42   1.970416 S    
C117  C136  1.555568 S    
C53   H26   1.109576 S    
C96   C98   1.404018 A    
C133  H93   1.109826 S    
O37   Cu9   1.971551 S    
C55   C121  1.571578 S    
C94   C95   1.401066 A    
Cu9   O45   1.968215 S    
O31   C79   1.292791 A    
C130  C131  1.545070 S    
O32   C80   1.292356 A    
C59   C61   1.410399 A    
C86   C98   1.449319 S    
C48   C50   1.411119 A    
C141  H103  1.110449 S    
C150  H123  1.110877 S    
C38   H18   1.112387 S    
C101  C104  1.519414 S    
O1    Cu1   1.970224 S    
C2    C44   1.440354 S    
O2    Cu2   1.970224 S    
C33   C145  1.549217 S    
O35   C82   1.288882 A    
C96   H42   1.083692 S    
C45   C47   1.400821 A    
C23   H7    1.081982 S    
C103  H48   1.112220 S    
C125  C126  1.526700 S    
Cu9   Cu10  2.684750 S    
C140  H104  1.110776 S    
C13   C17   1.411058 A    
C145  H121  1.111074 S    
C28   C32   1.407252 A    
C15   C19   1.411859 A    
C148  C149  1.527596 S    
C91   C93   1.413219 A    
O20   Cu8   1.970726 S    
O7    Cu2   1.970550 S    
C7    C59   1.438187 S    
O18   Cu6   1.971615 S    
C22   C26   1.406602 A    
O39   Cu11  1.971551 S    
O22   Cu5   1.971696 S    
C104  H49   1.112167 S    
O4    C2    1.291209 A    
C43   C45   1.405720 A    
Cu2   Cu4   2.686838 S    
C54   C56   1.541443 S    
C11   C15   1.384922 A    
C107  C109  1.417340 A    
C12   C32   1.384980 A    
C12   C16   1.390847 A    
C156  H138  1.110537 S    
C49   C83   1.450558 S    
C90   C92   1.394717 A    
C74   C92   1.449335 S    
C124  H71   1.112026 S    
O3    C1    1.295203 A    
C118  C139  1.556839 S    
O24   C78   1.288809 A    
C115  C117  1.518013 S    
C35   C151  1.537218 S    
C144  H108  1.111041 S    
O40   C84   1.294677 A    
C118  C119  1.555279 S    
O11   Cu4   1.969315 S    
O36   Cu12  1.971463 S    
Cu7   O31   1.971615 S    
C34   C148  1.544613 S    
C127  H78   1.113672 S    
C82   C114  1.430386 S    
Cu4   O16   1.970459 S    
C97   C99   1.394501 A    
C131  C132  1.525971 S    
C57   C67   1.349158 A    
C5    C15   1.442619 S    
C128  H76   1.110175 S    
C6    C16   1.446587 S    
O27   C77   1.291437 A    
C40   H20   1.112173 S    
C142  C143  1.539515 S    
C134  H91   1.106556 S    
C135  H88   1.110896 S    
O12   C6    1.291868 A    
O26   C76   1.299774 A    
O22   C76   1.288824 A    
C110  H52   1.083087 S    
O23   C77   1.290429 A    
C151  C152  1.533793 S    
O25   C75   1.289502 A    
O21   C75   1.292526 A    
C137  C138  1.525420 S    
C18   H2    1.083303 S    
C105  C107  1.389990 A    
C1    C43   1.442923 S    
C146  H119  1.109809 S    
C148  H128  1.113809 S    
C126  H67   1.110324 S    
C25   C75   1.439169 S    
C37   H13   1.108681 S    
O26   Cu7   1.968549 S    
C20   C24   1.399111 A    
C42   C44   1.390791 A    
O42   C85   1.293439 A    
C151  H134  1.111040 S    
Cu11  Cu12  2.684750 S    
C79   C107  1.451146 S    
O13   C7    1.292188 A    
C136  H99   1.112841 S    
C9    C37   1.494561 S    
C61   C63   1.409729 A    
C12   C40   1.486095 S    
C139  H106  1.112110 S    
C155  H139  1.105700 S    
C142  H114  1.111938 S    
C17   H1    1.082959 S    
O2    C2    1.292603 A    
C53   C55   1.545801 S    
C154  H141  1.112630 S    
C45   H21   1.083438 S    
C35   C39   1.547349 S    
C42   C52   1.374108 A    
Cu2   O14   1.969594 S    
C16   C20   1.402396 A    
O20   C74   1.290701 A    
C65   C87   1.441650 S    
C149  H126  1.109596 S    
C129  H74   1.109492 S    
C66   C88   1.442272 S    
C144  H110  1.110462 S    
Cu11  O43   1.971412 S    
C133  C134  1.543915 S    
C101  H43   1.112563 S    
O10   Cu3   1.970308 S    
O48   C88   1.291320 A    
C72   H39   1.111543 S    
C123  H60   1.111035 S    
C116  C118  1.494036 S    
C109  H51   1.082693 S    
C146  H118  1.107314 S    
Cu12  O44   1.970416 S    
C21   H5    1.083583 S    
C119  H55   1.105946 S    
C10   C38   1.486760 S    
O7    C5    1.293357 A    
Cu6   Cu8   2.685014 S    
O39   C84   1.294795 A    
O3    Cu3   1.969401 S    
C127  C128  1.536960 S    
C23   C27   1.410253 A    
C26   C30   1.406928 A    
C33   H9    1.112595 S    
C125  H69   1.111776 S    
C24   C28   1.407108 A    
C140  C141  1.525563 S    
C58   C68   1.348328 A    
C14   C18   1.403128 A    
C42   C56   1.504285 S    
C9    C29   1.379542 A    
C112  H54   1.083331 S    
O18   C74   1.295610 A    
C90   C99   1.381037 A    
O34   Cu10  1.971463 S    
O15   C7    1.290761 A    
C22   H6    1.082547 S    
O16   C8    1.290961 A    
O19   Cu7   1.970726 S    
C147  H117  1.110385 S    
O36   C82   1.290398 A    
C69   H34   1.111745 S    
C138  H95   1.110855 S    
C54   H28   1.110558 S    
C10   C30   1.383965 A    
C130  H86   1.111192 S    
O46   C87   1.292874 A    
C36   H12   1.113146 S    
C53   H25   1.112510 S    
C153  H131  1.110413 S    
C102  H46   1.112508 S    
C143  H111  1.105111 S    
C128  H77   1.110821 S    
C3    C13   1.454876 S    
C71   H37   1.111842 S    
C133  H92   1.111913 S    
