data_mof_unit_67587.cif
_audit_creation_date              2012-12-10T17:05:41-0500
_audit_creation_method            fapswitch 2.2
_symmetry_space_group_name_H-M    P1
_symmetry_Int_Tables_number       1
_space_group_crystal_system       triclinic
_cell_length_a                    16.065616
_cell_length_b                    11.217549
_cell_length_c                    10.103049
_cell_angle_alpha                 108.624567
_cell_angle_beta                  95.160907
_cell_angle_gamma                 95.220807
_cell_volume                      1704.51359132

loop_
_atom_site_label
_atom_site_type_symbol
_atom_type_description
_atom_site_fract_x
_atom_site_fract_y
_atom_site_fract_z
_atom_type_partial_charge
C1    C     C_R   0.492830 0.255756 0.444497 0.791833
C2    C     C_3   0.941983 0.363644 0.524669 0.413591
C3    C     C_3   0.914860 0.483769 0.481830 -0.150410
C4    C     C_3   0.958775 0.617314 0.592054 0.430182
C5    C     C_3   0.057625 0.630957 0.578115 0.391209
C6    C     C_1   0.821957 0.486079 0.480838 0.145712
C7    C     C_1   0.175090 0.494814 0.506515 0.127202
C8    C     C_1   0.251050 0.497212 0.508813 -0.127302
C9    C     C_2   0.489710 0.117711 0.421579 -0.044196
C10   C     C_2   0.475798 0.067752 0.525397 0.161031
C11   C     C_2   0.519595 0.880256 0.578059 -0.006853
C12   C     C_R   0.341005 0.499144 0.503141 0.802079
C13   C     C_2   0.468591 0.930995 0.502726 0.149094
C14   C     C_2   0.507929 0.515487 0.081973 0.245285
C15   C     C_2   0.485986 0.503992 0.928826 0.674793
C16   C     C_R   0.508128 0.743445 0.555739 0.828903
C17   C     C_R   0.658607 0.498399 0.496120 0.789308
C18   C     C_3   0.042429 0.388240 0.560936 0.299834
C19   C     C_3   0.040699 0.450325 0.332638 0.384243
C20   C     C_3   0.941583 0.474542 0.327456 0.801436
C21   C     C_1   0.747296 0.491842 0.486366 -0.161843
C22   C     C_3   0.081330 0.491854 0.496181 -0.168535
Cu1   Cu    Cu3+1 0.514650 0.521810 0.644910 1.015494
Cu2   Cu    Cu3+1 0.485350 0.478190 0.355090 1.010893
N1    N     N_2   0.463320 0.445430 0.137380 -0.052015
N2    N     N_2   0.536720 0.554500 0.862620 -0.093719
O1    O     O_R   0.507820 0.332330 0.577400 -0.538974
O2    O     O_R   0.483070 0.295500 0.332660 -0.561554
O3    O     O_R   0.391820 0.518430 0.622420 -0.567652
O4    O     O_R   0.367070 0.481600 0.377680 -0.599697
O5    O     O_R   0.516930 0.704500 0.667340 -0.584563
O6    O     O_R   0.492180 0.667670 0.422600 -0.537781
O7    O     O_R   0.632930 0.518400 0.622320 -0.604341
O8    O     O_R   0.608180 0.481570 0.377580 -0.552939
O9    O     O_3   0.923006 0.249571 0.405354 -0.513199
C23   C     C_3   0.837501 0.192659 0.372126 0.212080
H1    H     H_    0.816113 0.178036 0.259943 0.169009
H2    H     H_    0.792530 0.250086 0.432407 0.133427
C24   C     C_3   0.830944 0.061457 0.388102 -0.395362
H3    H     H_    0.856146 0.997312 0.297502 0.213947
H4    H     H_    0.869619 0.062947 0.485461 0.263321
C25   C     C_3   0.739821 0.011622 0.390744 -0.852242
H5    H     H_    0.700940 0.006788 0.292335 0.281093
H6    H     H_    0.714089 0.074828 0.482319 0.296002
H7    H     H_    0.736531 0.915171 0.399239 0.276456
I1    I     I_    0.093369 0.420271 0.777130 -0.386055
I2    I     I_    0.880963 0.316803 0.696794 -0.454313
O10   O     O_3   0.919427 0.712880 0.552144 -0.531665
C26   C     C_3   0.934647 0.837700 0.648973 0.152347
H8    H     H_    0.959139 0.901356 0.593192 0.145021
H9    H     H_    0.982234 0.850069 0.740271 0.171775
C27   C     C_3   0.851035 0.879646 0.696793 -0.319840
H10   H     H_    0.812209 0.895198 0.608661 0.236558
H11   H     H_    0.814770 0.804929 0.726240 0.249581
C28   C     C_3   0.865900 0.001233 0.822495 -0.924986
H12   H     H_    0.902693 0.985034 0.912256 0.261670
H13   H     H_    0.805059 0.030881 0.855732 0.280671
H14   H     H_    0.900217 0.077971 0.793915 0.285254
I3    I     I_    0.351908 0.830547 0.397800 -0.460068
I4    I     I_    0.435872 0.166694 0.720113 -0.293379
I5    I     I_    0.626178 0.988013 0.717960 -0.462798
I6    I     I_    0.511659 0.999592 0.219206 -0.344993
O11   O     O_3   0.404685 0.453848 0.866654 -0.577385
C29   C     C_3   0.353323 0.553398 0.889420 0.068379
H15   H     H_    0.293991 0.514965 0.816436 0.221283
H16   H     H_    0.382668 0.635485 0.862832 0.189292
C30   C     C_3   0.331066 0.603585 0.040207 -0.398952
H17   H     H_    0.308942 0.524984 0.077098 0.253926
H18   H     H_    0.386998 0.661316 0.111838 0.255693
C31   C     C_3   0.261820 0.687544 0.045167 -0.747976
H19   H     H_    0.281341 0.764537 0.003621 0.268803
H20   H     H_    0.245591 0.730085 0.151988 0.292147
H21   H     H_    0.203984 0.628401 0.983919 0.309555
I7    I     I_    0.605346 0.659052 0.214927 -0.339092
O12   O     O_3   0.563571 0.677246 0.940166 -0.546757
C32   C     C_3   0.636779 0.726738 0.897206 0.296077
H22   H     H_    0.639317 0.831468 0.941491 0.178372
H23   H     H_    0.636209 0.710630 0.785765 0.163263
C33   C     C_3   0.718451 0.684043 0.944932 -0.401893
H24   H     H_    0.707169 0.612911 0.997396 0.248793
H25   H     H_    0.748715 0.636940 0.850765 0.231730
C34   C     C_3   0.778787 0.797070 0.041435 -0.899722
H26   H     H_    0.779847 0.879828 0.003679 0.260294
H27   H     H_    0.842853 0.771408 0.043424 0.278282
H28   H     H_    0.760502 0.823234 0.148812 0.288296
I8    I     I_    0.096265 0.209871 0.493376 -0.383036
O13   O     O_3   0.435996 0.326787 0.047620 -0.486163
C35   C     C_3   0.359959 0.280039 0.084476 0.239952
H29   H     H_    0.306543 0.322084 0.047389 0.109494
H30   H     H_    0.361256 0.299757 0.197624 0.191809
C36   C     C_3   0.342965 0.135875 0.014571 -0.350824
H31   H     H_    0.311791 0.113853 0.905850 0.226871
H32   H     H_    0.403186 0.094195 0.009494 0.287636
C37   C     C_3   0.285965 0.073758 0.093412 -0.893552
H33   H     H_    0.319116 0.081359 0.197678 0.283380
H34   H     H_    0.267716 0.972365 0.030976 0.287271
H35   H     H_    0.228045 0.119849 0.109117 0.239237
I9    I     I_    0.125120 0.544079 0.220034 -0.495405
O14   O     O_3   0.036455 0.315044 0.275390 -0.544517
C38   C     C_3   0.088441 0.258217 0.173863 0.148198
H36   H     H_    0.095768 0.163789 0.183478 0.180629
H37   H     H_    0.153808 0.306596 0.193717 0.142612
C39   C     C_3   0.043843 0.233233 0.025971 -0.332529
H38   H     H_    0.981001 0.180668 0.017716 0.231780
H39   H     H_    0.034087 0.322954 0.006857 0.267795
C40   C     C_3   0.092667 0.154966 0.914177 -0.890622
H40   H     H_    0.156308 0.206116 0.921563 0.281536
H41   H     H_    0.058481 0.138547 0.808185 0.292060
H42   H     H_    0.098721 0.061772 0.928217 0.257196
O15   O     O_3   0.890757 0.362612 0.233431 -0.610566
C41   C     C_3   0.851667 0.357209 0.100904 0.049988
H43   H     H_    0.844507 0.255721 0.034944 0.180873
H44   H     H_    0.890199 0.402862 0.041986 0.153303
C42   C     C_3   0.762396 0.394085 0.110731 -0.368646
H45   H     H_    0.728884 0.342482 0.171749 0.237035
H46   H     H_    0.764399 0.497029 0.166786 0.245858
C43   C     C_3   0.712728 0.358839 0.964698 -0.798870
H47   H     H_    0.744534 0.408284 0.900342 0.271017
H48   H     H_    0.648321 0.386020 0.974142 0.257970
H49   H     H_    0.707409 0.255090 0.910274 0.290707
O16   O     O_3   0.919020 0.589803 0.307115 -0.588099
C44   C     C_3   0.936146 0.627164 0.189973 0.121162
H50   H     H_    0.875906 0.614676 0.122061 0.154507
H51   H     H_    0.976207 0.570017 0.120236 0.170772
C45   C     C_3   0.968291 0.770297 0.242831 -0.293438
H52   H     H_    0.914000 0.824087 0.261558 0.186734
H53   H     H_    0.004867 0.798465 0.346468 0.286142
C46   C     C_3   0.023021 0.815693 0.147653 -0.818304
H54   H     H_    0.063403 0.743761 0.096398 0.311658
H55   H     H_    0.064801 0.903605 0.211537 0.255948
H56   H     H_    0.983706 0.840255 0.066918 0.272243
I10   I     I_    0.132429 0.729378 0.787732 -0.521794
O17   O     O_3   0.068481 0.708863 0.491648 -0.596203
C47   C     C_3   0.146142 0.788606 0.513645 0.119681
H57   H     H_    0.161790 0.790045 0.409730 0.207588
H58   H     H_    0.200532 0.753577 0.558597 0.186134
C48   C     C_3   0.136607 0.926673 0.594483 -0.397442
H59   H     H_    0.090282 0.960477 0.531386 0.232471
H60   H     H_    0.112416 0.935126 0.695090 0.239404
C49   C     C_3   0.219862 0.012475 0.625006 -0.766513
H61   H     H_    0.269414 0.972574 0.675459 0.270280
H62   H     H_    0.212982 0.108084 0.697088 0.278339
H63   H     H_    0.238885 0.022920 0.526029 0.288193
I11   I     I_    0.926322 0.634232 0.803990 -0.490405

loop_
_geom_bond_atom_site_label_1
_geom_bond_atom_site_label_2
_ccdc_geom_bond_type
C2    O9    S    
C28   H12   S    
C12   O3    A    
C2    C18   S    
O9    C23   S    
C32   C33   S    
O13   C35   S    
C3    C6    S    
C46   H54   S    
C47   C48   S    
C42   H45   S    
C7    C8    T    
C24   H4    S    
C16   O5    A    
C5    O17   S    
C48   H60   S    
C18   I8    S    
C17   O7    A    
Cu1   O3    S    
C23   H1    S    
C49   H62   S    
C43   H48   S    
C36   H32   S    
C40   H40   S    
N1    O13   S    
Cu1   N2    S    
O15   C41   S    
C5    I10   S    
C5    C22   S    
C19   C20   S    
C26   H9    S    
C45   C46   S    
Cu1   Cu2   S    
C49   H63   S    
C31   H19   S    
Cu1   O1    S    
C41   C42   S    
C9    C10   D    
C27   C28   S    
C25   H6    S    
C18   I1    S    
C19   I9    S    
C27   H11   S    
C24   C25   S    
C49   H61   S    
C48   C49   S    
C9    I6    S    
C29   C30   S    
C19   C22   S    
C1    C9    S    
Cu2   N1    S    
C39   H39   S    
C43   H49   S    
C24   H3    S    
C33   H25   S    
C19   O14   S    
C15   N2    D    
C47   H58   S    
C37   H35   S    
Cu1   O7    S    
O11   C29   S    
C6    C21   T    
C38   C39   S    
Cu2   O8    S    
C30   H17   S    
C30   H18   S    
C25   H7    S    
C29   H16   S    
C10   I4    S    
O12   C32   S    
Cu2   O6    S    
C1    O2    A    
C11   C16   S    
O14   C38   S    
C35   C36   S    
C8    C12   S    
C26   C27   S    
C31   H21   S    
C38   H37   S    
N2    O12   S    
C20   O16   S    
C3    C20   S    
C41   H44   S    
C32   H22   S    
C37   H34   S    
O16   C44   S    
C20   O15   S    
O10   C26   S    
C35   H30   S    
C34   H26   S    
C34   H27   S    
C28   H13   S    
O17   C47   S    
C25   H5    S    
C44   H51   S    
C3    C4    S    
C7    C22   S    
C46   H56   S    
C14   I7    S    
C36   H31   S    
C27   H10   S    
C1    O1    A    
C4    O10   S    
C41   H43   S    
C12   O4    A    
C18   C22   S    
C23   C24   S    
Cu2   O2    S    
C32   H23   S    
C4    C5    S    
C11   I5    S    
C10   C13   S    
C46   H55   S    
C4    I11   S    
C33   C34   S    
C42   H46   S    
C47   H57   S    
C13   I3    S    
C2    I2    S    
C16   O6    A    
C34   H28   S    
C48   H59   S    
C30   C31   S    
C29   H15   S    
C44   C45   S    
C23   H2    S    
C2    C3    S    
C43   H47   S    
C36   C37   S    
C11   C13   D    
C45   H52   S    
C40   H41   S    
C38   H36   S    
C39   C40   S    
C14   N1    D    
C37   H33   S    
Cu2   O4    S    
C42   C43   S    
C33   H24   S    
C35   H29   S    
C26   H8    S    
C17   O8    A    
C28   H14   S    
C39   H38   S    
C45   H53   S    
C15   O11   S    
C14   C15   S    
C31   H20   S    
C44   H50   S    
Cu1   O5    S    
C40   H42   S    
C17   C21   S    
