data_mof_unit_45639.cif
_audit_creation_date              2012-12-10T20:34:46-0500
_audit_creation_method            fapswitch 2.2
_symmetry_space_group_name_H-M    P1
_symmetry_Int_Tables_number       1
_space_group_crystal_system       triclinic
_cell_length_a                    10.633544
_cell_length_b                    10.65496
_cell_length_c                    9.85536
_cell_angle_alpha                 90.176082
_cell_angle_beta                  90.209732
_cell_angle_gamma                 90.148106
_cell_volume                      1116.59563279

loop_
_atom_site_label
_atom_site_type_symbol
_atom_type_description
_atom_site_fract_x
_atom_site_fract_y
_atom_site_fract_z
_atom_type_partial_charge
C1    C     C_R   0.495024 0.259839 0.499719 0.882301
C2    C     C_3   0.878752 0.500112 0.499305 0.182969
C3    C     C_3   0.928471 0.618770 0.573490 -0.410168
C4    C     C_3   0.928035 0.500453 0.351040 -0.386373
C5    C     C_R   0.451718 0.064569 0.619317 0.091394
C6    C     C_R   0.470789 0.128714 0.498282 -0.113807
C7    C     C_R   0.460753 0.064286 0.374379 -0.223806
C8    C     C_R   0.459936 0.934640 0.374713 -0.204643
C9    C     C_R   0.468716 0.871086 0.498989 -0.150384
C10   C     C_R   0.449252 0.936481 0.619859 0.131590
C11   C     C_3   0.513810 0.929705 0.754780 -0.009748
C12   C     C_R   0.257593 0.499825 0.499652 0.831002
C13   C     C_3   0.518524 0.072287 0.752661 -0.510154
C14   C     C_R   0.429465 0.414426 0.070571 0.217611
C15   C     C_R   0.579385 0.575469 0.072616 -0.107837
C16   C     C_R   0.579683 0.575170 0.928504 -0.089440
C17   C     C_R   0.429678 0.414275 0.927969 0.217370
C18   C     C_3   0.290571 0.399295 0.920824 -0.505589
C19   C     C_3   0.290050 0.400639 0.074722 -0.513881
C20   C     C_R   0.494070 0.740120 0.500049 0.880931
C21   C     C_R   0.742383 0.500164 0.499944 0.828926
C22   C     C_3   0.072053 0.381284 0.572695 -0.403664
C23   C     C_3   0.927656 0.381075 0.572178 -0.399862
C24   C     C_3   0.072876 0.619008 0.572574 -0.384736
C25   C     C_3   0.070690 0.499111 0.351007 -0.400788
C26   C     C_3   0.121194 0.499851 0.498984 0.175552
H1    H     H_    0.106512 0.379420 0.679395 0.177311
H2    H     H_    0.894449 0.585541 0.296500 0.173891
H3    H     H_    0.107777 0.704754 0.520348 0.164843
H4    H     H_    0.892864 0.704889 0.522637 0.155538
H5    H     H_    0.464326 0.112545 0.277852 0.180106
H6    H     H_    0.463407 0.885633 0.278317 0.198201
H7    H     H_    0.608122 0.885089 0.749677 0.135930
H8    H     H_    0.460153 0.118214 0.831763 0.224467
H9    H     H_    0.615622 0.110279 0.743323 0.184520
H10   H     H_    0.641207 0.638599 0.127511 0.144061
H11   H     H_    0.107255 0.295051 0.521428 0.160033
H12   H     H_    0.641653 0.638160 0.874503 0.142681
H13   H     H_    0.242891 0.482081 0.875663 0.225645
H14   H     H_    0.262697 0.307160 0.876693 0.196852
H15   H     H_    0.243328 0.485097 0.117150 0.220864
H16   H     H_    0.260546 0.309758 0.119795 0.197561
H17   H     H_    0.892303 0.295256 0.519611 0.156278
H18   H     H_    0.893102 0.378119 0.678633 0.179341
H19   H     H_    0.108367 0.622174 0.678970 0.186899
H20   H     H_    0.894774 0.620758 0.680310 0.176750
H21   H     H_    0.105768 0.582697 0.294885 0.180104
H22   H     H_    0.103328 0.413326 0.297000 0.175415
H23   H     H_    0.892577 0.416602 0.294764 0.178850
N1    N     N_R   0.499150 0.499140 0.142800 -0.107106
N2    N     N_R   0.499150 0.499180 0.857150 -0.100926
O1    O     O_R   0.500020 0.316790 0.614690 -0.615216
O2    O     O_R   0.500000 0.316760 0.385350 -0.624027
O3    O     O_R   0.314800 0.500000 0.614670 -0.621632
O4    O     O_R   0.314790 0.499960 0.385330 -0.627210
O5    O     O_R   0.500000 0.683240 0.614650 -0.601479
O6    O     O_R   0.499980 0.683210 0.385310 -0.617790
O7    O     O_R   0.685210 0.500040 0.614670 -0.631814
O8    O     O_R   0.685200 0.500000 0.385330 -0.630838
Zn1   Zn    Zn3+2 0.500010 0.500020 0.653130 0.949422
Zn2   Zn    Zn3+2 0.499990 0.499980 0.346870 0.940675
I1    I     I_    0.389933 0.858045 0.907391 -0.452967

loop_
_geom_bond_atom_site_label_1
_geom_bond_atom_site_label_2
_ccdc_geom_bond_type
C3    H4    S    
C2    C4    S    
C18   H13   S    
C16   N2    A    
O6    Zn2   S    
C6    C7    A    
O1    Zn1   S    
C9    C10   A    
C25   H21   S    
C9    C20   S    
C5    C13   S    
C25   H22   S    
C19   H16   S    
C4    H23   S    
C20   O5    A    
C11   I1    S    
C21   O7    A    
C17   N2    A    
C2    C21   S    
C17   C18   S    
C20   O6    A    
C13   H8    S    
C21   O8    A    
O3    Zn1   S    
C11   C13   S    
C14   C17   A    
C3    C24   S    
C14   N1    A    
C24   H19   S    
O4    Zn2   S    
C5    C10   A    
C4    H2    S    
C24   C26   S    
C4    C25   S    
C2    C3    S    
C22   H1    S    
C5    C6    A    
C1    O1    A    
O8    Zn2   S    
C12   O4    A    
C7    H5    S    
C10   C11   S    
O7    Zn1   S    
C15   C16   A    
C8    H6    S    
C19   H15   S    
C15   H10   S    
C11   H7    S    
C23   H17   S    
C7    C8    A    
C22   C26   S    
C15   N1    A    
C16   H12   S    
C2    C23   S    
N1    Zn2   S    
C18   H14   S    
C22   C23   S    
C18   C19   S    
C1    O2    A    
N2    Zn1   S    
C3    H20   S    
C25   C26   S    
C24   H3    S    
C22   H11   S    
O2    Zn2   S    
C14   C19   S    
C13   H9    S    
C12   O3    A    
C23   H18   S    
O5    Zn1   S    
C12   C26   S    
C8    C9    A    
C1    C6    S    
