data_mof_unit_22083.cif
_audit_creation_date              2012-12-11T14:14:15-0500
_audit_creation_method            fapswitch 2.2
_symmetry_space_group_name_H-M    P1
_symmetry_Int_Tables_number       1
_space_group_crystal_system       triclinic
_cell_length_a                    17.030347
_cell_length_b                    7.241524
_cell_length_c                    16.942413
_cell_angle_alpha                 89.997169
_cell_angle_beta                  99.238601
_cell_angle_gamma                 90.002335
_cell_volume                      2062.33091222

loop_
_atom_site_label
_atom_site_type_symbol
_atom_type_description
_atom_site_fract_x
_atom_site_fract_y
_atom_site_fract_z
_atom_type_partial_charge
O1    O     O_R   0.414560 0.494370 0.416770 -0.541456
O2    O     O_R   0.585440 0.994370 0.583230 -0.541458
O3    O     O_R   0.578370 0.819590 0.429320 -0.538787
O4    O     O_R   0.421630 0.319590 0.570680 -0.538776
C1    C     C_R   0.604730 0.656216 0.413959 0.714377
C2    C     C_R   0.395270 0.156204 0.586042 0.714372
O5    O     O_R   0.414740 0.823790 0.407360 -0.541911
O6    O     O_R   0.585260 0.323790 0.592640 -0.541910
O7    O     O_R   0.420650 0.998510 0.561120 -0.537626
O8    O     O_R   0.579350 0.498510 0.438880 -0.537628
C3    C     C_R   0.385666 0.655666 0.388406 0.718127
C4    C     C_R   0.614337 0.155666 0.611590 0.718103
O9    O     O_3   0.502130 0.662240 0.550470 -0.378541
O10   O     O_3   0.497870 0.162240 0.449530 -0.378544
V1    V     V_3+5 0.499600 0.935390 0.490640 1.390323
V2    V     V_3+5 0.500400 0.435390 0.509360 1.390329
C5    C     C_2   0.786659 0.264952 0.782206 0.342247
C6    C     C_2   0.213370 0.764952 0.217766 0.342306
C7    C     C_2   0.814438 0.114131 0.825323 -0.417899
C8    C     C_2   0.185572 0.614127 0.174665 -0.418023
H1    H     H_    0.779583 0.987710 0.817543 0.118086
H2    H     H_    0.220418 0.487699 0.182453 0.118102
C9    C     C_2   0.707474 0.253161 0.730105 -0.205292
C10   C     C_2   0.292551 0.753138 0.269872 -0.205247
C11   C     C_2   0.692601 0.146272 0.664006 -0.018528
C12   C     C_2   0.307406 0.646271 0.335984 -0.018555
H3    H     H_    0.660783 0.342775 0.744929 0.107190
H4    H     H_    0.339252 0.842731 0.255046 0.107210
C13   C     C_R   0.331719 0.155612 0.636344 -0.089289
C14   C     C_R   0.668273 0.655663 0.363647 -0.089282
C15   C     C_R   0.170474 0.114047 0.866233 -0.186694
C16   C     C_R   0.829519 0.614013 0.133768 -0.186518
C17   C     C_R   0.301011 0.000857 0.841278 0.130967
C18   C     C_R   0.698962 0.500905 0.158723 0.130694
C19   C     C_R   0.242983 0.018667 0.893147 0.066831
C20   C     C_R   0.757025 0.518521 0.106881 0.066852
C21   C     C_R   0.158012 0.200054 0.790301 0.198596
C22   C     C_R   0.841956 0.700162 0.209668 0.198444
C23   C     C_R   0.218096 0.194668 0.741008 0.039017
C24   C     C_R   0.781874 0.694779 0.258962 0.039051
C25   C     C_R   0.286404 0.081406 0.763433 -0.014792
C26   C     C_R   0.713573 0.581480 0.236556 -0.014825
C27   C     C_R   0.339936 0.056000 0.707829 -0.223191
C28   C     C_R   0.660055 0.556037 0.292171 -0.223221
C29   C     C_R   0.268256 0.278127 0.618206 -0.260674
C30   C     C_R   0.731717 0.778253 0.381757 -0.260672
C31   C     C_R   0.211839 0.299997 0.669131 0.326870
C32   C     C_R   0.788119 0.800162 0.330818 0.326889
H5    H     H_    0.390202 0.963716 0.719689 0.133592
H6    H     H_    0.609806 0.463686 0.280328 0.133598
H7    H     H_    0.263664 0.361826 0.564687 0.128505
H8    H     H_    0.736302 0.861983 0.435264 0.128510
O11   O     O_R   0.920750 0.773600 0.061260 -0.542590
O12   O     O_R   0.079250 0.273600 0.938740 -0.542483
O13   O     O_R   0.085340 0.439850 0.092570 -0.538624
O14   O     O_R   0.914660 0.939850 0.907430 -0.538698
C33   C     C_R   0.112803 0.608494 0.113742 0.736779
C34   C     C_R   0.887200 0.108495 0.886255 0.736750
O15   O     O_R   0.921720 0.444130 0.070790 -0.545675
O16   O     O_R   0.078280 0.944130 0.929210 -0.545706
O17   O     O_R   0.914480 0.269530 0.916840 -0.525812
O18   O     O_R   0.085520 0.769530 0.083160 -0.525913
C35   C     C_R   0.894999 0.611558 0.084927 0.730240
C36   C     C_R   0.105000 0.111572 0.915075 0.729991
O19   O     O_3   0.997840 0.601520 0.949550 -0.376895
O20   O     O_3   0.002160 0.101520 0.050450 -0.376949
V3    V     V_3+5 0.000400 0.328340 0.009360 1.400227
V4    V     V_3+5 0.999600 0.828340 0.990640 1.400024
N1    N     N_2   0.831709 0.432963 0.786925 -0.474621
H9    H     H_    0.891279 0.414678 0.784207 0.260875
C37   C     C_3   0.797599 0.591096 0.741674 -0.553543
H10   H     H_    0.838913 0.710027 0.753522 0.190234
H11   H     H_    0.740271 0.630397 0.760322 0.196633
H12   H     H_    0.788434 0.560284 0.676597 0.191224
N2    N     N_2   0.168337 0.932982 0.213033 -0.474629
H13   H     H_    0.108770 0.914727 0.215775 0.260854
C38   C     C_3   0.202477 0.091128 0.258251 -0.553378
H14   H     H_    0.161171 0.210067 0.246405 0.190212
H15   H     H_    0.259797 0.130395 0.239571 0.196635
H16   H     H_    0.211666 0.060351 0.323333 0.191173
N3    N     N_2   0.082295 0.278944 0.760194 -0.478412
H17   H     H_    0.058353 0.363194 0.799102 0.264628
C39   C     C_3   0.025486 0.151302 0.717271 -0.535977
H18   H     H_    0.971003 0.227389 0.690707 0.194452
H19   H     H_    0.008828 0.044068 0.758477 0.171069
H20   H     H_    0.050874 0.083957 0.668085 0.204957
N4    N     N_2   0.917661 0.779139 0.239761 -0.478417
H21   H     H_    0.941588 0.863405 0.200843 0.264675
C40   C     C_3   0.974492 0.651576 0.282706 -0.535942
H22   H     H_    0.028960 0.727733 0.309262 0.194436
H23   H     H_    0.991173 0.544341 0.241519 0.171016
H24   H     H_    0.949113 0.584225 0.331901 0.204954
C41   C     C_3   0.756965 0.033278 0.633650 -0.353367
C42   C     C_3   0.787952 0.134411 0.565834 -0.767393
H25   H     H_    0.739183 0.157894 0.514862 0.219676
H26   H     H_    0.813989 0.269524 0.587277 0.232237
H27   H     H_    0.834978 0.050359 0.544714 0.205646
H28   H     H_    0.808426 0.003767 0.680536 0.185017
H29   H     H_    0.732595 0.896973 0.611775 0.178443
C43   C     C_3   0.243032 0.533302 0.366342 -0.353390
C44   C     C_3   0.212059 0.634439 0.434160 -0.767375
H30   H     H_    0.260829 0.657875 0.485134 0.219677
H31   H     H_    0.186045 0.769575 0.412720 0.232229
H32   H     H_    0.165018 0.550415 0.455276 0.205654
H33   H     H_    0.191566 0.503818 0.319460 0.185025
H34   H     H_    0.267388 0.396985 0.388218 0.178429
C45   C     C_3   0.380331 0.905000 0.870456 -0.343755
C46   C     C_3   0.375942 0.699316 0.849919 -0.774078
H35   H     H_    0.329209 0.630359 0.878099 0.222256
H36   H     H_    0.362061 0.678847 0.784219 0.230194
H37   H     H_    0.434036 0.633006 0.872279 0.215570
H38   H     H_    0.429826 0.970642 0.845580 0.163874
H39   H     H_    0.400130 0.923675 0.935452 0.179359
C47   C     C_3   0.619563 0.405465 0.129491 -0.343682
C48   C     C_3   0.623763 0.199697 0.149876 -0.774204
H40   H     H_    0.670453 0.130623 0.121681 0.222229
H41   H     H_    0.637591 0.178973 0.215564 0.230188
H42   H     H_    0.565618 0.133696 0.127444 0.215566
H43   H     H_    0.570133 0.471188 0.154436 0.163970
H44   H     H_    0.599777 0.424552 0.064512 0.179206
N5    N     N_2   0.153046 0.439941 0.650293 -0.481589
H45   H     H_    0.133355 0.455491 0.589839 0.244548
C49   C     C_3   0.174107 0.614911 0.689420 -0.508199
H46   H     H_    0.123549 0.712704 0.675594 0.192196
H47   H     H_    0.226872 0.675104 0.667861 0.184479
H48   H     H_    0.187391 0.596883 0.755361 0.206551
N6    N     N_2   0.846878 0.940205 0.349613 -0.481610
H49   H     H_    0.866560 0.955867 0.410063 0.244554
C50   C     C_3   0.825778 0.115093 0.310424 -0.508153
H50   H     H_    0.876308 0.212977 0.324228 0.192189
H51   H     H_    0.772989 0.175238 0.331951 0.184513
H52   H     H_    0.812511 0.096962 0.244489 0.206528
C51   C     C_3   0.259045 0.941948 0.978535 -0.341774
C52   C     C_3   0.290547 0.092561 0.038354 -0.761783
H53   H     H_    0.346178 0.152942 0.023161 0.216254
H54   H     H_    0.245589 0.203731 0.038269 0.228430
H55   H     H_    0.303468 0.032660 0.099403 0.222807
H56   H     H_    0.205568 0.880364 0.996941 0.200385
H57   H     H_    0.300716 0.823799 0.984995 0.175128
C53   C     C_3   0.741072 0.441273 0.021583 -0.342237
C54   C     C_3   0.710296 0.591784 0.961458 -0.761513
H58   H     H_    0.654809 0.653434 0.976357 0.216216
H59   H     H_    0.755642 0.702017 0.961505 0.228628
H60   H     H_    0.697352 0.531435 0.900501 0.222984
H61   H     H_    0.794460 0.378409 0.003589 0.200363
H62   H     H_    0.699006 0.323935 0.015022 0.175286

loop_
_geom_bond_atom_site_label_1
_geom_bond_atom_site_label_2
_ccdc_geom_bond_type
N4    H21   S    
C11   C41   S    
C6    N2    S    
C45   H38   S    
O1    C3    A    
O2    C4    A    
C19   C51   S    
C52   H55   S    
C47   C48   S    
C49   H46   S    
C23   C25   A    
C38   H14   S    
O5    C3    A    
C43   H33   S    
C41   C42   S    
C6    C10   S    
C16   C20   A    
C7    H1    S    
C10   C12   D    
C1    C14   S    
C54   H59   S    
C17   C19   A    
C31   N5    S    
C29   H7    S    
C48   H40   S    
C30   H8    S    
C46   H35   S    
N1    C37   S    
O11   V4    S    
C45   H39   S    
O15   V3    S    
O14   C34   A    
C18   C26   A    
C48   H41   S    
C17   C45   S    
C45   C46   S    
C16   C22   A    
C40   H23   S    
C41   H29   S    
C18   C20   A    
C47   H43   S    
C50   H52   S    
O19   V4    S    
C34   O17   A    
C38   H15   S    
O20   V3    S    
C51   H56   S    
C44   H31   S    
C13   C27   A    
C25   C27   A    
C14   C28   A    
C42   H25   S    
C26   C28   A    
C2    O7    A    
N3    C39   S    
N3    H17   S    
C29   C31   A    
C7    C34   S    
C30   C32   A    
C44   H30   S    
C33   O18   A    
C53   C54   S    
O4    C2    A    
C54   H60   S    
C53   H62   S    
C37   H11   S    
C27   H5    S    
C49   H48   S    
C52   H54   S    
O12   V3    S    
C42   H27   S    
O14   V4    S    
C15   C21   A    
C13   C29   A    
O4    V2    S    
C21   N3    S    
N2    H13   S    
N6    C50   S    
C8    C33   S    
N2    C38   S    
O17   V3    S    
C39   H18   S    
O6    C4    A    
C48   H42   S    
C2    C13   S    
O1    V2    S    
C5    C9    S    
C40   H24   S    
C42   H26   S    
O2    V1    S    
C20   C53   S    
N5    H45   S    
C39   H19   S    
C8    H2    S    
C51   H57   S    
C44   H32   S    
C9    H3    S    
N4    C40   S    
C51   C52   S    
C15   C19   A    
N6    H49   S    
O3    V1    S    
C23   C31   A    
C50   H50   S    
C38   H16   S    
C28   H6    S    
C24   C32   A    
C5    N1    S    
O15   C35   A    
C15   C36   S    
C14   C30   A    
C10   H4    S    
C16   C35   S    
O3    C1    A    
C53   H61   S    
C37   H12   S    
O13   V3    S    
C52   H53   S    
C18   C47   S    
C22   N4    S    
C43   H34   S    
C3    C12   S    
C46   H37   S    
O18   V4    S    
C4    C11   S    
O16   C36   A    
C17   C25   A    
O13   C33   A    
O7    V1    S    
C1    O8    A    
C21   C23   A    
O8    V2    S    
C54   H58   S    
C32   N6    S    
C22   C24   A    
O11   C35   A    
O12   C36   A    
O5    V1    S    
C24   C26   A    
C43   C44   S    
C5    C7    D    
C46   H36   S    
C6    C8    D    
C9    C11   D    
N1    H9    S    
N5    C49   S    
C49   H47   S    
C37   H10   S    
C39   H20   S    
O16   V4    S    
O6    V2    S    
O9    V2    S    
O10   V1    S    
C40   H22   S    
C41   H28   S    
C47   H44   S    
C12   C43   S    
C50   H51   S    
