data_mof_unit_50744.cif
_audit_creation_date              2012-12-11T15:15:38-0500
_audit_creation_method            fapswitch 2.2
_symmetry_space_group_name_H-M    P1
_symmetry_Int_Tables_number       1
_space_group_crystal_system       triclinic
_cell_length_a                    20.679397
_cell_length_b                    22.731313
_cell_length_c                    6.940051
_cell_angle_alpha                 90.0
_cell_angle_beta                  86.727448
_cell_angle_gamma                 90.000019
_cell_volume                      3256.98878707

loop_
_atom_site_label
_atom_site_type_symbol
_atom_type_description
_atom_site_fract_x
_atom_site_fract_y
_atom_site_fract_z
_atom_type_partial_charge
O1    O     O_R   0.387100 0.552640 0.378490 -0.525505
O2    O     O_R   0.612900 0.052640 0.621510 -0.525506
O3    O     O_R   0.249610 0.559600 0.072250 -0.548856
O4    O     O_R   0.750390 0.059600 0.927750 -0.548856
O5    O     O_R   0.249120 0.447360 0.902040 -0.546449
O6    O     O_R   0.750880 0.947360 0.097960 -0.546448
C1    C     C_R   0.227462 0.573867 0.244731 0.680079
C2    C     C_R   0.772538 0.073867 0.755269 0.680077
O7    O     O_R   0.386610 0.559560 0.048860 -0.532321
O8    O     O_R   0.613390 0.059560 0.951140 -0.532321
O9    O     O_R   0.387100 0.447320 0.878470 -0.531956
O10   O     O_R   0.612900 0.947320 0.121530 -0.531956
C3    C     C_R   0.407821 0.574803 0.214082 0.710175
C4    C     C_R   0.592179 0.074803 0.785918 0.710176
O11   O     O_R   0.249120 0.552680 0.402050 -0.546085
O12   O     O_R   0.750880 0.052680 0.597950 -0.546086
O13   O     O_3   0.318110 0.463180 0.223790 -0.372459
O14   O     O_3   0.681890 0.963180 0.776210 -0.372458
V1    V     V_3+5 0.318110 0.506830 0.948930 1.447962
V2    V     V_3+5 0.681890 0.006830 0.051070 1.447962
O15   O     O_R   0.386610 0.440400 0.548840 -0.532720
O16   O     O_R   0.613390 0.940400 0.451160 -0.532720
C5    C     C_R   0.407857 0.425181 0.714103 0.746866
C6    C     C_R   0.592143 0.925181 0.285897 0.746868
O17   O     O_R   0.249610 0.440440 0.572240 -0.549000
O18   O     O_R   0.750390 0.940440 0.427760 -0.549000
C7    C     C_R   0.227290 0.426364 0.744781 0.713666
C8    C     C_R   0.772710 0.926364 0.255218 0.713665
V3    V     V_3+5 0.318110 0.493170 0.448930 1.449143
V4    V     V_3+5 0.681890 0.993170 0.551070 1.449141
O19   O     O_3   0.318110 0.536820 0.723940 -0.368903
O20   O     O_3   0.681890 0.036820 0.276060 -0.368903
C9    C     C_R   0.174342 0.382771 0.763484 -0.142499
C10   C     C_R   0.825659 0.882772 0.236516 -0.142501
C11   C     C_R   0.154887 0.352089 0.600875 -0.157466
C12   C     C_R   0.845117 0.852092 0.399128 -0.157465
C13   C     C_R   0.105022 0.310814 0.618819 -0.174183
C14   C     C_R   0.894982 0.810818 0.381184 -0.174188
C15   C     C_R   0.072899 0.299988 0.799379 0.031389
C16   C     C_R   0.927102 0.799989 0.200622 0.031390
C17   C     C_R   0.092815 0.330089 0.962414 0.628252
C18   C     C_R   0.907183 0.830087 0.037585 0.628253
C19   C     C_R   0.142989 0.371120 0.944543 -0.241779
C20   C     C_R   0.857008 0.871117 0.055456 -0.241778
C21   C     C_R   0.897116 0.186542 0.886946 -0.117382
C22   C     C_R   0.102883 0.686541 0.113050 -0.117380
C23   C     C_R   0.847289 0.145237 0.902824 -0.174915
C24   C     C_R   0.152709 0.645235 0.097173 -0.174912
C25   C     C_R   0.853488 0.133200 0.555418 -0.165876
C26   C     C_R   0.146518 0.633206 0.444583 -0.165877
C27   C     C_R   0.903462 0.174493 0.539648 -0.132290
C28   C     C_R   0.096545 0.674500 0.460352 -0.132288
C29   C     C_R   0.926413 0.200908 0.705088 0.160088
C30   C     C_R   0.073590 0.700911 0.294911 0.160092
C31   C     C_2   0.019756 0.256546 0.822838 -0.130462
C32   C     C_2   0.980247 0.756548 0.177164 -0.130468
C33   C     C_2   0.979901 0.244060 0.681808 -0.212504
C34   C     C_2   0.020101 0.744062 0.318189 -0.212511
C35   C     C_R   0.825149 0.117838 0.737461 -0.046224
C36   C     C_R   0.174852 0.617839 0.262539 -0.046224
H1    H     H_    0.178623 0.359425 0.459745 0.152930
H2    H     H_    0.821383 0.859430 0.540259 0.152933
H3    H     H_    0.825895 0.135106 0.045025 0.124328
H4    H     H_    0.174100 0.635101 0.954971 0.124326
H5    H     H_    0.837333 0.113181 0.424975 0.124067
H6    H     H_    0.162676 0.613190 0.575027 0.124066
H7    H     H_    0.986951 0.265486 0.542401 0.167682
H8    H     H_    0.013050 0.765488 0.457594 0.167681
H9    H     H_    0.911513 0.207642 0.017361 0.110368
H10   H     H_    0.088484 0.707638 0.982633 0.110362
H11   H     H_    0.156885 0.394018 0.072664 0.150547
H12   H     H_    0.843110 0.894013 0.927333 0.150544
H13   H     H_    0.012988 0.235168 0.962199 0.167055
H14   H     H_    0.987015 0.735171 0.037805 0.167064
H15   H     H_    0.092718 0.286708 0.491709 0.192954
H16   H     H_    0.907289 0.786714 0.508296 0.192970
H17   H     H_    0.924784 0.185349 0.397853 0.110389
H18   H     H_    0.075226 0.685359 0.602148 0.110389
C37   C     C_R   0.577066 0.361862 0.673532 -0.164661
C38   C     C_R   0.422934 0.861863 0.326444 -0.164661
H19   H     H_    0.667109 0.278914 0.667140 0.131771
H20   H     H_    0.332891 0.778915 0.332820 0.131772
H21   H     H_    0.626114 0.377925 0.647029 0.144819
H22   H     H_    0.373885 0.877926 0.352937 0.144818
C39   C     C_R   0.462140 0.382618 0.712893 -0.083722
C40   C     C_R   0.537859 0.882618 0.287106 -0.083722
C41   C     C_R   0.475284 0.095371 0.825041 -0.101399
C42   C     C_R   0.524716 0.595371 0.174977 -0.101400
C43   C     C_R   0.421971 0.132731 0.831796 -0.086094
C44   C     C_R   0.578029 0.632730 0.168230 -0.086092
C45   C     C_R   0.429765 0.193062 0.802649 -0.161803
C46   C     C_R   0.570235 0.693062 0.197370 -0.161803
C47   C     C_R   0.491886 0.218001 0.765500 0.087723
C48   C     C_R   0.508114 0.718001 0.234503 0.087723
C49   C     C_R   0.546668 0.179097 0.757527 0.062916
C50   C     C_R   0.453332 0.679098 0.242466 0.062917
C51   C     C_R   0.501460 0.280152 0.736998 0.083774
C52   C     C_R   0.498540 0.780153 0.262999 0.083775
C53   C     C_R   0.565573 0.301503 0.701569 0.099050
C54   C     C_R   0.434427 0.801503 0.298413 0.099050
C55   C     C_R   0.618159 0.262638 0.694244 -0.177162
C56   C     C_R   0.381841 0.762639 0.305728 -0.177164
C57   C     C_R   0.608991 0.202554 0.721606 -0.186405
C58   C     C_R   0.391009 0.702554 0.278372 -0.186404
C59   C     C_R   0.450035 0.322101 0.742151 -0.250472
C60   C     C_R   0.549965 0.822101 0.257854 -0.250471
C61   C     C_R   0.526106 0.402175 0.678913 0.137138
C62   C     C_R   0.473894 0.902175 0.321071 0.137136
C63   C     C_R   0.537795 0.117469 0.787465 -0.090864
C64   C     C_R   0.462205 0.617469 0.212537 -0.090864
H23   H     H_    0.400098 0.309272 0.767264 0.102729
H24   H     H_    0.599902 0.809272 0.232752 0.102730
H25   H     H_    0.467717 0.048710 0.849278 0.144330
H26   H     H_    0.532284 0.548709 0.150746 0.144331
H27   H     H_    0.386123 0.219003 0.810814 0.112470
H28   H     H_    0.613877 0.719002 0.189213 0.112471
H29   H     H_    0.373920 0.114727 0.860612 0.137645
H30   H     H_    0.626081 0.614726 0.139428 0.137646
H31   H     H_    0.651396 0.174512 0.714780 0.105657
H32   H     H_    0.348604 0.674513 0.285190 0.105656
I1    I     I_    0.548711 0.492556 0.636061 -0.439801
I2    I     I_    0.451289 0.992556 0.363917 -0.439803
F1    F     F_    0.062821 0.320605 0.138777 -0.725746
F2    F     F_    0.937174 0.820600 0.861220 -0.725755

loop_
_geom_bond_atom_site_label_1
_geom_bond_atom_site_label_2
_ccdc_geom_bond_type
C4    C63   S    
C37   H21   S    
O11   V3    S    
O6    C8    A    
O13   V3    S    
O4    C2    A    
V1    O19   S    
C18   F2    S    
C15   C17   A    
C60   H24   S    
C7    C9    S    
O9    V1    S    
C25   H5    S    
C44   H30   S    
C37   C53   A    
C11   C13   A    
O3    C1    A    
C2    C35   S    
C23   H3    S    
C28   H18   S    
C24   H4    S    
C48   C52   A    
O12   V4    S    
C45   H27   S    
O7    C3    A    
C13   H15   S    
C9    C11   A    
O5    C7    A    
O7    V1    S    
C15   C31   S    
O8    V2    S    
C25   C27   A    
C26   C28   A    
O3    V1    S    
O14   V4    S    
C43   C45   A    
C10   C12   A    
C38   H22   S    
C42   C64   A    
C28   C30   A    
C16   C18   A    
C59   H23   S    
C21   C29   A    
C2    O12   A    
C38   C54   A    
C17   C19   A    
C22   C30   A    
C40   C60   A    
C18   C20   A    
C33   H7    S    
V2    O20   S    
C39   C59   A    
O1    V3    S    
C51   C53   A    
C49   C57   A    
C24   C36   A    
C21   C23   A    
O17   V3    S    
C22   C24   A    
C23   C35   A    
C32   H14   S    
C21   H9    S    
C9    C19   A    
C10   C20   A    
C49   C63   A    
C29   C33   S    
C14   H16   S    
C1    O11   A    
C16   C32   S    
C50   C64   A    
C12   H2    S    
C31   H13   S    
C56   C58   A    
C27   H17   S    
C3    C64   S    
V4    O20   S    
C45   C47   A    
C46   H28   S    
C44   C46   A    
V3    O19   S    
O10   V2    S    
C46   C48   A    
H20   C56   S    
C37   C61   A    
C11   H1    S    
C48   C50   A    
C26   H6    S    
C41   C63   A    
C34   H8    S    
C53   C55   A    
C42   C44   A    
O18   V4    S    
C52   C54   A    
C31   C33   D    
O8    C4    A    
O16   C6    A    
O1    C3    A    
C61   I1    S    
C12   C14   A    
C47   C51   A    
C1    C36   S    
C54   C56   A    
C30   C34   S    
C50   C58   A    
O10   C6    A    
C19   H11   S    
O16   V4    S    
C57   H31   S    
C62   I2    S    
C52   C60   A    
O5    V1    S    
O17   C7    A    
O6    V2    S    
C38   C62   A    
O18   C8    A    
C25   C35   A    
O2    V4    S    
C41   H25   S    
C26   C36   A    
C17   F1    S    
O15   C5    A    
C51   C59   A    
C13   C15   A    
C14   C16   A    
C47   C49   A    
O15   V3    S    
C43   H29   S    
O9    C5    A    
O13   V1    S    
C32   C34   D    
C20   H12   S    
O14   V2    S    
C42   H26   S    
O2    C4    A    
C22   H10   S    
C8    C10   S    
O4    V2    S    
C55   C57   A    
C5    C39   S    
C41   C43   A    
H19   C55   S    
C27   C29   A    
C40   C62   A    
C39   C61   A    
C6    C40   S    
C58   H32   S    
