data_mof_unit_10111.cif
_audit_creation_date              2012-12-11T17:12:48-0500
_audit_creation_method            fapswitch 2.2
_symmetry_space_group_name_H-M    P1
_symmetry_Int_Tables_number       1
_space_group_crystal_system       triclinic
_cell_length_a                    17.150247
_cell_length_b                    6.878923
_cell_length_c                    14.387415
_cell_angle_alpha                 89.867094
_cell_angle_beta                  109.962306
_cell_angle_gamma                 90.163069
_cell_volume                      1595.36880051

loop_
_atom_site_label
_atom_site_type_symbol
_atom_type_description
_atom_site_fract_x
_atom_site_fract_y
_atom_site_fract_z
_atom_type_partial_charge
O1    O     O_R   0.314130 0.635770 0.168990 -0.541839
O2    O     O_R   0.685870 0.364230 0.831010 -0.535453
O3    O     O_R   0.185870 0.135770 0.331010 -0.541502
O4    O     O_R   0.814130 0.864230 0.668990 -0.538581
O5    O     O_R   0.146800 0.302460 0.139760 -0.537223
O6    O     O_R   0.853200 0.697540 0.860240 -0.536817
O7    O     O_R   0.353200 0.802460 0.360240 -0.538903
O8    O     O_R   0.646800 0.197540 0.639760 -0.536065
C1    C     C_R   0.114014 0.475810 0.112761 0.706283
C2    C     C_R   0.885980 0.524189 0.887249 0.707853
C3    C     C_R   0.386076 0.975887 0.387081 0.774958
C4    C     C_R   0.614032 0.024082 0.612735 0.712404
O9    O     O_R   0.311100 0.305780 0.157130 -0.531955
O10   O     O_R   0.688900 0.694220 0.842870 -0.528545
O11   O     O_R   0.188900 0.805780 0.342870 -0.545323
O12   O     O_R   0.811100 0.194220 0.657130 -0.533045
O13   O     O_R   0.351340 0.139640 0.348510 -0.531902
O14   O     O_R   0.648660 0.860360 0.651490 -0.538969
O15   O     O_R   0.148660 0.639640 0.151490 -0.540523
O16   O     O_R   0.851340 0.360360 0.848510 -0.539072
C5    C     C_R   0.331368 0.476421 0.134013 0.697579
C6    C     C_R   0.668452 0.523517 0.865836 0.700782
C7    C     C_R   0.167801 0.975537 0.365065 0.776112
C8    C     C_R   0.832172 0.024479 0.634881 0.693601
C9    C     C_1   0.533647 0.008809 0.532960 -0.174286
C10   C     C_1   0.466491 0.991154 0.466811 -0.152415
C11   C     C_1   0.966408 0.508951 0.966966 -0.180142
C12   C     C_1   0.033585 0.491050 0.033047 -0.180504
O17   O     O_3   0.263010 0.470920 0.312770 -0.368373
O18   O     O_3   0.736990 0.529080 0.687230 -0.357911
O19   O     O_3   0.236990 0.970920 0.187230 -0.362394
O20   O     O_3   0.763010 0.029080 0.812770 -0.351654
V1    V     V_3+5 0.247590 0.194450 0.238360 1.483348
V2    V     V_3+5 0.752410 0.805550 0.761640 1.503292
V3    V     V_3+5 0.252410 0.694450 0.261640 1.459344
V4    V     V_3+5 0.747590 0.305550 0.738360 1.501337
C13   C     C_R   0.119726 0.992431 0.432960 -0.106058
C14   C     C_R   0.879891 0.008691 0.566472 -0.144298
C15   C     C_R   0.379288 0.495425 0.065864 -0.149638
C16   C     C_R   0.619673 0.503392 0.933034 -0.144978
C17   C     C_R   0.905205 0.854227 0.425670 0.137445
C18   C     C_R   0.089375 0.168744 0.564705 0.084364
C19   C     C_R   0.584833 0.318809 0.060083 0.122126
C20   C     C_R   0.411620 0.671127 0.934537 0.113730
C21   C     C_R   0.853643 0.883852 0.483790 -0.044679
C22   C     C_R   0.145904 0.118197 0.515594 -0.032903
C23   C     C_R   0.639793 0.359179 0.007479 -0.039606
C24   C     C_R   0.357447 0.634751 0.988884 -0.047889
C25   C     C_R   0.956412 0.102673 0.591401 -0.217583
C26   C     C_R   0.041440 0.906186 0.404941 -0.280676
C27   C     C_R   0.546343 0.608577 0.912197 -0.218319
C28   C     C_R   0.452856 0.391179 0.087125 -0.229162
C29   C     C_R   0.010371 0.073724 0.537318 0.084922
C30   C     C_R   0.985608 0.943167 0.455680 0.085603
C31   C     C_R   0.489009 0.570102 0.960890 0.066153
C32   C     C_R   0.508935 0.425254 0.036319 0.073019
H1    H     H_    0.024765 0.813027 0.340836 0.133096
H2    H     H_    0.974801 0.188451 0.658172 0.130970
H3    H     H_    0.466831 0.289797 0.147923 0.138705
H4    H     H_    0.534123 0.716403 0.854417 0.140588
C33   C     C_2   0.233610 0.189474 0.552574 0.343474
H5    H     H_    0.250314 0.328502 0.588886 0.056629
O21   O     O_2   0.289728 0.088768 0.545211 -0.549550
C34   C     C_2   0.770989 0.789670 0.459066 0.375105
H6    H     H_    0.716874 0.877735 0.452166 0.016164
O22   O     O_2   0.763864 0.613000 0.453724 -0.536910
C35   C     C_2   0.276620 0.737384 0.966053 0.378515
H7    H     H_    0.222499 0.657714 0.968124 0.020511
O23   O     O_2   0.270651 0.912138 0.950453 -0.537686
C36   C     C_2   0.720828 0.258637 0.031695 0.372771
H8    H     H_    0.777713 0.343316 0.054499 0.018894
O24   O     O_2   0.724107 0.083763 0.019259 -0.536001
C37   C     C_3   0.872738 0.738294 0.329315 -0.374025
C38   C     C_3   0.848100 0.873095 0.239337 -0.732623
H9    H     H_    0.798685 0.974138 0.242507 0.236308
H10   H     H_    0.901677 0.959837 0.235975 0.225535
H11   H     H_    0.823863 0.785445 0.170652 0.232328
H12   H     H_    0.918897 0.629292 0.324976 0.169753
H13   H     H_    0.817354 0.650140 0.323239 0.220753
C39   C     C_3   0.113117 0.325974 0.644412 -0.405021
C40   C     C_3   0.160957 0.240976 0.746061 -0.692620
H14   H     H_    0.176784 0.358610 0.802228 0.208194
H15   H     H_    0.122778 0.130235 0.767162 0.234648
H16   H     H_    0.219420 0.172305 0.745874 0.235592
H17   H     H_    0.149850 0.443292 0.626236 0.167460
H18   H     H_    0.058256 0.407024 0.647258 0.185046
C41   C     C_3   0.608280 0.166338 0.142507 -0.377513
C42   C     C_3   0.647152 0.261100 0.243854 -0.731356
H19   H     H_    0.705218 0.338074 0.247713 0.232864
H20   H     H_    0.603929 0.366715 0.258453 0.235039
H21   H     H_    0.662526 0.147539 0.302284 0.212117
H22   H     H_    0.554118 0.075435 0.140054 0.175345
H23   H     H_    0.652599 0.057892 0.133838 0.222623
C43   C     C_3   0.384795 0.808994 0.845806 -0.324320
C44   C     C_3   0.421463 0.012514 0.873610 -0.683385
H24   H     H_    0.490258 0.008597 0.901686 0.218622
H25   H     H_    0.400694 0.108422 0.807537 0.215073
H26   H     H_    0.400382 0.076300 0.931684 0.259283
H27   H     H_    0.401883 0.750189 0.783653 0.161557
H28   H     H_    0.316341 0.820308 0.813169 0.202375

loop_
_geom_bond_atom_site_label_1
_geom_bond_atom_site_label_2
_ccdc_geom_bond_type
C2    C11   S    
C16   C23   A    
C31   C32   A    
C18   C39   S    
O1    C5    A    
C37   C38   S    
O3    C7    A    
C44   H24   S    
C41   C42   S    
C40   H14   S    
C44   H26   S    
C14   C25   A    
C29   C30   A    
O7    C3    A    
C26   C30   A    
C38   H10   S    
O20   V4    S    
C18   C29   A    
C18   C22   A    
O4    C8    A    
O3    V1    S    
O17   V1    S    
O8    V4    S    
C33   O21   D    
C14   C21   A    
C39   H18   S    
C1    O15   A    
C2    O16   A    
C38   H11   S    
O5    V1    S    
O2    C6    A    
C8    C14   S    
C37   H12   S    
O19   V1    S    
C36   H8    S    
O11   C7    A    
C15   C28   A    
O12   C8    A    
C41   H22   S    
C43   C44   S    
O13   V1    S    
O11   V3    S    
C40   H15   S    
O4    V2    S    
C38   H9    S    
O18   V2    S    
C22   C33   S    
C35   H7    S    
C3    C10   S    
C9    C10   T    
C7    C13   S    
C25   H2    S    
O6    V2    S    
C35   O23   D    
O20   V2    S    
C23   C36   S    
O5    C1    A    
C39   H17   S    
C28   H3    S    
C5    C15   S    
C42   H21   S    
C43   H28   S    
O8    C4    A    
C6    C16   S    
C37   H13   S    
O9    C5    A    
O14   V2    S    
C42   H20   S    
O19   V3    S    
C40   H16   S    
O1    V3    S    
O2    V4    S    
C3    O13   A    
C26   H1    S    
O7    V3    S    
C39   C40   S    
O10   V2    S    
C44   H25   S    
C16   C27   A    
O17   V3    S    
C21   C34   S    
O18   V4    S    
C4    C9    S    
C19   C41   S    
C34   H6    S    
O10   C6    A    
O15   V3    S    
O12   V4    S    
C13   C26   A    
C20   C31   A    
C43   H27   S    
C25   C29   A    
C41   H23   S    
C27   C31   A    
C24   C35   S    
C33   H5    S    
C17   C30   A    
C20   C43   S    
O6    C2    A    
C17   C37   S    
O16   V4    S    
C20   C24   A    
C19   C32   A    
C42   H19   S    
O9    V1    S    
C4    O14   A    
C11   C12   T    
C17   C21   A    
C36   O24   D    
C27   H4    S    
C13   C22   A    
C19   C23   A    
C28   C32   A    
C1    C12   S    
C34   O22   D    
C15   C24   A    
