data_mof_unit_64406.cif
_audit_creation_date              2012-10-26T20:29:10-0400
_audit_creation_method            fapswitch 2.2
_symmetry_space_group_name_H-M    P1
_symmetry_Int_Tables_number       1
_space_group_crystal_system       triclinic
_cell_length_a                    15.126274
_cell_length_b                    13.925675
_cell_length_c                    19.432466
_cell_angle_alpha                 90.836941
_cell_angle_beta                  91.899203
_cell_angle_gamma                 90.374207
_cell_volume                      4090.5383165

loop_
_atom_site_label
_atom_site_type_symbol
_atom_type_description
_atom_site_fract_x
_atom_site_fract_y
_atom_site_fract_z
_atom_type_partial_charge
C1    C     C_R   0.329640 0.499752 0.503150 0.589779
C2    C     C_R   0.950432 0.500305 0.509482 0.044807
C3    C     C_R   0.540451 0.108246 0.553512 0.332886
C4    C     C_R   0.427717 0.891164 0.472303 0.318448
C5    C     C_R   0.462569 0.106665 0.443895 0.328238
C6    C     C_R   0.575330 0.893658 0.520945 0.335647
C7    C     C_R   0.542746 0.210540 0.552373 0.378693
C8    C     C_R   0.432172 0.789693 0.467671 0.360667
C9    C     C_R   0.455265 0.208455 0.448295 0.357645
C10   C     C_R   0.570678 0.792267 0.528606 0.359512
C11   C     C_R   0.501044 0.054712 0.498419 0.043162
C12   C     C_R   0.669742 0.500369 0.500450 0.598185
C13   C     C_R   0.501115 0.945446 0.497421 0.045710
C14   C     C_R   0.500275 0.499588 0.367692 0.607387
C15   C     C_R   0.498787 0.500610 0.632230 0.584148
C16   C     C_R   0.449117 0.430765 0.742007 0.319801
C17   C     C_R   0.548508 0.571580 0.258250 0.343425
C18   C     C_R   0.455451 0.428892 0.252947 0.360554
C19   C     C_R   0.540465 0.574729 0.746171 0.330354
C20   C     C_R   0.448813 0.430848 0.813802 0.361255
C21   C     C_R   0.549040 0.572403 0.186459 0.366064
C22   C     C_R   0.456099 0.429619 0.181339 0.364288
C23   C     C_R   0.187386 0.583946 0.529339 0.231055
C24   C     C_R   0.540201 0.574881 0.817798 0.362616
C25   C     C_R   0.494788 0.502689 0.852116 -0.091518
C26   C     C_R   0.502888 0.501282 0.147620 -0.095865
C27   C     C_R   0.496072 0.502043 0.707692 -0.096929
C28   C     C_R   0.501826 0.499497 0.292099 -0.096873
C29   C     C_R   0.471572 0.584344 0.964896 -0.030209
C30   C     C_R   0.526882 0.420103 0.034888 -0.029586
C31   C     C_R   0.474576 0.584411 0.036627 -0.037292
C32   C     C_R   0.523946 0.420059 0.963169 -0.039888
C33   C     C_R   0.502144 0.502247 0.071987 0.094372
C34   C     C_R   0.811321 0.447272 0.554299 0.227207
C35   C     C_R   0.496230 0.502158 0.927786 0.093024
C36   C     C_R   0.094261 0.581818 0.531627 0.357651
C37   C     C_R   0.903530 0.445791 0.556151 0.400843
C38   C     C_R   0.905500 0.556457 0.460567 0.375188
C39   C     C_R   0.091248 0.414783 0.495168 0.396487
C40   C     C_3   0.206483 0.749762 0.526989 0.043909
C41   C     C_3   0.751639 0.452768 0.659563 -0.036462
C42   C     C_3   0.778909 0.709513 0.420443 0.044708
C43   C     C_3   0.230847 0.275675 0.546936 -0.030274
C44   C     C_3   0.576590 0.239745 0.668281 0.026614
C45   C     C_R   0.812881 0.559147 0.458474 0.219647
C46   C     C_3   0.371340 0.754254 0.361489 -0.047919
C47   C     C_3   0.328604 0.216621 0.376607 0.091945
C48   C     C_3   0.672066 0.783546 0.620866 0.010634
C49   C     C_R   0.183369 0.412968 0.497308 0.215929
C50   C     C_R   0.232250 0.499076 0.509618 -0.067422
C51   C     C_R   0.766019 0.501556 0.503911 -0.076839
C52   C     C_R   0.047015 0.499004 0.511650 0.051827
Cu1   Cu    Cu3+1 0.500000 0.596430 0.500000 1.144182
Cu2   Cu    Cu3+1 0.500000 0.403570 0.500000 1.158681
F1    F     F_    0.401786 0.362464 0.706053 -0.597463
F2    F     F_    0.947278 0.392391 0.604129 -0.552829
F3    F     F_    0.951764 0.605379 0.413480 -0.583705
F4    F     F_    0.044909 0.333774 0.477263 -0.549434
F5    F     F_    0.577676 0.061219 0.607704 -0.596812
F6    F     F_    0.351452 0.935326 0.452516 -0.606967
F7    F     F_    0.436988 0.059323 0.384912 -0.581850
F8    F     F_    0.653580 0.940437 0.532247 -0.574965
F9    F     F_    0.595114 0.640073 0.294620 -0.552351
F10   F     F_    0.406056 0.361607 0.283605 -0.550577
F11   F     F_    0.586207 0.644322 0.714602 -0.610929
F12   F     F_    0.402167 0.362013 0.845916 -0.548146
F13   F     F_    0.596004 0.641471 0.154860 -0.540394
F14   F     F_    0.408488 0.362089 0.144798 -0.545220
F15   F     F_    0.586544 0.644009 0.853730 -0.554487
F16   F     F_    0.048864 0.658336 0.555803 -0.616272
H1    H     H_    0.449337 0.648054 0.938287 0.172026
H2    H     H_    0.815329 0.477787 0.684239 0.170014
H3    H     H_    0.777117 0.729523 0.476114 0.139286
H4    H     H_    0.724014 0.747970 0.393744 0.193858
H5    H     H_    0.841665 0.735000 0.398728 0.202090
H6    H     H_    0.265749 0.318179 0.588707 0.166163
H7    H     H_    0.269863 0.209646 0.538496 0.130769
H8    H     H_    0.164235 0.253224 0.563534 0.201106
H9    H     H_    0.624363 0.185593 0.687728 0.205137
H10   H     H_    0.507219 0.214932 0.674981 0.172922
H11   H     H_    0.586922 0.304815 0.701088 0.113732
H12   H     H_    0.548919 0.356327 0.061514 0.171731
H13   H     H_    0.329223 0.700028 0.333504 0.139835
H14   H     H_    0.439970 0.745669 0.343272 0.163354
H15   H     H_    0.345677 0.826273 0.347765 0.204124
H16   H     H_    0.297553 0.173621 0.417324 0.132725
H17   H     H_    0.337896 0.171831 0.329736 0.222706
H18   H     H_    0.281377 0.273928 0.361850 0.206111
H19   H     H_    0.705106 0.726841 0.651581 0.184298
H20   H     H_    0.617958 0.813910 0.651909 0.192830
H21   H     H_    0.723741 0.838432 0.612087 0.199216
H22   H     H_    0.454230 0.647973 0.064559 0.165365
H23   H     H_    0.544232 0.356456 0.935255 0.161374
H24   H     H_    0.154752 0.781742 0.559114 0.203017
H25   H     H_    0.262148 0.801844 0.529306 0.182911
H26   H     H_    0.183248 0.742467 0.472109 0.164969
H27   H     H_    0.716681 0.410022 0.698042 0.144477
H28   H     H_    0.709222 0.515293 0.646331 0.119828
N1    N     N_R   0.500000 0.258690 0.500000 -0.281902
N2    N     N_R   0.500000 0.741310 0.500000 -0.266381
O1    O     O_R   0.371460 0.581430 0.500010 -0.429389
O2    O     O_3   0.765670 0.394057 0.601206 -0.469322
O3    O     O_3   0.767174 0.609992 0.408070 -0.486853
O4    O     O_3   0.225061 0.326868 0.484768 -0.540652
O5    O     O_3   0.594823 0.263274 0.599633 -0.480285
O6    O     O_3   0.365875 0.738444 0.432798 -0.530613
O7    O     O_3   0.409720 0.260337 0.398234 -0.458819
O8    O     O_3   0.640951 0.741957 0.557838 -0.546770
O9    O     O_R   0.628540 0.418570 0.499990 -0.445415
O10   O     O_R   0.628540 0.581430 0.499990 -0.444783
O11   O     O_R   0.371460 0.418570 0.500010 -0.464566
O12   O     O_R   0.500020 0.581470 0.400190 -0.470888
O13   O     O_R   0.499980 0.418530 0.599810 -0.459218
O14   O     O_R   0.499980 0.581470 0.599810 -0.445934
O15   O     O_R   0.500020 0.418530 0.400190 -0.417152
O16   O     O_3   0.236542 0.662279 0.554966 -0.524724

loop_
_geom_bond_atom_site_label_1
_geom_bond_atom_site_label_2
_ccdc_geom_bond_type
Cu1   O10   S    
C21   C26   A    
C31   H22   S    
C34   C37   A    
C10   O8    S    
C4    C8    A    
C42   O3    S    
C49   O4    S    
C12   O10   A    
C48   O8    S    
Cu1   Cu2   S    
C43   H8    S    
C14   O12   A    
C42   H5    S    
C34   O2    S    
C7    N1    A    
C20   F12   S    
C5    C11   A    
C3    C7    A    
C20   C25   A    
C45   C51   A    
C14   O15   A    
Cu2   O13   S    
C41   O2    S    
C4    C13   A    
C43   O4    S    
C38   C45   A    
C45   O3    S    
C23   O16   S    
C37   F2    S    
Cu1   O1    S    
C48   H21   S    
C31   C33   A    
C19   F11   S    
C19   C27   A    
C1    C50   S    
C36   C52   A    
C46   H15   S    
C16   C27   A    
C32   H23   S    
C9    N1    A    
C48   H20   S    
C21   F13   S    
C40   H26   S    
C12   O9    A    
C36   F16   S    
C24   F15   S    
Cu1   N2    S    
C42   H4    S    
C47   H16   S    
C44   H10   S    
C18   C28   A    
C24   C25   A    
C44   H11   S    
C23   C50   A    
C44   O5    S    
C39   F4    S    
C17   C21   A    
Cu2   O9    S    
C47   H17   S    
C30   H12   S    
C32   C35   A    
C5    C9    A    
C38   F3    S    
C2    C38   A    
C26   C33   S    
C15   C27   S    
C16   C20   A    
Cu2   O15   S    
C4    F6    S    
C15   O13   A    
C34   C51   A    
C15   O14   A    
C5    F7    S    
C10   N2    A    
C22   F14   S    
C2    C52   S    
C25   C35   S    
C41   H2    S    
C46   H14   S    
Cu1   O12   S    
C39   C49   A    
C49   C50   A    
C47   O7    S    
C48   H19   S    
C41   H27   S    
Cu2   N1    S    
C43   H7    S    
C40   H25   S    
C1    O1    A    
C12   C51   S    
Cu1   O14   S    
C43   H6    S    
C42   H3    S    
C30   C33   A    
C18   C22   A    
C17   C28   A    
C44   H9    S    
C40   H24   S    
C8    O6    S    
C6    C10   A    
C9    O7    S    
C29   C35   A    
C47   H18   S    
C6    F8    S    
C19   C24   A    
C8    N2    A    
C16   F1    S    
C29   C31   A    
C1    O11   A    
C6    C13   A    
C30   C32   A    
C11   C13   S    
C2    C37   A    
C18   F10   S    
C40   O16   S    
C46   O6    S    
Cu2   O11   S    
C39   C52   A    
C3    C11   A    
C46   H13   S    
C23   C36   A    
C22   C26   A    
C7    O5    S    
C41   H28   S    
C14   C28   S    
C17   F9    S    
C29   H1    S    
C3    F5    S    
