data_mof_unit_35059.cif
_audit_creation_date              2012-12-11T15:36:28-0500
_audit_creation_method            fapswitch 2.2
_symmetry_space_group_name_H-M    P1
_symmetry_Int_Tables_number       1
_space_group_crystal_system       triclinic
_cell_length_a                    15.049847
_cell_length_b                    15.040986
_cell_length_c                    34.796088
_cell_angle_alpha                 91.463425
_cell_angle_beta                  91.924365
_cell_angle_gamma                 60.175118
_cell_volume                      6829.13251981

loop_
_atom_site_label
_atom_site_type_symbol
_atom_type_description
_atom_site_fract_x
_atom_site_fract_y
_atom_site_fract_z
_atom_type_partial_charge
C1    C     C_R   0.610421 0.302928 0.443882 0.543463
C2    C     C_R   0.622924 0.086089 0.763685 -0.069243
C3    C     C_R   0.098393 0.765896 0.888197 -0.162902
C4    C     C_R   0.133765 0.753774 0.851021 -0.107548
C5    C     C_R   0.144362 0.671412 0.828166 0.005282
C6    C     C_R   0.126829 0.596793 0.843875 -0.109508
C7    C     C_R   0.090694 0.608221 0.881409 0.248770
C8    C     C_R   0.228525 0.578437 0.767932 -0.066247
C9    C     C_R   0.234113 0.575484 0.728030 -0.076230
C10   C     C_R   0.171391 0.663763 0.706550 0.002698
C11   C     C_R   0.105999 0.755957 0.725334 -0.102307
C12   C     C_R   0.100491 0.759020 0.765202 -0.097179
C13   C     C_R   0.589273 0.169056 0.789453 0.015462
C14   C     C_R   0.654196 0.764089 0.164301 -0.114719
C15   C     C_R   0.160643 0.669972 0.786723 0.041851
C16   C     C_R   0.202369 0.726123 0.646698 -0.120663
C17   C     C_R   0.229761 0.712072 0.608363 0.182581
C18   C     C_R   0.195317 0.569783 0.603781 0.264122
C19   C     C_R   0.166211 0.585760 0.642278 0.268945
C20   C     C_R   0.177292 0.659744 0.664478 -0.076640
C21   C     C_R   0.235923 0.627185 0.587269 -0.022647
C22   C     C_R   0.671510 0.078341 0.906145 -0.007612
C23   C     C_R   0.598458 0.059934 0.886961 -0.116813
C24   C     C_R   0.542178 0.198439 0.640858 0.179143
C25   C     C_R   0.565513 0.094402 0.849157 0.254514
C26   C     C_R   0.827113 0.620275 0.161009 -0.118000
C27   C     C_R   0.551713 0.215886 0.601884 0.213268
C28   C     C_R   0.687087 0.255385 0.620275 0.210372
C29   C     C_R   0.680500 0.232711 0.658913 0.184537
C30   C     C_R   0.604395 0.210028 0.669259 -0.046555
C31   C     C_R   0.618957 0.251569 0.592045 0.026138
C32   C     C_R   0.047790 0.738151 0.048144 0.593655
C33   C     C_R   0.741920 0.686589 0.182777 0.022916
C34   C     C_R   0.747378 0.746604 0.064070 0.537670
C35   C     C_R   0.750297 0.041796 0.050378 0.575235
C36   C     C_R   0.017565 0.722055 0.939763 0.569066
C37   C     C_R   0.717168 0.730086 0.954796 0.541813
C38   C     C_R   0.826722 0.635386 0.121567 -0.119958
C39   C     C_R   0.721180 0.024443 0.942084 0.544259
C40   C     C_R   0.775956 0.581795 0.241522 -0.103727
C41   C     C_R   0.766914 0.575287 0.280958 -0.103853
C42   C     C_R   0.726675 0.663953 0.304286 0.027513
C43   C     C_R   0.700819 0.758254 0.287802 -0.109151
C44   C     C_R   0.605201 0.149327 0.831012 0.060168
C45   C     C_R   0.709248 0.764799 0.248365 -0.113497
C46   C     C_R   0.744163 0.677102 0.224830 0.023691
C47   C     C_R   0.605776 0.734028 0.358628 -0.109996
C48   C     C_R   0.593346 0.610232 0.449436 0.536522
C49   C     C_R   0.573108 0.721203 0.394000 -0.108971
C50   C     C_R   0.733084 0.562167 0.402886 -0.117314
C51   C     C_R   0.765872 0.575212 0.367554 -0.113455
C52   C     C_R   0.701048 0.659427 0.344519 0.027417
C53   C     C_R   0.634952 0.633280 0.415793 0.018698
C54   C     C_R   0.113871 0.722840 0.083071 0.037137
C55   C     C_R   0.671843 0.174427 0.851380 -0.155919
C56   C     C_R   0.166175 0.624642 0.100178 0.229017
C57   C     C_R   0.193960 0.616294 0.139772 0.221581
C58   C     C_R   0.172183 0.705147 0.161212 -0.037797
C59   C     C_R   0.138394 0.797772 0.142385 -0.146925
C60   C     C_R   0.303554 0.591595 0.442274 0.567946
C61   C     C_R   0.110923 0.806970 0.103411 0.175219
C62   C     C_R   0.240739 0.728121 0.224932 -0.097049
C63   C     C_R   0.245674 0.721113 0.265000 -0.114571
C64   C     C_R   0.184360 0.690533 0.283942 0.060748
C65   C     C_R   0.114638 0.671855 0.262541 -0.046853
C66   C     C_R   0.705373 0.138582 0.888538 -0.129771
C67   C     C_R   0.109786 0.678789 0.222615 -0.062677
C68   C     C_R   0.174752 0.704177 0.203542 0.066934
C69   C     C_R   0.225327 0.573317 0.339575 0.240426
C70   C     C_R   0.251029 0.552267 0.378729 -0.155354
C71   C     C_R   0.219436 0.725532 0.390076 0.219330
C72   C     C_R   0.605321 0.301175 0.554137 0.609570
C73   C     C_R   0.193883 0.746472 0.351097 -0.138900
C74   C     C_R   0.199154 0.670502 0.325600 0.018092
C75   C     C_R   0.252618 0.626011 0.404022 -0.002180
C76   C     C_R   0.720912 0.103417 0.086232 0.056521
C77   C     C_R   0.551867 0.268241 0.775461 -0.038034
C78   C     C_R   0.796839 0.110330 0.108478 -0.158056
C79   C     C_R   0.780794 0.139771 0.146987 -0.135027
C80   C     C_R   0.687543 0.165368 0.163636 -0.007453
C81   C     C_R   0.607002 0.170992 0.140466 -0.097902
C82   C     C_R   0.622790 0.140107 0.101629 0.245109
C83   C     C_R   0.591377 0.256437 0.222438 -0.098299
C84   C     C_R   0.587214 0.606202 0.559306 0.539749
C85   C     C_R   0.581521 0.262098 0.262264 -0.054451
C86   C     C_R   0.657031 0.185265 0.285743 0.057698
C87   C     C_R   0.743354 0.103690 0.268941 -0.113751
C88   C     C_R   0.549844 0.285090 0.736026 0.310907
C89   C     C_R   0.753773 0.098595 0.229204 -0.113375
C90   C     C_R   0.677952 0.174969 0.205684 0.022967
C91   C     C_R   0.731993 0.195232 0.348868 -0.159187
C92   C     C_R   0.722136 0.222056 0.387679 -0.125897
C93   C     C_R   0.551991 0.242219 0.386135 -0.087953
C94   C     C_R   0.561628 0.214988 0.347182 0.237411
C95   C     C_R   0.650514 0.195737 0.327907 0.032286
C96   C     C_R   0.296746 0.590056 0.551701 0.578538
C97   C     C_R   0.630285 0.250303 0.406230 -0.016341
C98   C     C_R   0.691090 0.689634 0.919678 -0.022377
C99   C     C_R   0.589512 0.199681 0.710310 0.106258
C100  C     C_R   0.761996 0.593369 0.904544 -0.126292
C101  C     C_R   0.749550 0.566015 0.866943 -0.148552
C102  C     C_R   0.666150 0.634234 0.843863 0.068445
C103  C     C_R   0.591335 0.728183 0.859719 0.274718
C104  C     C_R   0.603461 0.754524 0.897535 -0.091616
C105  C     C_R   0.589432 0.603108 0.782961 0.305593
C106  C     C_R   0.584783 0.601554 0.742760 -0.035768
C107  C     C_R   0.658437 0.608801 0.721415 -0.006977
C108  C     C_R   0.740825 0.716729 0.103408 0.017505
C109  C     C_R   0.739496 0.613197 0.740501 -0.109212
C110  C     C_R   0.623651 0.101226 0.724454 -0.076159
C111  C     C_R   0.743433 0.616764 0.780569 -0.140553
C112  C     C_R   0.667186 0.614624 0.802072 0.060855
C113  C     C_R   0.724787 0.542975 0.655868 -0.090139
C114  C     C_R   0.708832 0.544308 0.616027 -0.098482
C115  C     C_R   0.543031 0.697356 0.622580 -0.099668
C116  C     C_R   0.558199 0.694757 0.662355 -0.105691
C117  C     C_R   0.647813 0.616022 0.679279 0.021190
C118  C     C_R   0.616205 0.619653 0.599112 0.013278
C119  C     C_R   0.072457 0.696107 0.903223 0.060855
C120  C     C_R   0.653450 0.778836 0.124966 -0.112684
Cl1   Cl    Cl    0.070301 0.926700 0.082286 -0.600552
Cl2   Cl    Cl    0.446398 0.170850 0.654900 -0.532730
Cl3   Cl    Cl    0.252144 0.496520 0.163331 -0.611401
Cl4   Cl    Cl    0.209526 0.826633 0.419778 -0.545163
Cl5   Cl    Cl    0.460339 0.207280 0.323483 -0.609254
Cl6   Cl    Cl    0.496817 0.591038 0.808411 -0.542102
Cl7   Cl    Cl    0.488323 0.820619 0.831766 -0.550918
Cl8   Cl    Cl    0.258335 0.802554 0.589483 -0.536736
Cl9   Cl    Cl    0.177109 0.477752 0.577314 -0.426525
Cl10  Cl    Cl    0.765793 0.234141 0.695068 -0.589658
Cr1   Cr    Cr6+3 0.426010 0.422500 0.497000 1.116355
Cr2   Cr    Cr6+3 0.651300 0.426310 0.501970 1.069150
Cr3   Cr    Cr6+3 0.422670 0.651170 0.501050 1.155478
Cr4   Cr    Cr6+3 0.905130 0.911420 0.992650 1.080671
Cr5   Cr    Cr6+3 0.911860 0.682710 0.002320 1.084636
Cr6   Cr    Cr6+3 0.682710 0.906840 0.004710 1.077556
H1    H     H_    0.585958 0.841884 0.111823 0.151184
H2    H     H_    0.056688 0.662431 0.206434 0.131863
H3    H     H_    0.276090 0.475632 0.388824 0.143729
H4    H     H_    0.127289 0.864892 0.158601 0.157798
H5    H     H_    0.871488 0.085582 0.097016 0.203985
H6    H     H_    0.515894 0.327402 0.274824 0.169903
H7    H     H_    0.532290 0.316189 0.204759 0.152652
H8    H     H_    0.840354 0.517517 0.357590 0.120154
H9    H     H_    0.843031 0.137543 0.164312 0.135665
H10   H     H_    0.802744 0.044227 0.286630 0.114486
H11   H     H_    0.820348 0.034106 0.216743 0.113444
H12   H     H_    0.497145 0.777327 0.403209 0.167128
H13   H     H_    0.801165 0.180098 0.334634 0.124264
H14   H     H_    0.784133 0.226839 0.402462 0.157907
H15   H     H_    0.534182 0.192622 0.153210 0.126984
H16   H     H_    0.481098 0.262046 0.400080 0.162960
H17   H     H_    0.830399 0.541831 0.920875 0.160470
H18   H     H_    0.548270 0.829569 0.908397 0.158778
H19   H     H_    0.498726 0.752647 0.680077 0.151764
H20   H     H_    0.786123 0.501792 0.292793 0.110920
H21   H     H_    0.523222 0.595633 0.728095 0.165249
H22   H     H_    0.808214 0.494039 0.855046 0.133985
H23   H     H_    0.895417 0.559766 0.174781 0.128894
H24   H     H_    0.797097 0.618336 0.724383 0.133097
H25   H     H_    0.803868 0.625352 0.794853 0.122281
H26   H     H_    0.794733 0.482024 0.668570 0.151851
H27   H     H_    0.766585 0.483308 0.598739 0.167343
H28   H     H_    0.471081 0.756590 0.610542 0.198543
H29   H     H_    0.086964 0.832831 0.904582 0.148122
H30   H     H_    0.802859 0.513347 0.223813 0.117013
H31   H     H_    0.286613 0.504262 0.713813 0.173905
H32   H     H_    0.276069 0.509214 0.784079 0.141260
H33   H     H_    0.148652 0.811211 0.839492 0.155321
H34   H     H_    0.782905 0.494130 0.419287 0.139986
H35   H     H_    0.057686 0.824757 0.709071 0.139417
H36   H     H_    0.046419 0.830055 0.779113 0.119947
H37   H     H_    0.206113 0.786143 0.663350 0.178804
H38   H     H_    0.134890 0.533116 0.826094 0.101245
H39   H     H_    0.586802 0.814616 0.180497 0.121952
H40   H     H_    0.571732 0.013625 0.900418 0.124445
H41   H     H_    0.761221 0.154239 0.902868 0.149747
H42   H     H_    0.525748 0.332579 0.795333 0.162884
H43   H     H_    0.654421 0.035521 0.705149 0.147885
H44   H     H_    0.653614 0.008797 0.774160 0.153206
H45   H     H_    0.171775 0.821920 0.340404 0.149671
H46   H     H_    0.671272 0.827379 0.305243 0.129902
H47   H     H_    0.703098 0.216308 0.837575 0.143174
H48   H     H_    0.686372 0.838796 0.236064 0.121800
H49   H     H_    0.553683 0.799198 0.341311 0.127259
H50   H     H_    0.227435 0.476142 0.092035 0.378007
H51   H     H_    0.251687 0.434715 0.328525 0.356448
H52   H     H_    0.482255 0.168501 0.094141 0.331374
H53   H     H_    0.084385 0.481980 0.877093 0.322905
H54   H     H_    0.093442 0.558306 0.681463 0.325328
H55   H     H_    0.504011 0.388067 0.695882 0.329197
H56   H     H_    0.300001 0.735742 0.281121 0.116098
H57   H     H_    0.477424 0.033923 0.845903 0.356154
H58   H     H_    0.462466 0.163772 0.582290 0.389852
H59   H     H_    0.791881 0.294679 0.631901 0.376318
H60   H     H_    0.290366 0.749026 0.210570 0.122511
H61   H     H_    0.065649 0.649754 0.276706 0.145979
H62   H     H_    0.895364 0.586548 0.105736 0.152373
O1    O     O_R   0.324990 0.503440 0.453910 -0.522152
O2    O     O_R   0.675430 0.831160 0.051290 -0.500989
O3    O     O_R   0.698870 0.998880 0.039560 -0.440327
O4    O     O_R   0.522030 0.339050 0.458320 -0.504552
O5    O     O_R   0.811290 0.006780 0.950620 -0.511957
O6    O     O_R   0.980960 0.812920 0.953200 -0.521763
O7    O     O_R   0.001480 0.656720 0.955830 -0.435747
O8    O     O_R   0.809240 0.683250 0.968050 -0.493145
O9    O     O_R   0.652500 0.818540 0.967340 -0.514710
O10   O     O_R   0.677620 0.987170 0.961730 -0.496952
O11   O     O_3   0.833240 0.833660 0.999890 -0.278441
O12   O     O_R   0.639980 0.519500 0.542640 -0.496663
O13   O     O_R   0.676180 0.324490 0.458320 -0.510693
O14   O     O_R   0.643570 0.521510 0.464260 -0.508757
O15   O     O_R   0.504630 0.675350 0.460920 -0.487156
O16   O     O_R   0.339850 0.642450 0.459830 -0.435202
O17   O     O_R   0.321120 0.501280 0.538470 -0.448249
O18   O     O_R   0.518440 0.337050 0.536710 -0.445813
O19   O     O_R   0.672300 0.322330 0.542880 -0.446745
O20   O     O_3   0.185131 0.540054 0.077655 -0.653339
O21   O     O_3   0.231589 0.498348 0.314172 -0.663512
O22   O     O_3   0.545277 0.140949 0.078915 -0.670271
O23   O     O_R   0.500750 0.673190 0.545480 -0.475559
O24   O     O_3   0.067782 0.537782 0.896213 -0.670004
O25   O     O_3   0.129238 0.526517 0.657292 -0.612913
O26   O     O_3   0.511732 0.384873 0.724238 -0.679805
O27   O     O_3   0.497649 0.072776 0.829078 -0.656755
O28   O     O_3   0.494142 0.202655 0.572811 -0.633406
O29   O     O_3   0.756092 0.284980 0.609298 -0.649920
O30   O     O_R   0.336260 0.640450 0.538210 -0.440155
O31   O     O_3   0.499990 0.499990 0.500010 -0.294436
O32   O     O_R   0.834210 0.019400 0.034570 -0.492124
O33   O     O_R   0.002210 0.824620 0.031030 -0.450367
O34   O     O_R   0.024400 0.669340 0.039790 -0.459391
O35   O     O_R   0.830490 0.694950 0.045870 -0.506637

loop_
_geom_bond_atom_site_label_1
_geom_bond_atom_site_label_2
_ccdc_geom_bond_type
C16   H37   S    
C100  H17   S    
C71   C75   A    
C32   O34   A    
C11   H35   S    
C93   C94   A    
C87   H10   S    
C39   O5    A    
C1    O13   A    
C18   C21   A    
C107  C109  A    
C37   O8    A    
C108  C120  A    
C102  C112  S    
C111  C112  A    
Cr2   O14   S    
Cr3   O30   S    
C62   H60   S    
Cr2   O31   S    
C14   C33   A    
C56   O20   S    
C81   C82   A    
C57   C58   A    
Cr4   O5    S    
C79   H9    S    
H51   O21   S    
C85   C86   A    
C56   C57   A    
C40   C46   A    
C72   O19   A    
H50   O20   S    
C101  C102  A    
C96   O17   A    
C105  Cl6   S    
Cr3   O16   S    
C96   O30   A    
C28   C29   A    
C76   C78   A    
C18   C19   A    
C84   O23   A    
C109  C111  A    
C5    C6    A    
C80   C81   A    
C84   O12   A    
C106  C107  A    
C63   H56   S    
C71   C73   A    
C116  C117  A    
C28   O29   S    
C61   Cl1   S    
Cr2   O19   S    
C41   C42   A    
C115  H28   S    
C67   H2    S    
Cr1   O4    S    
C60   O16   A    
C22   C66   A    
C116  H19   S    
C8    H32   S    
C60   O1    A    
C113  H26   S    
C2    C110  A    
C48   O14   A    
C77   C88   A    
C10   C20   S    
C8    C9    A    
C65   C67   A    
C111  H25   S    
Cr3   O23   S    
C38   H62   S    
C47   H49   S    
C29   C30   A    
C103  Cl7   S    
C9    C10   A    
C40   H30   S    
Cr5   O7    S    
C41   H20   S    
Cr1   O31   S    
C23   C25   A    
C32   O33   A    
C70   H3    S    
Cr4   O11   S    
C69   O21   S    
C80   C90   S    
C33   C46   S    
C37   O9    A    
C94   C95   A    
Cr2   O13   S    
C2    H44   S    
C1    O4    A    
C25   C44   A    
C32   C54   S    
Cr6   O3    S    
C88   O26   S    
C92   C97   A    
C6    C7    A    
C13   C77   A    
H52   O22   S    
C73   C74   A    
C48   C53   S    
C66   H41   S    
C54   C56   A    
C35   C76   S    
C59   C61   A    
C50   C53   A    
Cr6   O2    S    
C4    H33   S    
C63   C64   A    
C27   C31   A    
C51   C52   A    
C88   C99   A    
C7    C119  A    
C71   Cl4   S    
C9    H31   S    
C19   O25   S    
C12   H36   S    
C10   C11   A    
C78   H5    S    
C76   C82   A    
C91   C92   A    
C91   H13   S    
C7    O24   S    
C26   H23   S    
H53   O24   S    
C35   O3    A    
C23   H40   S    
C6    H38   S    
C58   C59   A    
C51   H8    S    
C99   C110  A    
Cr1   O17   S    
C30   C99   S    
C17   C21   A    
Cr6   O11   S    
C49   H12   S    
C110  H43   S    
C14   H39   S    
Cr1   O1    S    
C67   C68   A    
C62   C63   A    
C57   Cl3   S    
C73   H45   S    
C26   C33   A    
C29   Cl10  S    
C12   C15   A    
C16   C20   A    
C24   C27   A    
C39   O10   A    
Cr5   O35   S    
C50   C51   A    
C37   C98   S    
C69   C74   A    
C50   H34   S    
Cr4   O33   S    
C2    C13   A    
C114  C118  A    
C3    C119  A    
Cr5   O8    S    
C113  C117  A    
C58   C68   S    
C31   C72   S    
C83   C85   A    
C105  C112  A    
C47   C49   A    
C101  H22   S    
C8    C15   A    
C98   C100  A    
Cr5   O34   S    
C87   C89   A    
C92   H14   S    
C65   H61   S    
C45   C46   A    
C24   C30   A    
C42   C43   A    
C1    C97   S    
C3    C4    A    
C93   C97   A    
C70   C75   A    
C55   C66   A    
C3    H29   S    
Cr6   O10   S    
C113  C114  A    
C105  C106  A    
C94   Cl5   S    
C89   H11   S    
C83   C90   A    
C48   O15   A    
C40   C41   A    
C55   H47   S    
C60   C75   S    
C72   O18   A    
Cr1   O18   S    
C86   C87   A    
C28   C31   A    
C26   C38   A    
C4    C5    A    
C18   Cl9   S    
C54   C61   A    
C85   H6    S    
Cr6   O9    S    
C11   C12   A    
C27   O28   S    
Cr4   O6    S    
C47   C52   A    
C21   C96   S    
C62   C68   A    
C36   C119  S    
C106  H21   S    
C36   O6    A    
C24   Cl2   S    
C43   H46   S    
C14   C120  A    
C77   H42   S    
Cr5   O11   S    
H59   O29   S    
C35   O32   A    
Cr3   O15   S    
C64   C65   A    
H58   O28   S    
C19   C20   A    
C34   C108  S    
C43   C45   A    
C81   H15   S    
H54   O25   S    
C83   H7    S    
C78   C79   A    
C44   C55   A    
C114  H27   S    
C16   C17   A    
C59   H4    S    
C98   C104  A    
C22   C39   S    
C25   O27   S    
C100  C101  A    
Cr2   O12   S    
C107  C117  S    
C36   O7    A    
Cr4   O32   S    
C17   Cl8   S    
C38   C108  A    
C102  C103  A    
Cr3   O31   S    
C5    C15   S    
C49   C53   A    
C86   C95   S    
H57   O27   S    
C79   C80   A    
C34   O2    A    
C82   O22   S    
C91   C95   A    
C84   C118  S    
C115  C118  A    
C103  C104  A    
C64   C74   S    
C22   C23   A    
C93   H16   S    
C120  H1    S    
C69   C70   A    
C104  H18   S    
C89   C90   A    
C34   O35   A    
H55   O26   S    
C109  H24   S    
C13   C44   S    
C115  C116  A    
C45   H48   S    
C42   C52   S    
