data_mof_unit_43538.cif
_audit_creation_date              2012-12-11T15:49:13-0500
_audit_creation_method            fapswitch 2.2
_symmetry_space_group_name_H-M    P1
_symmetry_Int_Tables_number       1
_space_group_crystal_system       triclinic
_cell_length_a                    21.628482
_cell_length_b                    7.180916
_cell_length_c                    14.90548
_cell_angle_alpha                 90.429603
_cell_angle_beta                  106.687094
_cell_angle_gamma                 90.106116
_cell_volume                      2217.43152301

loop_
_atom_site_label
_atom_site_type_symbol
_atom_type_description
_atom_site_fract_x
_atom_site_fract_y
_atom_site_fract_z
_atom_type_partial_charge
O1    O     O_R   0.335860 0.638190 0.002110 -0.542024
O2    O     O_R   0.664140 0.361810 0.997890 -0.542025
O3    O     O_R   0.164140 0.138190 0.997890 -0.541083
O4    O     O_R   0.835860 0.861810 0.002110 -0.541080
O5    O     O_R   0.217530 0.305920 0.861960 -0.533716
O6    O     O_R   0.782470 0.694080 0.138040 -0.533741
O7    O     O_R   0.282470 0.805920 0.138040 -0.534716
O8    O     O_R   0.717530 0.194080 0.861960 -0.534714
C1    C     C_R   0.206010 0.475988 0.825700 0.670019
C2    C     C_R   0.793993 0.524011 0.174299 0.669995
C3    C     C_R   0.293961 0.977701 0.174184 0.669869
C4    C     C_R   0.706040 0.022298 0.825816 0.669886
O9    O     O_R   0.338690 0.308320 0.993240 -0.543428
O10   O     O_R   0.661310 0.691680 0.006760 -0.543436
O11   O     O_R   0.161310 0.808320 0.006760 -0.544101
O12   O     O_R   0.838690 0.191680 0.993240 -0.544097
O13   O     O_R   0.286170 0.140430 0.130100 -0.532790
O14   O     O_R   0.713830 0.859570 0.869900 -0.532779
O15   O     O_R   0.213830 0.640430 0.869900 -0.533930
O16   O     O_R   0.786170 0.359570 0.130100 -0.533922
C5    C     C_R   0.364974 0.477347 0.997787 0.668285
C6    C     C_R   0.635026 0.522653 0.002213 0.668284
C7    C     C_R   0.135032 0.977147 0.002222 0.667690
C8    C     C_R   0.864968 0.022853 0.997778 0.667694
O17   O     O_3   0.232630 0.472410 0.044750 -0.372432
O18   O     O_3   0.767370 0.527590 0.955250 -0.372414
O19   O     O_3   0.267370 0.972410 0.955250 -0.373138
O20   O     O_3   0.732630 0.027590 0.044750 -0.373152
V1    V     V_3+5 0.253220 0.196620 0.991700 1.451269
V2    V     V_3+5 0.746780 0.803380 0.008300 1.451248
V3    V     V_3+5 0.246780 0.696620 0.008300 1.441983
V4    V     V_3+5 0.753220 0.303380 0.991700 1.442022
C9    C     C_R   0.029728 0.826296 0.003282 -0.142631
C10   C     C_R   0.970271 0.173704 0.996718 -0.142618
C11   C     C_R   0.469579 0.326482 0.994375 -0.136031
C12   C     C_R   0.530421 0.673518 0.005625 -0.136038
H1    H     H_    0.051396 0.689923 0.005603 0.121186
H2    H     H_    0.948604 0.310077 0.994397 0.121194
H3    H     H_    0.447343 0.190210 0.990119 0.122259
H4    H     H_    0.552657 0.809790 0.009881 0.122253
C13   C     C_R   0.964748 0.837767 0.001602 -0.128903
C14   C     C_R   0.035252 0.162233 0.998398 -0.128905
C15   C     C_R   0.534560 0.337717 0.996003 -0.138184
C16   C     C_R   0.465439 0.662283 0.003996 -0.138182
H5    H     H_    0.938690 0.709418 0.002978 0.123584
H6    H     H_    0.061310 0.290582 0.997022 0.123576
H7    H     H_    0.560061 0.209409 0.992661 0.122614
H8    H     H_    0.439939 0.790591 0.007339 0.122618
C17   C     C_R   0.934002 0.011665 0.998289 -0.039413
C18   C     C_R   0.065998 0.988335 0.001711 -0.039404
C19   C     C_R   0.565993 0.511419 0.001666 -0.039615
C20   C     C_R   0.434007 0.488580 0.998334 -0.039622
C21   C     C_R   0.679759 0.009607 0.723792 -0.128387
C22   C     C_R   0.320247 0.990378 0.276208 -0.128398
C23   C     C_R   0.820173 0.519778 0.276553 -0.130611
C24   C     C_R   0.179840 0.480185 0.723442 -0.130641
C25   C     C_R   0.689422 0.939194 0.569741 -0.152292
C26   C     C_R   0.310581 0.060560 0.430280 -0.152286
C27   C     C_R   0.811320 0.575575 0.432384 -0.152194
C28   C     C_R   0.188687 0.423980 0.567637 -0.152163
C29   C     C_R   0.718388 0.960109 0.665652 0.359668
C30   C     C_R   0.281614 0.039725 0.334365 0.359639
C31   C     C_R   0.782131 0.565089 0.336146 0.359862
C32   C     C_R   0.217879 0.434676 0.663870 0.359901
C33   C     C_R   0.613327 0.033330 0.685372 -0.224106
C34   C     C_R   0.386683 0.966720 0.314616 -0.224066
C35   C     C_R   0.886281 0.488181 0.314198 -0.223977
C36   C     C_R   0.113734 0.511790 0.685778 -0.224038
C37   C     C_R   0.582720 0.006144 0.588537 0.066124
C38   C     C_R   0.417288 0.993752 0.411463 0.066118
C39   C     C_R   0.917199 0.504672 0.411606 0.065662
C40   C     C_R   0.082807 0.494965 0.588387 0.065663
C41   C     C_R   0.622516 0.965400 0.529743 -0.043966
C42   C     C_R   0.377490 0.034388 0.470268 -0.043980
C43   C     C_R   0.877917 0.542682 0.471463 -0.043198
C44   C     C_R   0.122086 0.456791 0.528545 -0.043152
C45   C     C_R   0.513986 0.015026 0.549010 -0.007060
C46   C     C_R   0.486021 0.984825 0.450993 -0.007060
C47   C     C_R   0.985822 0.488910 0.450734 -0.007198
C48   C     C_R   0.014180 0.510580 0.549264 -0.007211
C49   C     C_R   0.527752 0.951344 0.395096 -0.164122
C50   C     C_R   0.472255 0.048394 0.604916 -0.164118
C51   C     C_R   0.972882 0.542380 0.605969 -0.163275
C52   C     C_R   0.027114 0.456851 0.394045 -0.163318
C53   C     C_R   0.594407 0.945799 0.432285 0.360113
C54   C     C_R   0.405599 0.053897 0.567730 0.360125
C55   C     C_R   0.906297 0.553556 0.569185 0.360622
C56   C     C_R   0.093699 0.445645 0.430832 0.360563
H9    H     H_    0.412933 0.930255 0.265716 0.111060
H10   H     H_    0.587081 0.069987 0.734250 0.111088
H11   H     H_    0.087854 0.544093 0.735676 0.112505
H12   H     H_    0.912170 0.456188 0.264275 0.112451
H13   H     H_    0.720238 0.897158 0.527537 0.154123
H14   H     H_    0.279763 0.102495 0.472497 0.154119
H15   H     H_    0.780969 0.615172 0.475690 0.153937
H16   H     H_    0.219038 0.384276 0.524349 0.153931
H17   H     H_    0.510633 0.932831 0.320396 0.144038
H18   H     H_    0.489372 0.066774 0.679624 0.144032
H19   H     H_    0.990262 0.555391 0.680919 0.143826
H20   H     H_    0.009728 0.443524 0.319107 0.143838
O21   O     O_3   0.630196 0.919827 0.370031 -0.620128
H21   H     H_    0.669771 0.997044 0.390967 0.297381
O22   O     O_3   0.369808 0.079724 0.629994 -0.620135
H22   H     H_    0.330240 0.002482 0.609035 0.297366
O23   O     O_3   0.870854 0.576863 0.632083 -0.622146
H23   H     H_    0.830647 0.502699 0.609830 0.296218
O24   O     O_3   0.129137 0.422020 0.367948 -0.622093
H24   H     H_    0.169323 0.496305 0.390102 0.296234
O25   O     O_3   0.215837 0.069481 0.301378 -0.623950
H25   H     H_    0.200390 0.042230 0.233428 0.279803
O26   O     O_3   0.784160 0.930279 0.698653 -0.623989
H26   H     H_    0.799612 0.957660 0.766589 0.279796
O27   O     O_3   0.283325 0.399037 0.695825 -0.622112
H27   H     H_    0.299461 0.425245 0.763825 0.281198
O28   O     O_3   0.716684 0.600736 0.304212 -0.622119
H28   H     H_    0.700552 0.574759 0.236190 0.281221

loop_
_geom_bond_atom_site_label_1
_geom_bond_atom_site_label_2
_ccdc_geom_bond_type
O17   V3    S    
C51   C55   A    
C26   C30   A    
O21   H21   S    
O19   V1    S    
O13   V1    S    
C37   C45   A    
O26   H26   S    
C10   C14   A    
C40   C44   A    
O15   V3    S    
C11   C15   A    
C39   C47   A    
C45   C46   A    
O1    C5    A    
O9    V1    S    
C47   C52   A    
O4    C8    A    
C38   C46   A    
O28   H28   S    
O1    V3    S    
C36   H11   S    
O2    V4    S    
C14   H6    S    
C25   C41   A    
O3    V1    S    
C38   C42   A    
O3    C7    A    
C1    O15   A    
C2    O16   A    
C23   C31   A    
O2    C6    A    
O24   H24   S    
C24   C32   A    
C37   C41   A    
O14   V2    S    
C21   C33   A    
C44   C56   A    
C4    C21   S    
C36   C40   A    
C31   O28   S    
C16   C20   A    
O11   C7    A    
O12   C8    A    
C25   H13   S    
C50   H18   S    
C27   H15   S    
O10   V2    S    
C48   C51   A    
C54   O22   S    
C13   C17   A    
C34   H9    S    
O5    V1    S    
C33   H10   S    
O7    V3    S    
C52   H20   S    
C12   H4    S    
C56   O24   S    
O18   V4    S    
C7    C18   S    
C22   C30   A    
C9    C18   A    
C50   C54   A    
C28   C44   A    
C9    H1    S    
O8    V4    S    
O7    C3    A    
O5    C1    A    
C55   O23   S    
O8    C4    A    
O9    C5    A    
C1    C24   S    
C42   C54   A    
C25   C29   A    
C2    C23   S    
C3    C22   S    
C41   C53   A    
C12   C19   A    
C14   C18   A    
C28   H16   S    
C43   C55   A    
O6    V2    S    
C12   C16   A    
C21   C29   A    
C29   O26   S    
C27   C43   A    
O22   H22   S    
C53   O21   S    
C26   C42   A    
O27   H27   S    
O16   V4    S    
C8    C17   S    
C3    O13   A    
C10   C17   A    
C32   O27   S    
C10   H2    S    
C52   C56   A    
O6    C2    A    
C23   C35   A    
O11   V3    S    
C22   C34   A    
O12   V4    S    
O23   H23   S    
C27   C31   A    
C28   C32   A    
C9    C13   A    
O10   C6    A    
O20   V2    S    
C26   H14   S    
C40   C48   A    
C24   C36   A    
O25   H25   S    
C39   C43   A    
C46   C49   A    
C15   C19   A    
C34   C38   A    
C30   O25   S    
C49   H17   S    
C45   C50   A    
C33   C37   A    
C11   H3    S    
C35   H12   S    
C35   C39   A    
C49   C53   A    
C47   C48   A    
C4    O14   A    
C11   C20   A    
C13   H5    S    
C51   H19   S    
C15   H7    S    
C5    C20   S    
O4    V2    S    
C16   H8    S    
C6    C19   S    
