data_mof_unit_67011.cif
_audit_creation_date              2012-12-11T17:41:05-0500
_audit_creation_method            fapswitch 2.2
_symmetry_space_group_name_H-M    P1
_symmetry_Int_Tables_number       1
_space_group_crystal_system       triclinic
_cell_length_a                    8.250753
_cell_length_b                    12.862749
_cell_length_c                    14.155384
_cell_angle_alpha                 92.897846
_cell_angle_beta                  90.689881
_cell_angle_gamma                 98.127596
_cell_volume                      1485.00282258

loop_
_atom_site_label
_atom_site_type_symbol
_atom_type_description
_atom_site_fract_x
_atom_site_fract_y
_atom_site_fract_z
_atom_type_partial_charge
Ba1   Ba    Ba6+2 0.855630 0.555280 0.454520 1.738225
Ba2   Ba    Ba6+2 0.334200 0.444810 0.545490 1.708117
C1    C     C_3   0.692885 0.940986 0.118739 -0.260986
C2    C     C_3   0.623893 0.842321 0.167908 0.371873
C3    C     C_3   0.473510 0.322626 0.259361 0.302511
C4    C     C_3   0.454649 0.304735 0.152420 -0.331956
C5    C     C_3   0.000219 0.148331 0.800193 0.272456
C6    C     C_3   0.944399 0.056338 0.862483 -0.141953
C7    C     C_3   0.543795 0.164971 0.844063 0.318212
C8    C     C_3   0.478344 0.083905 0.914491 -0.307053
C9    C     C_R   0.986476 0.446241 0.061821 0.025382
C10   C     C_R   0.181478 0.500367 0.196975 0.032357
C11   C     C_R   0.333971 0.553709 0.227678 -0.265282
C12   C     C_3   0.158173 0.798345 0.194872 0.554964
C13   C     C_R   0.445743 0.600015 0.163630 -0.016582
C14   C     C_R   0.402337 0.600288 0.068181 -0.165265
C15   C     C_R   0.246919 0.552787 0.035514 0.002755
C16   C     C_R   0.136607 0.498995 0.098942 -0.026367
C17   C     C_R   0.053577 0.504059 0.902211 -0.033531
C18   C     C_R   0.943368 0.450310 0.965711 0.033903
C19   C     C_R   0.009366 0.501284 0.803756 -0.033487
C20   C     C_R   0.859185 0.446122 0.772784 -0.260597
C21   C     C_R   0.747465 0.401216 0.836894 0.013461
C22   C     C_R   0.788946 0.402138 0.932653 -0.142974
C23   C     C_3   0.174324 0.840445 0.096153 0.540762
C24   C     C_R   0.203553 0.556631 0.939435 -0.006288
C25   C     C_R   0.761892 0.173299 0.528784 -0.270630
C26   C     C_R   0.420924 0.814694 0.469104 -0.253760
C27   C     C_R   0.412721 0.987733 0.411996 -0.116513
C28   C     C_R   0.338239 0.884881 0.422382 -0.004289
C29   C     C_R   0.574453 0.846679 0.512065 0.002032
C30   C     C_R   0.642681 0.956028 0.513775 -0.037250
C31   C     C_R   0.558472 0.028595 0.464751 -0.060668
C32   C     C_R   0.620525 0.138718 0.474522 0.014227
C33   C     C_R   0.853219 0.103144 0.567705 0.028445
C34   C     C_3   0.321052 0.751510 0.734731 0.348575
C35   C     C_R   0.792073 0.995317 0.562478 0.015638
C36   C     C_3   0.332263 0.868825 0.753568 -0.293580
C37   C     C_3   0.962656 0.238995 0.339565 0.291879
C38   C     C_3   0.906185 0.124192 0.309351 -0.398727
C39   C     C_3   0.740545 0.682635 0.739076 0.798911
C40   C     C_3   0.787302 0.715691 0.842122 1.089587
H1    H     H_    0.591994 0.864084 0.241746 0.015164
H2    H     H_    0.461575 0.899648 0.769647 0.110843
H3    H     H_    0.258778 0.886104 0.816214 0.148015
H4    H     H_    0.859283 0.273551 0.371133 0.009207
H5    H     H_    0.063727 0.243457 0.392441 0.063002
H6    H     H_    0.785296 0.116547 0.272446 0.135840
H7    H     H_    0.895472 0.074990 0.371508 0.079585
H8    H     H_    0.995796 0.094431 0.260735 0.156382
H9    H     H_    0.848493 0.660091 0.702456 -0.079544
H10   H     H_    0.605624 0.999151 0.122897 0.083192
H11   H     H_    0.817408 0.647364 0.879953 -0.117038
H12   H     H_    0.512784 0.806690 0.127033 -0.045763
H13   H     H_    0.713800 0.920893 0.043041 0.188093
H14   H     H_    0.355189 0.338833 0.288626 0.003756
H15   H     H_    0.569535 0.391140 0.275258 0.055755
H16   H     H_    0.352609 0.240427 0.134522 0.165694
H17   H     H_    0.428254 0.377128 0.119811 0.062891
H18   H     H_    0.569639 0.282722 0.122484 0.109456
H19   H     H_    0.811137 0.976307 0.152439 0.154824
H20   H     H_    0.226963 0.783824 0.047944 -0.060327
H21   H     H_    0.889683 0.175002 0.769732 -0.081737
H22   H     H_    0.051313 0.029237 0.897049 0.149730
H23   H     H_    0.860996 0.079925 0.918057 0.063474
H24   H     H_    0.878828 0.989255 0.818514 0.199849
H25   H     H_    0.669517 0.198123 0.868652 -0.053633
H26   H     H_    0.482446 0.121989 0.986839 0.118625
H27   H     H_    0.553752 0.018905 0.914882 0.101352
H28   H     H_    0.073477 0.722869 0.190733 0.041693
H29   H     H_    0.349455 0.051205 0.896464 0.119948
H30   H     H_    0.370103 0.553857 0.301429 0.061641
H31   H     H_    0.490418 0.636947 0.019469 0.137040
H32   H     H_    0.699874 0.366355 0.981239 0.064491
H33   H     H_    0.823703 0.444644 0.698812 0.094144
H34   H     H_    0.901148 0.401209 0.106638 0.096069
H35   H     H_    0.289494 0.600097 0.894479 0.100247
H36   H     H_    0.859182 0.943987 0.599653 0.156790
H37   H     H_    0.807097 0.256550 0.536485 0.042667
H38   H     H_    0.281231 0.783546 0.218842 -0.349625
H39   H     H_    0.363698 0.734032 0.473143 0.065037
H40   H     H_    0.256675 0.916704 0.098588 0.034207
H41   H     H_    0.386683 0.720593 0.793516 0.101692
H42   H     H_    0.376784 0.734207 0.666148 -0.003586
O1    O     O_2   0.887370 0.460630 0.272300 -0.468645
O2    O     O_3   0.683973 0.766623 0.696184 -0.648757
O3    O     O_3   0.095866 0.871707 0.256454 -0.595721
O4    O     O_2   0.302330 0.539400 0.727760 -0.417716
O5    O     O_3   0.060300 0.548700 0.611500 -0.474825
O6    O     O_3   0.519500 0.346920 0.670840 -0.458078
O7    O     O_3   0.156453 0.709036 0.731354 -0.602741
O8    O     O_3   0.614310 0.373510 0.452640 -0.482112
O9    O     O_3   0.100780 0.295230 0.623970 -0.504004
O10   O     O_2   0.188832 0.114863 0.556902 -0.482407
O11   O     O_3   0.104237 0.113480 0.730887 -0.596585
O12   O     O_3   0.129410 0.451380 0.388510 -0.500936
O13   O     O_3   0.575400 0.626570 0.547370 -0.452600
O14   O     O_2   0.344320 0.238700 0.455090 -0.484910
O15   O     O_3   0.518923 0.231736 0.296087 -0.618377
O16   O     O_2   0.435686 0.438433 0.833430 -0.422984
O17   O     O_3   0.439352 0.241786 0.843359 -0.606804
O18   O     O_3   0.670210 0.653170 0.329170 -0.484416
O19   O     O_2   0.770919 0.577454 0.166511 -0.483036
O20   O     O_3   0.016577 0.291811 0.259597 -0.629111
O21   O     O_3   0.742378 0.774145 0.168147 -0.522042
O22   O     O_2   0.845380 0.761330 0.544970 -0.435095
O23   O     O_3   0.088930 0.704860 0.376040 -0.480483
O24   O     O_2   0.997236 0.885824 0.430996 -0.475606
P1    P     P_3+3 0.054400 0.427280 0.286870 0.971854
P2    P     P_3+3 0.668300 0.742890 0.573060 1.038147
P3    P     P_3+3 0.130016 0.839354 0.373166 1.014901
P4    P     P_3+3 0.135310 0.572810 0.713130 1.011395
P5    P     P_3+3 0.057920 0.156735 0.619465 0.975267
P6    P     P_3+3 0.654150 0.651818 0.205924 0.991855
P7    P     P_3+3 0.526188 0.244134 0.419844 0.938697
P8    P     P_3+3 0.538594 0.355521 0.795131 1.014976
C41   C     C_2   0.271696 0.918221 0.669148 0.544915
H43   H     H_    0.356052 0.967095 0.626643 -0.004126
O25   O     O_2   0.127550 0.900399 0.645640 -0.533994
F1    F     F_    0.619054 0.597286 0.736667 -0.744275
F2    F     F_    0.922220 0.792938 0.846336 -0.699276
F3    F     F_    0.658684 0.754072 0.887342 -0.737600
C42   C     C_2   0.091170 0.240919 0.856836 0.514281
H44   H     H_    0.138130 0.310693 0.820605 0.027941
O26   O     O_2   0.114282 0.239368 0.942160 -0.601640
C43   C     C_2   0.548170 0.114429 0.746805 0.357281
H45   H     H_    0.470351 0.135045 0.690413 0.060437
O27   O     O_2   0.639483 0.049722 0.730378 -0.675870
C44   C     C_2   0.343069 0.042339 0.336107 0.560552
H46   H     H_    0.239381 0.083441 0.349641 0.003763
O28   O     O_2   0.393014 0.033802 0.255709 -0.615966
F4    F     F_    0.022773 0.854488 0.060540 -0.661199

loop_
_geom_bond_atom_site_label_1
_geom_bond_atom_site_label_2
_ccdc_geom_bond_type
C9    C16   A    
C6    H24   S    
C43   H45   S    
C39   C40   S    
C4    H16   S    
C3    H14   S    
C17   C18   A    
O16   P8    D    
C37   O20   S    
C39   O2    S    
O5    P4    S    
Ba2   P4    S    
C15   C24   A    
C17   C19   A    
O11   P5    S    
C12   O3    S    
C25   H37   S    
C9    H34   S    
C41   O25   D    
C40   H11   S    
O15   P7    S    
O20   P1    S    
C42   O26   D    
O3    P3    S    
C34   H41   S    
C38   H7    S    
C27   C31   A    
Ba1   Ba2   S    
Ba2   O6    S    
C17   C24   A    
C18   C22   A    
C36   H3    S    
Ba1   P1    S    
C21   P8    S    
C36   C41   S    
C1    H13   S    
C27   C44   S    
C3    O15   S    
Ba2   O13   S    
C14   C15   A    
Ba1   O5    S    
C21   C22   A    
Ba2   O4    S    
C12   H38   S    
C7    C8    S    
Ba1   O22   S    
C8    H29   S    
C6    H23   S    
C39   F1    S    
C19   C20   A    
C12   H28   S    
C20   H33   S    
C10   P1    S    
O10   P5    D    
C31   C32   A    
C1    H19   S    
C25   C32   A    
Ba1   O1    S    
C9    C18   A    
C24   H35   S    
C26   C29   A    
C14   H31   S    
C4    H18   S    
O21   P6    S    
C42   H44   S    
O19   P6    D    
Ba1   O13   S    
C37   C38   S    
O2    P2    S    
C25   C33   A    
C32   P7    S    
O7    P4    S    
Ba2   O5    S    
C7    H25   S    
C36   H2    S    
C27   C28   A    
O18   P6    S    
Ba1   P2    S    
C29   C30   A    
C15   C16   A    
C13   P6    S    
O9    P5    S    
C30   C35   A    
Ba2   O8    S    
C5    H21   S    
O12   P1    S    
C6    H22   S    
C37   H4    S    
C34   O7    S    
C11   H30   S    
Ba1   O23   S    
Ba1   O8    S    
O6    P8    S    
C11   C13   A    
C23   H40   S    
C1    C2    S    
C19   P4    S    
C40   F3    S    
C37   H5    S    
C44   H46   S    
O22   P2    D    
C2    O21   S    
C33   C35   A    
C38   H6    S    
C43   O27   D    
C2    H12   S    
C26   H39   S    
O23   P3    S    
C4    H17   S    
Ba2   O9    S    
C5    C42   S    
C1    H10   S    
C2    H1    S    
C8    H26   S    
C5    O11   S    
C35   H36   S    
O1    P1    D    
C7    C43   S    
O24   P3    D    
C3    H15   S    
C28   P3    S    
C30   C31   A    
C34   C36   S    
C26   C28   A    
C41   H43   S    
O13   P2    S    
C22   H32   S    
O14   P7    D    
C3    C4    S    
C34   H42   S    
Ba1   O12   S    
C38   H8    S    
Ba2   O12   S    
C29   P2    S    
C33   P5    S    
C23   H20   S    
C12   C23   S    
O8    P7    S    
C5    C6    S    
O4    P4    D    
C8    H27   S    
C10   C11   A    
Ba2   O14   S    
C7    O17   S    
C10   C16   A    
O17   P8    S    
C20   C21   A    
C23   F4    S    
Ba1   O18   S    
C39   H9    S    
C13   C14   A    
C40   F2    S    
C44   O28   D    
