data_mof_unit_45147.cif
_audit_creation_date              2012-12-11T15:44:46-0500
_audit_creation_method            fapswitch 2.2
_symmetry_space_group_name_H-M    P1
_symmetry_Int_Tables_number       1
_space_group_crystal_system       triclinic
_cell_length_a                    19.216947
_cell_length_b                    11.109107
_cell_length_c                    18.664884
_cell_angle_alpha                 90.280285
_cell_angle_beta                  90.646716
_cell_angle_gamma                 89.791644
_cell_volume                      3984.31062395

loop_
_atom_site_label
_atom_site_type_symbol
_atom_type_description
_atom_site_fract_x
_atom_site_fract_y
_atom_site_fract_z
_atom_type_partial_charge
C1    C     C_R   0.761034 0.532122 0.646360 0.547101
C2    C     C_R   0.239209 0.530721 0.354392 0.576828
C3    C     C_R   0.260974 0.029706 0.645228 0.572864
C4    C     C_R   0.738965 0.032513 0.353638 0.552276
C5    C     C_R   0.831952 0.127184 0.518910 -0.083079
C6    C     C_R   0.165002 0.107692 0.477688 -0.135899
C7    C     C_R   0.334748 0.606141 0.522370 -0.147260
C8    C     C_R   0.668445 0.630352 0.481647 -0.080898
C9    C     C_R   0.819653 0.094253 0.448319 -0.112045
C10   C     C_R   0.177022 0.076398 0.548437 -0.115517
C11   C     C_R   0.323000 0.575846 0.451346 -0.125312
C12   C     C_R   0.680539 0.597129 0.552145 -0.111813
C13   C     C_3   0.641193 0.206260 0.456983 0.130939
C14   C     C_3   0.307799 0.284205 0.573527 0.133013
C15   C     C_3   0.193692 0.786123 0.428707 0.099308
C16   C     C_3   0.858837 0.704687 0.543710 0.126143
C17   C     C_3   0.655249 0.243978 0.534123 -0.227108
C18   C     C_3   0.292954 0.326393 0.498433 -0.246159
C19   C     C_3   0.205156 0.824093 0.505461 -0.255125
C20   C     C_3   0.845677 0.740243 0.466223 -0.225574
C21   C     C_R   0.776735 0.151438 0.564209 0.046960
C22   C     C_R   0.216166 0.165487 0.438872 0.037790
C23   C     C_R   0.283013 0.662555 0.561656 0.036377
C24   C     C_R   0.723807 0.650847 0.436000 0.045795
C25   C     C_R   0.006547 0.344509 0.430403 -0.020252
C26   C     C_R   0.013705 0.333623 0.581706 0.002430
C27   C     C_R   0.486952 0.835186 0.418595 -0.005157
C28   C     C_R   0.494471 0.843914 0.570007 -0.018849
C29   C     C_R   0.987604 0.124398 0.427627 -0.121237
C30   C     C_R   0.014273 0.112580 0.574308 -0.078358
C31   C     C_R   0.485345 0.613879 0.424062 -0.074077
C32   C     C_R   0.512163 0.623853 0.570818 -0.123414
C33   C     C_R   0.990318 0.013267 0.461578 -0.150610
C34   C     C_R   0.007067 0.007131 0.534024 -0.110080
C35   C     C_R   0.492925 0.508010 0.463331 -0.103329
C36   C     C_R   0.510061 0.513326 0.535732 -0.149589
C37   C     C_R   0.009720 0.226281 0.541194 -0.008653
C38   C     C_R   0.001465 0.232099 0.465685 -0.017840
C39   C     C_R   0.498551 0.731979 0.533706 -0.017893
C40   C     C_R   0.490180 0.727218 0.458152 -0.011328
C41   C     C_R   0.029334 0.441248 0.546645 0.023516
C42   C     C_R   0.014194 0.451531 0.473053 0.008625
C43   C     C_R   0.488367 0.951748 0.528356 0.005496
C44   C     C_R   0.472956 0.943138 0.454740 -0.011808
C45   C     C_R   0.790922 0.171588 0.639273 0.548743
C46   C     C_R   0.207672 0.174758 0.360693 0.596405
C47   C     C_R   0.292348 0.674517 0.639389 0.572444
C48   C     C_R   0.709431 0.671014 0.360919 0.543117
C49   C     C_R   0.053816 0.542387 0.585422 -0.032637
C50   C     C_R   0.008066 0.569816 0.445270 -0.086968
C51   C     C_R   0.495514 0.069299 0.557379 -0.084020
C52   C     C_R   0.448412 0.045462 0.417309 -0.053898
C53   C     C_R   0.055302 0.655170 0.554204 -0.115921
C54   C     C_R   0.030753 0.669304 0.484633 -0.160034
C55   C     C_R   0.472206 0.169765 0.519652 -0.163532
C56   C     C_R   0.446729 0.157423 0.450228 -0.115520
C57   C     C_R   0.752616 0.082238 0.079125 -0.003309
C58   C     C_R   0.252396 0.070756 0.924340 -0.018007
C59   C     C_R   0.251461 0.579124 0.078164 -0.014951
C60   C     C_R   0.763107 0.530292 0.931639 -0.011528
C61   C     C_R   0.812092 0.047975 0.042291 0.081479
C62   C     C_R   0.225613 0.182853 0.941517 0.013266
C63   C     C_R   0.311187 0.546074 0.041365 0.091880
C64   C     C_R   0.740698 0.647648 0.942521 0.041324
C65   C     C_R   0.815920 0.061973 0.969804 -0.091646
C66   C     C_R   0.219454 0.216244 0.012958 -0.152533
C67   C     C_R   0.314638 0.560468 0.969030 -0.077512
C68   C     C_R   0.730943 0.691050 0.011181 -0.155939
C69   C     C_R   0.701668 0.156851 0.968139 0.218766
C70   C     C_R   0.260696 0.019312 0.050881 0.244383
C71   C     C_R   0.200887 0.657224 0.967629 0.241487
C72   C     C_R   0.765075 0.497311 0.060532 0.259414
C73   C     C_R   0.700392 0.145279 0.042828 -0.105314
C74   C     C_R   0.270191 0.989161 0.978855 -0.096979
C75   C     C_R   0.198682 0.641200 0.041896 -0.103756
C76   C     C_R   0.775575 0.454908 0.990522 -0.121683
C77   C     C_3   0.850766 0.930548 0.040923 0.152430
C78   C     C_3   0.153680 0.229433 0.925540 0.114986
C79   C     C_3   0.351002 0.429617 0.039189 0.149755
C80   C     C_3   0.674426 0.704747 0.916289 0.145121
C81   C     C_3   0.858170 0.949055 0.960928 -0.222486
C82   C     C_3   0.153076 0.281090 0.000642 -0.240442
C83   C     C_3   0.356915 0.448220 0.958876 -0.225933
C84   C     C_3   0.669164 0.764222 0.989467 -0.257374
C85   C     C_R   0.759448 0.106887 0.929721 0.002628
C86   C     C_R   0.232180 0.132891 0.067611 -0.002957
C87   C     C_R   0.258691 0.607174 0.929197 0.010323
C88   C     C_R   0.738040 0.614603 0.070219 0.006953
C89   C     C_R   0.974115 0.344855 0.649306 0.559160
C90   C     C_R   0.030265 0.347492 0.354528 0.538364
C91   C     C_R   0.470066 0.847029 0.645671 0.560617
C92   C     C_R   0.525920 0.845415 0.350691 0.541144
C93   C     C_R   0.984176 0.336138 0.083244 0.068534
C94   C     C_R   0.945206 0.341047 0.937531 0.006440
C95   C     C_R   0.486276 0.835585 0.082391 0.064507
C96   C     C_R   0.446481 0.840646 0.937208 0.006708
C97   C     C_R   0.949298 0.435124 0.053950 0.068253
C98   C     C_R   0.930296 0.437132 0.982853 -0.047754
C99   C     C_R   0.448773 0.932664 0.054151 0.078959
C100  C     C_R   0.428979 0.934659 0.983195 -0.030292
C101  C     C_R   0.965529 0.231775 0.969762 -0.129701
C102  C     C_R   0.984330 0.229504 0.042428 -0.089003
C103  C     C_R   0.470777 0.732704 0.968224 -0.123015
C104  C     C_R   0.490636 0.730682 0.040424 -0.090297
C105  C     C_3   0.960439 0.567520 0.056013 -0.188706
C106  C     C_3   0.939375 0.569158 0.976904 -0.225790
C107  C     C_3   0.457568 0.065582 0.057154 -0.190661
C108  C     C_3   0.436465 0.067427 0.978094 -0.234882
C109  C     C_R   0.773002 0.486701 0.859825 0.529425
C110  C     C_R   0.239139 0.530118 0.147890 0.545570
C111  C     C_R   0.260252 0.032713 0.851280 0.566177
C112  C     C_R   0.739472 0.031273 0.148323 0.544879
C113  C     C_R   0.773442 0.129994 0.854429 0.625296
C114  C     C_R   0.212042 0.165351 0.139459 0.567381
C115  C     C_R   0.273419 0.630432 0.854349 0.634445
C116  C     C_R   0.714996 0.657645 0.139164 0.563179
C117  C     C_R   0.936359 0.351213 0.860113 0.556617
C118  C     C_R   0.028151 0.346719 0.147434 0.546988
C119  C     C_R   0.436456 0.851196 0.860111 0.564375
C120  C     C_R   0.528706 0.846713 0.147197 0.544310
C121  C     C_R   0.751963 0.089089 0.421512 0.070845
C122  C     C_R   0.243260 0.089519 0.578907 0.059724
C123  C     C_R   0.256817 0.589905 0.420868 0.062216
C124  C     C_R   0.748147 0.589070 0.578719 0.067527
C125  C     C_R   0.696585 0.113880 0.466534 0.016552
C126  C     C_R   0.290424 0.162537 0.545829 0.001070
C127  C     C_R   0.209511 0.662781 0.454337 0.014969
C128  C     C_R   0.803649 0.612475 0.533783 0.012940
C129  C     C_R   0.708628 0.145853 0.537289 0.005909
C130  C     C_R   0.277234 0.201062 0.475330 -0.001446
C131  C     C_R   0.221618 0.698092 0.525707 0.006766
C132  C     C_R   0.791915 0.643304 0.462844 0.006175
Cr1   Cr    Cr6+3 0.885860 0.491680 0.749630 1.106220
Cr2   Cr    Cr6+3 0.114140 0.491680 0.250370 1.045213
Cr3   Cr    Cr6+3 0.385860 0.991680 0.749630 1.067375
Cr4   Cr    Cr6+3 0.614140 0.991680 0.250370 1.086758
Cr5   Cr    Cr6+3 0.730490 0.332970 0.748720 1.071686
Cr6   Cr    Cr6+3 0.269510 0.332970 0.251280 1.112577
Cr7   Cr    Cr6+3 0.230490 0.832970 0.748720 1.082868
Cr8   Cr    Cr6+3 0.769510 0.832970 0.251280 1.096655
Cr9   Cr    Cr6+3 0.887570 0.179310 0.750150 1.072492
Cr10  Cr    Cr6+3 0.112430 0.179310 0.249850 1.095347
Cr11  Cr    Cr6+3 0.387570 0.679310 0.750150 1.049933
Cr12  Cr    Cr6+3 0.612430 0.679310 0.249850 1.124442
H1    H     H_    0.884030 0.131445 0.539253 0.167664
H2    H     H_    0.118279 0.078267 0.451492 0.155095
H3    H     H_    0.381772 0.577224 0.548279 0.157971
H4    H     H_    0.616326 0.637255 0.461535 0.166538
H5    H     H_    0.655623 0.176658 0.072321 0.207093
H6    H     H_    0.288929 0.900196 0.964624 0.148121
H7    H     H_    0.153387 0.670629 0.071200 0.196402
H8    H     H_    0.793105 0.363391 0.981658 0.129190
H9    H     H_    0.817222 0.853283 0.054035 0.113892
H10   H     H_    0.115164 0.155774 0.917841 0.104582
H11   H     H_    0.318962 0.351138 0.053262 0.113766
H12   H     H_    0.632472 0.637653 0.906545 0.134044
H13   H     H_    0.911772 0.968063 0.942924 0.197273
H14   H     H_    0.160297 0.380101 0.004788 0.158654
H15   H     H_    0.410032 0.468547 0.939817 0.197791
H16   H     H_    0.681102 0.862059 0.990658 0.158237
H17   H     H_    0.974134 0.151537 0.938006 0.148244
H18   H     H_    0.009868 0.150103 0.062721 0.195343
H19   H     H_    0.481295 0.653743 0.935876 0.152462
H20   H     H_    0.518446 0.652849 0.060070 0.188395
H21   H     H_    0.015427 0.591336 0.067094 0.206855
H22   H     H_    0.890018 0.618501 0.967045 0.139292
H23   H     H_    0.512033 0.092101 0.068572 0.211619
H24   H     H_    0.386842 0.115897 0.968439 0.133888
H25   H     H_    0.861955 0.069087 0.414369 0.135909
H26   H     H_    0.137582 0.028975 0.577087 0.134707
H27   H     H_    0.362624 0.528468 0.422353 0.141456
H28   H     H_    0.638180 0.574273 0.586286 0.132749
H29   H     H_    0.138799 0.795879 0.410527 0.115656
H30   H     H_    0.910218 0.663031 0.554436 0.127678
H31   H     H_    0.589882 0.164478 0.447113 0.132732
H32   H     H_    0.363412 0.291928 0.589241 0.107557
H33   H     H_    0.678691 0.334740 0.540641 0.187030
H34   H     H_    0.246515 0.385287 0.492800 0.179408
H35   H     H_    0.250655 0.882377 0.515268 0.133727
H36   H     H_    0.822771 0.831411 0.458825 0.188325
H37   H     H_    0.611193 0.226606 0.570399 0.100208
H38   H     H_    0.341001 0.354871 0.471677 0.091341
H39   H     H_    0.156027 0.850990 0.531222 0.100383
H40   H     H_    0.890044 0.720686 0.430556 0.099721
H41   H     H_    0.971857 0.124522 0.371880 0.158924
H42   H     H_    0.026889 0.104243 0.630727 0.158118
H43   H     H_    0.472513 0.606156 0.367626 0.171449
H44   H     H_    0.527736 0.623269 0.626616 0.155564
H45   H     H_    0.983687 0.588047 0.394040 0.157759
H46   H     H_    0.069498 0.534936 0.641081 0.165758
H47   H     H_    0.430552 0.038555 0.362165 0.194423
H48   H     H_    0.520266 0.085748 0.608744 0.160414
O1    O     O_R   0.957020 0.451640 0.669920 -0.509109
O2    O     O_R   0.042980 0.451640 0.330080 -0.514761
O3    O     O_R   0.457020 0.951640 0.669920 -0.510458
O4    O     O_R   0.542980 0.951640 0.330080 -0.510637
O5    O     O_R   0.736470 0.210100 0.823360 -0.440238
O6    O     O_R   0.263530 0.210100 0.176640 -0.458797
O7    O     O_R   0.236470 0.710100 0.823360 -0.432061
O8    O     O_R   0.763530 0.710100 0.176640 -0.458005
O9    O     O_R   0.831960 0.093290 0.830130 -0.503443
O10   O     O_R   0.168040 0.093290 0.169870 -0.418524
O11   O     O_R   0.331960 0.593290 0.830130 -0.504635
O12   O     O_R   0.668040 0.593290 0.169870 -0.433889
O13   O     O_R   0.945600 0.250580 0.824860 -0.493258
O14   O     O_R   0.054400 0.250580 0.175140 -0.507220
O15   O     O_R   0.445600 0.750580 0.824860 -0.495565
O16   O     O_R   0.554400 0.750580 0.175140 -0.502338
O17   O     O_3   0.834640 0.334650 0.749500 -0.366654
O18   O     O_3   0.165360 0.334650 0.250500 -0.344909
O19   O     O_3   0.334640 0.834650 0.749500 -0.347993
O20   O     O_3   0.665360 0.834650 0.250500 -0.337417
O21   O     O_R   0.821450 0.543440 0.674610 -0.453908
O22   O     O_R   0.178550 0.543440 0.325390 -0.491750
O23   O     O_R   0.321450 0.043440 0.674610 -0.487899
O24   O     O_R   0.678550 0.043440 0.325390 -0.459489
O25   O     O_R   0.715320 0.458650 0.668100 -0.561903
O26   O     O_R   0.284680 0.458650 0.331900 -0.532593
O27   O     O_R   0.215320 0.958650 0.668100 -0.546074
O28   O     O_R   0.784680 0.958650 0.331900 -0.543714
O29   O     O_R   0.737170 0.209590 0.674530 -0.495265
O30   O     O_R   0.262830 0.209590 0.325470 -0.452852
O31   O     O_R   0.237170 0.709590 0.674530 -0.495914
O32   O     O_R   0.762830 0.709590 0.325470 -0.492139
O33   O     O_R   0.832710 0.092740 0.669580 -0.413005
O34   O     O_R   0.167290 0.092740 0.330420 -0.435565
O35   O     O_R   0.332710 0.592740 0.669580 -0.448976
O36   O     O_R   0.667290 0.592740 0.330420 -0.409814
O37   O     O_R   0.946290 0.250060 0.676040 -0.519643
O38   O     O_R   0.053710 0.250060 0.323960 -0.529475
O39   O     O_R   0.446290 0.750060 0.676040 -0.523128
O40   O     O_R   0.553710 0.750060 0.323960 -0.522361
O41   O     O_R   0.956270 0.452200 0.830470 -0.444900
O42   O     O_R   0.043730 0.452200 0.169530 -0.514861
O43   O     O_R   0.456270 0.952200 0.830470 -0.459310
O44   O     O_R   0.543730 0.952200 0.169530 -0.515808
O45   O     O_R   0.820760 0.543950 0.823440 -0.486445
O46   O     O_R   0.179240 0.543950 0.176560 -0.522164
O47   O     O_R   0.320760 0.043950 0.823440 -0.511403
O48   O     O_R   0.679240 0.043950 0.176560 -0.510056
O49   O     O_R   0.714570 0.459210 0.828640 -0.466705
O50   O     O_R   0.285430 0.459210 0.171360 -0.462471
O51   O     O_R   0.214570 0.959210 0.828640 -0.468341
O52   O     O_R   0.785430 0.959210 0.171360 -0.466005
H49   H     H_    0.072114 0.732100 0.585456 0.118426
H50   H     H_    0.027996 0.757635 0.461439 0.095057
H51   H     H_    0.474865 0.257300 0.544169 0.094304
H52   H     H_    0.428700 0.234963 0.420546 0.124933
S1    S     S_3+6 0.626442 0.225663 0.929756 0.023678
O53   O     O_2   0.606842 0.171646 0.858398 -0.220988
O54   O     O_2   0.567344 0.210987 0.980140 -0.338053
O55   O     O_3   0.637455 0.374097 0.922427 -0.516894
H53   H     H_    0.591512 0.405961 0.906898 0.370007
S2    S     S_3+6 0.279025 0.910881 0.117702 0.049176
O56   O     O_2   0.321970 0.810068 0.087579 -0.327552
O57   O     O_2   0.317851 0.967852 0.179357 -0.200207
O58   O     O_3   0.203376 0.855331 0.146959 -0.477339
H54   H     H_    0.216696 0.784952 0.176432 0.386412
S3    S     S_3+6 0.127596 0.734757 0.930477 0.041839
O59   O     O_2   0.107913 0.691657 0.856576 -0.215207
O60   O     O_2   0.067080 0.717999 0.978817 -0.330363
O61   O     O_3   0.141777 0.882928 0.929990 -0.517185
H55   H     H_    0.096535 0.919631 0.916200 0.367649
S4    S     S_3+6 0.784301 0.402487 0.134274 0.015398
O62   O     O_2   0.829901 0.299710 0.111420 -0.316891
O63   O     O_2   0.821179 0.472691 0.192219 -0.258765
O64   O     O_3   0.709737 0.347778 0.166793 -0.480518
H56   H     H_    0.724659 0.287046 0.202479 0.385541
S5    S     S_3+6 0.929639 0.931256 0.093481 0.009244
O65   O     O_2   0.931139 0.039985 0.141715 -0.258770
O66   O     O_2   0.930810 0.820979 0.139655 -0.288437
O67   O     O_3   0.000052 0.929357 0.040799 -0.543339
H57   H     H_    0.040305 0.923150 0.074234 0.392746
S6    S     S_3+6 0.148695 0.338703 0.855927 0.039574
O68   O     O_2   0.108815 0.446473 0.881843 -0.228499
O69   O     O_2   0.220193 0.376188 0.833835 -0.239423
O70   O     O_3   0.105972 0.279266 0.785163 -0.445800
H58   H     H_    0.121749 0.194390 0.782598 0.340197
S7    S     S_3+6 0.430991 0.433345 0.089803 0.016890
O71   O     O_2   0.432790 0.543332 0.136993 -0.249281
O72   O     O_2   0.434106 0.324023 0.136753 -0.281585
O73   O     O_3   0.500140 0.431895 0.035375 -0.545434
H59   H     H_    0.541128 0.424674 0.067768 0.392126
S8    S     S_3+6 0.684380 0.804721 0.842006 0.030908
O74   O     O_2   0.650308 0.923384 0.858283 -0.223228
O75   O     O_2   0.759703 0.824639 0.825247 -0.260572
O76   O     O_3   0.644729 0.744134 0.769691 -0.494095
H60   H     H_    0.673509 0.673257 0.756935 0.357190
H61   H     H_    0.831036 0.878656 0.929328 0.174584
H62   H     H_    0.112479 0.244383 0.034831 0.095539
H63   H     H_    0.329008 0.378597 0.926887 0.157930
H64   H     H_    0.622431 0.738506 0.019285 0.096296
H65   H     H_    0.921607 0.611946 0.090926 0.206196
H66   H     H_    0.980950 0.589713 0.938592 0.254409
H67   H     H_    0.418063 0.107762 0.092324 0.203448
H68   H     H_    0.477652 0.090427 0.939870 0.246597
S9    S     S_3+6 0.661962 0.319965 0.393425 0.001058
O77   O     O_2   0.649709 0.274933 0.318412 -0.258166
O78   O     O_2   0.614405 0.423749 0.406216 -0.295423
O79   O     O_3   0.745172 0.364074 0.403988 -0.546110
H69   H     H_    0.758861 0.395871 0.356734 0.389214
S10   S     S_3+6 0.250344 0.343756 0.642309 0.041018
O80   O     O_2   0.196312 0.257083 0.667482 -0.267555
O81   O     O_2   0.295027 0.377094 0.705778 -0.206726
O82   O     O_3   0.207022 0.464478 0.612600 -0.546808
H70   H     H_    0.185115 0.497962 0.656107 0.389007
S11   S     S_3+6 0.255081 0.847275 0.364294 0.033560
O83   O     O_2   0.310080 0.760997 0.339104 -0.281680
O84   O     O_2   0.214028 0.884729 0.299440 -0.174559
O85   O     O_3   0.296826 0.966324 0.398578 -0.514491
H71   H     H_    0.329282 0.931841 0.434490 0.326207
S12   S     S_3+6 0.836728 0.820989 0.606124 0.008479
O86   O     O_2   0.841134 0.776328 0.681850 -0.222600
O87   O     O_2   0.888388 0.919589 0.597924 -0.300441
O88   O     O_3   0.755968 0.872920 0.588469 -0.545470
H72   H     H_    0.737283 0.898567 0.635388 0.394819
H73   H     H_    0.979557 0.932564 0.431025 0.117821
H74   H     H_    0.013001 0.920626 0.559606 0.145376
H75   H     H_    0.487386 0.421806 0.436891 0.149582
H76   H     H_    0.521716 0.432625 0.565450 0.113207

loop_
_geom_bond_atom_site_label_1
_geom_bond_atom_site_label_2
_ccdc_geom_bond_type
C11   H27   S    
Cr2   O18   S    
Cr9   O17   S    
C9    H25   S    
C12   H28   S    
C2    C123  S    
C56   H52   S    
O73   H59   S    
C106  H22   S    
S8    O74   D    
C118  O14   A    
C6    H2    S    
C94   C117  S    
C95   C99   A    
C92   O40   A    
C3    O23   A    
C29   C33   A    
S6    O68   D    
S2    O57   D    
Cr12  O12   S    
Cr8   O28   S    
O67   H57   S    
C115  O11   A    
C70   C74   A    
C9    C121  A    
C113  O9    A    
C87   C115  S    
C69   S1    S    
C20   H40   S    
C97   C105  S    
C15   C127  S    
C22   C130  A    
Cr9   O33   S    
Cr2   O46   S    
C20   C132  S    
C41   C49   A    
C116  O12   A    
C107  H23   S    
C15   H29   S    
C120  O16   A    
C23   C47   S    
C62   C66   A    
S3    O60   D    
C60   C76   A    
C7    H3    S    
Cr8   O52   S    
C25   C42   A    
C43   C44   A    
C37   C38   A    
C66   C82   S    
C91   O3    A    
C110  O50   A    
C16   C20   S    
C89   O1    A    
C13   S9    S    
C14   S10   S    
C45   O33   A    
C119  O43   A    
Cr5   O5    S    
C2    O22   A    
S5    O66   D    
C18   C130  S    
C19   H39   S    
C19   H35   S    
O79   H69   S    
Cr7   O31   S    
C13   H31   S    
C47   O31   A    
C111  O51   A    
S8    O76   S    
Cr11  O35   S    
C10   C122  A    
C46   O30   A    
C104  H20   S    
C57   C61   A    
C59   C63   A    
C98   C106  S    
C60   C64   A    
Cr8   O8    S    
C1    C124  S    
C49   C53   A    
C112  O52   A    
C51   C55   A    
S7    O72   D    
C127  C131  A    
C79   H11   S    
C61   C65   A    
Cr2   O2    S    
C5    C21   A    
C31   H43   S    
C2    O26   A    
C126  C130  A    
O55   H53   S    
Cr11  O11   S    
C67   C83   S    
C4    O24   A    
Cr1   O17   S    
C70   S2    S    
C97   C98   A    
C53   C54   A    
C5    C9    A    
C25   C90   S    
C64   C68   A    
C82   H14   S    
Cr10  O38   S    
Cr6   O30   S    
C71   S3    S    
S12   O86   D    
O58   H54   S    
C57   C73   A    
C50   H45   S    
C60   C109  S    
C77   H9    S    
Cr4   O20   S    
C27   C44   A    
S12   O87   D    
S4    O62   D    
C112  O48   A    
C29   C38   A    
C107  C108  S    
Cr7   O51   S    
C3    O27   A    
C44   C52   A    
Cr10  O14   S    
C108  H24   S    
O70   H58   S    
S9    O78   D    
Cr1   O45   S    
C21   C45   S    
S10   O81   D    
C100  C108  S    
C5    H1    S    
C30   C34   A    
C24   C48   S    
C88   C116  S    
C39   C40   A    
Cr8   O32   S    
C49   H46   S    
C48   O32   A    
S2    O58   S    
C115  O7    A    
Cr6   O18   S    
C91   O39   A    
C52   H47   S    
C121  C125  A    
C14   C126  S    
C125  C129  A    
C25   C38   A    
C123  C127  A    
C84   H64   S    
C117  O41   A    
C27   C40   A    
C8    C12   A    
Cr2   O42   S    
C23   C131  A    
C76   H8    S    
C21   C129  A    
C42   C50   A    
S4    O63   D    
C77   S5    S    
C96   C103  A    
C78   S6    S    
Cr5   O25   S    
C93   C97   A    
C69   C85   A    
C58   C74   A    
C16   H30   S    
S1    O55   S    
C62   C78   S    
C66   C86   A    
O64   H56   S    
C110  O46   A    
O61   H55   S    
S12   O88   S    
C13   C17   S    
S11   O85   S    
C45   O29   A    
S8    O75   D    
Cr5   O49   S    
Cr4   O48   S    
S4    O64   S    
C7    C23   A    
C96   C100  A    
C8    C24   A    
C29   H41   S    
C28   C91   S    
S6    O69   D    
Cr9   O13   S    
C17   H37   S    
C47   O35   A    
C18   H34   S    
Cr1   O1    S    
C114  O6    A    
C90   O38   A    
Cr11  O39   S    
C81   H61   S    
C58   C62   A    
Cr3   O19   S    
C55   C56   A    
C101  C102  A    
S6    O70   S    
C41   C42   A    
C96   C119  S    
C35   C36   A    
C80   C84   S    
C84   H16   S    
C15   C19   S    
C50   C54   A    
Cr10  O10   S    
C105  H65   S    
Cr4   O4    S    
C117  O13   A    
C107  H67   S    
C94   C98   A    
Cr9   O37   S    
C6    C22   A    
Cr5   O29   S    
C31   C40   A    
C32   C39   A    
C14   H32   S    
Cr11  O15   S    
C4    O28   A    
S7    O71   D    
C114  O10   A    
C69   C73   A    
C124  C128  A    
O88   H72   S    
S5    O65   D    
C64   C80   S    
C8    H4    S    
Cr10  O34   S    
C72   S4    S    
C81   H13   S    
C58   C111  S    
C68   C84   S    
C33   H73   S    
C78   H10   S    
C35   H75   S    
C28   C39   A    
C36   H76   S    
S11   O83   D    
C30   C37   A    
Cr5   O17   S    
C75   H7    S    
S2    O56   D    
C24   C132  A    
C65   C81   S    
O76   H60   S    
C90   O2    A    
C109  O49   A    
C102  H18   S    
S1    O53   D    
Cr1   O41   S    
C71   C87   A    
C22   C46   S    
C80   S8    S    
C1    O21   A    
C31   C35   A    
C32   C36   A    
Cr12  O20   S    
Cr8   O20   S    
O85   H71   S    
C83   H63   S    
C73   H5    S    
C67   C87   A    
Cr12  O40   S    
C11   C123  A    
C93   C102  A    
C6    C10   A    
C26   C37   A    
C15   S11   S    
C95   C120  S    
C10   H26   S    
C99   C107  S    
C105  C106  S    
C28   C43   A    
Cr2   O22   S    
C79   C83   S    
C43   C51   A    
C48   O36   A    
C85   C113  S    
C105  H21   S    
C4    C121  S    
C54   H50   S    
Cr3   O3    S    
C79   S7    S    
O82   H70   S    
S5    O67   S    
C103  C104  A    
C1    O25   A    
C13   C125  S    
Cr12  O16   S    
C16   S12   S    
S9    O77   D    
C14   C18   S    
C72   C76   A    
S3    O61   S    
C108  H68   S    
C20   H36   S    
C63   C79   S    
C26   C89   S    
C7    C11   A    
S10   O82   S    
C30   H42   S    
Cr9   O9    S    
C116  O8    A    
Cr7   O7    S    
C57   C112  S    
C18   H38   S    
Cr4   O44   S    
C59   C110  S    
S7    O73   S    
C78   C82   S    
C82   H62   S    
Cr3   O23   S    
C94   C101  A    
C77   C81   S    
Cr6   O50   S    
C3    C122  S    
C55   H51   S    
C106  H66   S    
C72   C88   A    
C80   H12   S    
C19   C131  S    
C63   C67   A    
S1    O54   D    
C32   H44   S    
C17   C129  S    
C61   C77   S    
Cr11  O19   S    
Cr7   O19   S    
C111  O47   A    
S11   O84   D    
C122  C126  A    
Cr7   O27   S    
C118  O42   A    
C99   C100  A    
C12   C124  A    
C33   C34   A    
C46   O34   A    
C27   C92   S    
C16   C128  S    
Cr6   O6    S    
C68   C88   A    
S9    O79   S    
C119  O15   A    
C93   C118  S    
Cr10  O18   S    
S3    O59   D    
C70   C86   A    
C59   C75   A    
C34   H74   S    
C95   C104  A    
S10   O80   D    
C128  C132  A    
C74   H6    S    
C92   O4    A    
C65   C85   A    
C109  O45   A    
C103  H19   S    
C86   C114  S    
Cr1   O21   S    
C101  H17   S    
C120  O44   A    
C71   C75   A    
Cr3   O47   S    
Cr3   O43   S    
C53   H49   S    
C83   H15   S    
Cr6   O26   S    
C113  O5    A    
Cr12  O36   S    
C17   H33   S    
C89   O37   A    
C51   H48   S    
C52   C56   A    
C26   C41   A    
Cr4   O24   S    
