data_mof_unit_45172.cif
_audit_creation_date              2012-10-26T18:32:01-0400
_audit_creation_method            fapswitch 2.2
_symmetry_space_group_name_H-M    P1
_symmetry_Int_Tables_number       1
_space_group_crystal_system       triclinic
_cell_length_a                    12.358725
_cell_length_b                    13.26673
_cell_length_c                    14.206086
_cell_angle_alpha                 92.857324
_cell_angle_beta                  107.914568
_cell_angle_gamma                 117.003499
_cell_volume                      1924.70526142

loop_
_atom_site_label
_atom_site_type_symbol
_atom_type_description
_atom_site_fract_x
_atom_site_fract_y
_atom_site_fract_z
_atom_type_partial_charge
C1    C     C_R   0.649390 0.713526 0.506237 0.535227
C2    C     C_R   0.149636 0.412149 0.999047 0.035463
C3    C     C_R   0.109371 0.441896 0.074047 0.028350
C4    C     C_R   0.618355 0.516389 0.687001 0.548175
C5    C     C_R   0.265231 0.405727 0.027200 -0.136366
C6    C     C_R   0.342061 0.429492 0.129337 -0.136453
C7    C     C_R   0.191378 0.470415 0.176294 -0.132014
C8    C     C_R   0.150663 0.964251 0.372647 -0.129048
C9    C     C_R   0.249098 0.162275 0.463513 -0.001646
C10   C     C_R   0.714518 0.920406 0.552006 -0.129836
C11   C     C_R   0.798004 0.037184 0.562343 -0.141894
C12   C     C_R   0.824545 0.467853 0.915758 0.006254
C13   C     C_R   0.903625 0.071515 0.531795 -0.121231
C14   C     C_R   0.923849 0.988248 0.484853 0.032737
C15   C     C_R   0.827490 0.869598 0.461027 0.021913
C16   C     C_R   0.345195 0.285283 0.485050 0.546632
C17   C     C_R   0.035416 0.019111 0.459133 0.029062
C18   C     C_R   0.041060 0.934386 0.398836 0.052632
C19   C     C_R   0.936251 0.821483 0.363817 -0.140870
C20   C     C_R   0.830372 0.789695 0.393473 -0.124685
C21   C     C_R   0.143054 0.131468 0.493625 -0.135230
C22   C     C_R   0.253952 0.078013 0.404236 -0.135145
C23   C     C_R   0.772396 0.481128 0.988805 0.079528
C24   C     C_R   0.729938 0.835402 0.504091 -0.005606
C25   C     C_R   0.254120 0.684297 0.662562 -0.124119
C26   C     C_R   0.654960 0.343177 0.363103 0.048832
C27   C     C_R   0.732939 0.309630 0.332603 -0.161552
C28   C     C_R   0.380073 0.481630 0.312863 0.538930
C29   C     C_R   0.868238 0.368726 0.384130 -0.138507
C30   C     C_R   0.927987 0.463066 0.467402 -0.013141
C31   C     C_R   0.843691 0.494510 0.495562 0.154820
C32   C     C_R   0.067493 0.527268 0.523477 -0.052936
C33   C     C_R   0.118938 0.621026 0.606450 0.057062
C34   C     C_R   0.923187 0.435046 0.940497 0.045306
C35   C     C_R   0.035223 0.650943 0.632648 0.051297
C36   C     C_R   0.901137 0.588763 0.577722 -0.098888
C37   C     C_R   0.159227 0.502868 0.501226 0.006323
C38   C     C_R   0.338722 0.656049 0.637182 0.231936
C39   C     C_R   0.676122 0.513884 0.793365 -0.031037
C40   C     C_R   0.305283 0.461941 0.204472 -0.006621
C41   C     C_R   0.668891 0.506696 0.962219 0.100744
C42   C     C_R   0.618935 0.519196 0.863259 -0.113873
C43   C     C_R   0.783472 0.496253 0.822665 -0.157653
C44   C     C_3   0.864123 0.330384 0.757893 -0.406472
C45   C     C_R   0.990831 0.445754 0.044637 0.019874
C46   C     C_R   0.935760 0.456887 0.115635 -0.154596
C47   C     C_R   0.826099 0.470387 0.087267 -0.125087
C48   C     C_R   0.956487 0.390691 0.866409 -0.007999
C49   C     C_R   0.071789 0.384606 0.896838 -0.113529
Cu1   Cu    Cu3+1 0.416420 0.526630 0.522910 0.959214
Cu2   Cu    Cu3+1 0.583580 0.473370 0.477090 0.908810
H1    H     H_    0.787053 0.476929 0.144484 0.143422
H2    H     H_    0.749413 0.702721 0.359491 0.154527
H3    H     H_    0.169448 0.501457 0.235573 0.122098
H4    H     H_    0.295304 0.755907 0.726332 0.142855
H5    H     H_    0.128260 0.433192 0.439578 0.119055
H6    H     H_    0.550181 0.296694 0.322455 0.124979
H7    H     H_    0.923502 0.338843 0.357164 0.098920
H8    H     H_    0.688274 0.237446 0.268651 0.108533
H9    H     H_    0.845700 0.618270 0.602824 0.186088
H10   H     H_    0.429630 0.422010 0.149391 0.147963
H11   H     H_    0.098550 0.353974 0.840068 0.109463
H12   H     H_    0.295286 0.380859 0.970107 0.114066
H13   H     H_    0.536089 0.533839 0.841185 0.125862
H14   H     H_    0.835177 0.505526 0.771941 0.135616
H15   H     H_    0.972599 0.451218 0.193391 0.103643
H16   H     H_    0.508174 0.808033 0.693176 0.197069
H17   H     H_    0.490925 0.713699 0.770382 0.200014
H18   H     H_    0.058829 0.805886 0.688587 0.238957
H19   H     H_    0.042339 0.714049 0.768305 0.228458
H20   H     H_    0.533375 0.529571 0.001188 0.221935
H21   H     H_    0.684544 0.595499 0.089611 0.222284
H22   H     H_    0.761358 0.304301 0.746705 0.148891
H23   H     H_    0.335371 0.100678 0.379851 0.124680
H24   H     H_    0.896802 0.386154 0.705470 0.137191
H25   H     H_    0.863712 0.248413 0.737400 0.120677
H26   H     H_    0.936358 0.757126 0.313766 0.106595
H27   H     H_    0.155234 0.900139 0.326095 0.109807
H28   H     H_    0.147070 0.197086 0.544600 0.119277
H29   H     H_    0.638225 0.896848 0.582513 0.136091
H30   H     H_    0.965010 0.163756 0.542786 0.102851
H31   H     H_    0.782544 0.101595 0.596574 0.113732
N1    N     N_R   0.290690 0.566960 0.557640 -0.200798
N2    N     N_R   0.709100 0.433710 0.442970 -0.235125
N3    N     N_3   0.476108 0.720686 0.695003 -0.554984
N4    N     N_3   0.086200 0.745912 0.716066 -0.653311
N5    N     N_3   0.614248 0.518774 0.035227 -0.657126
O1    O     O_R   0.545970 0.684450 0.528810 -0.465581
O2    O     O_R   0.687130 0.639470 0.490120 -0.533189
O3    O     O_R   0.519670 0.535100 0.660030 -0.465000
O4    O     O_R   0.660830 0.490120 0.621340 -0.524843
O5    O     O_R   0.312870 0.360530 0.509880 -0.511633
O6    O     O_R   0.454030 0.315550 0.471190 -0.503880
O7    O     O_R   0.339170 0.509880 0.378660 -0.510536
O8    O     O_R   0.480330 0.464900 0.339970 -0.512680

loop_
_geom_bond_atom_site_label_1
_geom_bond_atom_site_label_2
_ccdc_geom_bond_type
C38   N1    A    
C27   C29   A    
C41   C42   A    
C19   C20   A    
C45   C46   A    
C12   C23   A    
C26   C27   A    
C28   O8    A    
C6    H10   S    
C9    C16   S    
C46   H15   S    
C12   C43   A    
C3    C7    A    
C30   C31   A    
C35   N4    S    
C9    C22   A    
C28   C40   S    
C13   H30   S    
C5    H12   S    
C28   O7    A    
C18   C19   A    
C19   H26   S    
Cu2   O4    S    
C37   H5    S    
Cu1   O3    S    
C35   C36   A    
C8    C22   A    
C7    C40   A    
Cu1   O1    S    
C4    O4    A    
C1    O1    A    
C13   C14   A    
C8    H27   S    
H17   N3    S    
C14   C17   A    
Cu1   N1    S    
Cu1   Cu2   S    
C39   C42   A    
C4    O3    A    
C11   H31   S    
C15   C20   A    
C41   N5    S    
C1    O2    A    
H16   N3    S    
C23   C47   A    
C38   N3    S    
C10   H29   S    
Cu1   O7    S    
C39   C43   A    
C10   C24   A    
C3    C45   A    
C8    C18   A    
C31   N2    A    
C44   H24   S    
C29   C30   A    
C2    C49   A    
C25   C38   A    
C4    C39   S    
C43   H14   S    
C21   H28   S    
C17   C18   A    
C16   O6    A    
C34   C45   A    
C32   C37   A    
Cu2   O6    S    
H20   N5    S    
Cu1   O5    S    
C15   C24   A    
C16   O5    A    
C6    C40   A    
C2    C5    A    
C34   C48   A    
C22   H23   S    
C12   C34   A    
H19   N4    S    
C42   H13   S    
H21   N5    S    
C46   C47   A    
C48   C49   A    
C26   N2    A    
C49   H11   S    
C31   C36   A    
C25   H4    S    
C20   H2    S    
C36   H9    S    
C47   H1    S    
C23   C41   A    
C32   C33   A    
C2    C3    A    
C27   H8    S    
Cu2   O2    S    
C30   C32   A    
C11   C13   A    
C9    C21   A    
C5    C6    A    
C33   C35   A    
C44   H22   S    
C26   H6    S    
C17   C21   A    
C10   C11   A    
C29   H7    S    
C1    C24   S    
C25   C33   A    
C14   C15   A    
C37   N1    A    
C7    H3    S    
C44   H25   S    
Cu2   N2    S    
H18   N4    S    
C44   C48   S    
Cu2   O8    S    
