data_mof_unit_31615.cif
_audit_creation_date              2012-12-10T19:36:42-0500
_audit_creation_method            fapswitch 2.2
_symmetry_space_group_name_H-M    P1
_symmetry_Int_Tables_number       1
_space_group_crystal_system       triclinic
_cell_length_a                    11.644242
_cell_length_b                    16.007898
_cell_length_c                    16.725079
_cell_angle_alpha                 95.862383
_cell_angle_beta                  92.966727
_cell_angle_gamma                 91.914242
_cell_volume                      3094.74142869

loop_
_atom_site_label
_atom_site_type_symbol
_atom_type_description
_atom_site_fract_x
_atom_site_fract_y
_atom_site_fract_z
_atom_type_partial_charge
C1    C     C_R   0.516841 0.490118 0.349802 0.825442
C2    C     C_R   0.482795 0.510169 0.650176 0.864698
C3    C     C_R   0.568827 0.410348 0.218114 -0.038042
C4    C     C_R   0.432975 0.593383 0.780743 -0.075021
C5    C     C_R   0.432379 0.752073 0.464958 0.103423
C6    C     C_R   0.559879 0.247291 0.540244 0.095139
C7    C     C_R   0.441227 0.840148 0.458251 -0.130778
C8    C     C_R   0.548382 0.158874 0.544401 -0.141672
C9    C     C_R   0.531116 0.890212 0.500882 0.232351
C10   C     C_R   0.472590 0.109233 0.488897 0.226519
C11   C     C_R   0.613355 0.849173 0.545954 -0.152254
C12   C     C_R   0.401936 0.150643 0.436066 -0.166506
C13   C     C_R   0.603655 0.760361 0.549949 0.096163
C14   C     C_R   0.405826 0.240119 0.440003 0.108771
C15   C     C_R   0.284213 0.500316 0.499994 0.876882
C16   C     C_R   0.715779 0.499616 0.499955 0.837751
C17   C     C_1   0.162581 0.500611 0.500550 -0.118981
C18   C     C_1   0.837376 0.498856 0.499285 -0.139814
C19   C     C_1   0.059901 0.499899 0.500294 -0.033322
C20   C     C_1   0.940031 0.499012 0.499447 -0.037351
C21   C     C_R   0.551986 0.487183 0.264794 -0.177878
C22   C     C_R   0.446120 0.515064 0.735035 -0.098917
C23   C     C_R   0.577033 0.562508 0.230338 -0.109634
C24   C     C_R   0.416557 0.441207 0.770642 -0.108187
C25   C     C_R   0.567181 0.561689 0.145401 -0.036424
C26   C     C_R   0.422694 0.443392 0.855533 -0.075852
C27   C     C_R   0.549236 0.483598 0.097081 0.201019
C28   C     C_R   0.442154 0.521710 0.902978 0.229326
C29   C     C_R   0.559373 0.408007 0.133186 -0.097907
C30   C     C_R   0.436131 0.596780 0.865799 -0.093101
Cu1   Cu    Cu3+1 0.494550 0.415220 0.496180 0.998402
Cu2   Cu    Cu3+1 0.505450 0.584780 0.503820 0.962993
N1    N     N_2   0.532438 0.479006 0.011683 -0.245081
N2    N     N_2   0.458140 0.526901 0.988433 -0.255936
N3    N     N_R   0.513630 0.712130 0.509560 -0.208896
N4    N     N_R   0.486370 0.287870 0.490440 -0.198493
N5    N     N_2   0.546175 0.980000 0.497786 -0.234456
N6    N     N_2   0.455868 0.019563 0.490216 -0.225422
O1    O     O_R   0.494910 0.420530 0.382500 -0.546884
O2    O     O_R   0.505090 0.579470 0.617500 -0.572884
O3    O     O_R   0.504100 0.563720 0.388950 -0.614228
O4    O     O_R   0.495900 0.436280 0.611050 -0.563275
O5    O     O_R   0.332600 0.428410 0.496780 -0.568903
O6    O     O_R   0.667400 0.571590 0.503220 -0.604830
O7    O     O_R   0.341800 0.571600 0.503230 -0.554086
O8    O     O_R   0.658200 0.428400 0.496770 -0.546591
C31   C     C_2   0.358073 0.367603 0.720976 0.374283
H1    H     H_    0.363911 0.304598 0.738540 0.061955
O9    O     O_2   0.296714 0.377409 0.661484 -0.541945
C32   C     C_2   0.636076 0.634326 0.283062 0.357444
H2    H     H_    0.680755 0.622371 0.339085 0.097119
O10   O     O_2   0.637698 0.706425 0.265554 -0.577047
C33   C     C_R   0.395543 0.366087 0.894328 0.142870
C34   C     C_R   0.461660 0.294637 0.880708 -0.221793
C35   C     C_R   0.430424 0.220098 0.912277 -0.108970
C36   C     C_R   0.334408 0.216760 0.958828 -0.028721
C37   C     C_R   0.269956 0.288137 0.974365 -0.142682
C38   C     C_R   0.300051 0.362514 0.942089 -0.115362
H3    H     H_    0.536285 0.296432 0.844830 0.120901
H4    H     H_    0.481084 0.165107 0.901127 0.126840
H5    H     H_    0.310674 0.159124 0.983548 0.127373
H6    H     H_    0.196104 0.285634 0.010893 0.122153
H7    H     H_    0.247946 0.416849 0.953175 0.123276
C39   C     C_R   0.586128 0.640390 0.107334 0.210484
C40   C     C_R   0.683710 0.651206 0.062980 -0.130374
C41   C     C_R   0.707429 0.728220 0.033497 -0.126199
C42   C     C_R   0.634317 0.794891 0.048405 -0.018409
C43   C     C_R   0.535791 0.784060 0.091160 -0.108914
C44   C     C_R   0.510813 0.706772 0.119753 -0.102951
H8    H     H_    0.742567 0.600700 0.052876 0.118007
H9    H     H_    0.783198 0.736528 0.999864 0.125845
H10   H     H_    0.653327 0.854661 0.026080 0.127986
H11   H     H_    0.478744 0.835492 0.102001 0.117647
H12   H     H_    0.434948 0.699339 0.153606 0.113178
C45   C     C_2   0.562974 0.327891 0.080491 0.343543
H13   H     H_    0.603650 0.326772 0.023532 0.101940
O11   O     O_2   0.516863 0.263347 0.098466 -0.584824
C46   C     C_2   0.427174 0.677019 0.917566 0.346705
H14   H     H_    0.382015 0.677605 0.972702 0.088776
O12   O     O_2   0.472786 0.742289 0.900995 -0.582850
C47   C     C_2   0.620580 0.339254 0.256633 0.350577
H15   H     H_    0.612104 0.275384 0.228368 0.123395
O13   O     O_2   0.680078 0.352085 0.319287 -0.558374
C48   C     C_2   0.393704 0.666783 0.740015 0.383244
H16   H     H_    0.422517 0.730352 0.761661 0.125753
O14   O     O_2   0.324153 0.656709 0.682303 -0.548964
C49   C     C_R   0.655113 0.293623 0.590153 0.186972
C50   C     C_R   0.765047 0.299058 0.559446 -0.145406
C51   C     C_R   0.858965 0.333897 0.608635 -0.148060
C52   C     C_R   0.844486 0.362119 0.689178 -0.110421
C53   C     C_R   0.736836 0.353268 0.721205 -0.171285
C54   C     C_R   0.643349 0.317368 0.672357 -0.112610
H17   H     H_    0.777717 0.276244 0.497410 0.147710
H18   H     H_    0.943022 0.338732 0.584345 0.151178
H19   H     H_    0.917136 0.389315 0.727124 0.137457
H20   H     H_    0.726270 0.372714 0.784215 0.129241
H21   H     H_    0.562568 0.306267 0.698762 0.103288
C55   C     C_R   0.331256 0.705568 0.421836 0.193841
C56   C     C_R   0.335474 0.673663 0.340674 -0.116862
C57   C     C_R   0.236330 0.639165 0.297321 -0.168201
C58   C     C_R   0.130885 0.639666 0.333515 -0.107342
C59   C     C_R   0.124408 0.675304 0.412865 -0.149921
C60   C     C_R   0.223937 0.708274 0.456930 -0.127948
H22   H     H_    0.414708 0.677693 0.310334 0.152161
H23   H     H_    0.240870 0.613762 0.235105 0.128951
H24   H     H_    0.053871 0.613746 0.299674 0.130334
H25   H     H_    0.042193 0.677419 0.440164 0.128766
H26   H     H_    0.217535 0.736672 0.518079 0.140236
C61   C     C_R   0.604135 0.121404 0.613574 0.150157
C62   C     C_R   0.536702 0.098228 0.675565 -0.133155
C63   C     C_R   0.588717 0.069993 0.744520 -0.148091
C64   C     C_R   0.708344 0.065632 0.752495 -0.046240
C65   C     C_R   0.776003 0.088020 0.690838 -0.101146
C66   C     C_R   0.724121 0.114781 0.621112 -0.166461
H27   H     H_    0.444148 0.103508 0.671044 0.131806
H28   H     H_    0.536361 0.052259 0.792114 0.129106
H29   H     H_    0.748554 0.044330 0.806173 0.130669
H30   H     H_    0.868570 0.083835 0.696706 0.135790
H31   H     H_    0.777403 0.130739 0.573359 0.127927
C67   C     C_R   0.360909 0.875511 0.399806 0.143223
C68   C     C_R   0.251695 0.900130 0.422773 -0.134470
C69   C     C_R   0.167898 0.917776 0.364590 -0.085594
C70   C     C_R   0.192725 0.911292 0.283330 -0.070648
C71   C     C_R   0.301693 0.887754 0.260169 -0.176687
C72   C     C_R   0.385758 0.870051 0.318170 -0.179038
H32   H     H_    0.230455 0.902706 0.485234 0.129136
H33   H     H_    0.083421 0.935768 0.382409 0.137576
H34   H     H_    0.127607 0.924630 0.238350 0.133976
H35   H     H_    0.320572 0.882382 0.197233 0.132172
H36   H     H_    0.468495 0.848951 0.299287 0.167483
C73   C     C_2   0.712460 0.900638 0.586535 0.374480
H37   H     H_    0.749512 0.951850 0.557454 0.090942
O15   O     O_2   0.752069 0.887659 0.652952 -0.548102
C74   C     C_2   0.327558 0.098238 0.374451 0.364499
H38   H     H_    0.361852 0.042509 0.344025 0.117447
O16   O     O_2   0.228295 0.115447 0.358252 -0.550610
C75   C     C_R   0.697273 0.720955 0.594369 0.220702
C76   C     C_R   0.806476 0.714510 0.562309 -0.130700
C77   C     C_R   0.898273 0.684633 0.607092 -0.119400
C78   C     C_R   0.882062 0.661188 0.684037 -0.102654
C79   C     C_R   0.774959 0.669974 0.717276 -0.166483
C80   C     C_R   0.683751 0.701426 0.673260 -0.034416
H39   H     H_    0.820183 0.732732 0.502810 0.107143
H40   H     H_    0.981937 0.679454 0.582140 0.137812
H41   H     H_    0.952957 0.637484 0.718362 0.141264
H42   H     H_    0.763129 0.653895 0.777703 0.135869
H43   H     H_    0.603595 0.712329 0.701216 0.116376
C81   C     C_R   0.322117 0.280045 0.387524 0.198350
C82   C     C_R   0.344558 0.287141 0.306843 -0.093075
C83   C     C_R   0.262391 0.318799 0.255217 -0.141171
C84   C     C_R   0.154725 0.339663 0.282768 -0.127113
C85   C     C_R   0.128495 0.327192 0.361373 -0.142034
C86   C     C_R   0.211177 0.296332 0.413270 -0.043285
H44   H     H_    0.424648 0.266434 0.283768 0.122567
H45   H     H_    0.281495 0.325692 0.193507 0.153568
H46   H     H_    0.090796 0.363713 0.242712 0.132413
H47   H     H_    0.043949 0.341047 0.381995 0.145979
H48   H     H_    0.189303 0.285710 0.473692 0.139861

loop_
_geom_bond_atom_site_label_1
_geom_bond_atom_site_label_2
_ccdc_geom_bond_type
C35   C36   A    
C1    C21   S    
C58   C59   A    
Cu1   O4    S    
C27   C29   A    
Cu2   O7    S    
C63   C64   A    
C75   C80   A    
C47   H15   S    
C37   C38   A    
C37   H6    S    
C31   O9    D    
C33   C34   A    
C27   N1    S    
C57   H23   S    
Cu1   O5    S    
C48   O14   D    
C13   N3    A    
C76   H39   S    
C14   N4    A    
C64   H29   S    
C46   O12   D    
C55   C60   A    
C14   C81   S    
C69   H33   S    
C36   C37   A    
C15   C17   S    
C42   H10   S    
C86   H48   S    
C3    C29   A    
C62   C63   A    
C17   C19   T    
C53   H20   S    
C85   H47   S    
C79   C80   A    
C72   H36   S    
C19   C20   S    
Cu1   O1    S    
C43   C44   A    
Cu1   O8    S    
C2    C22   S    
C32   O10   D    
C84   C85   A    
C60   H26   S    
C16   O6    A    
C66   H31   S    
C35   H4    S    
Cu2   O2    S    
C41   C42   A    
C28   N2    S    
C82   H44   S    
C12   C74   S    
C49   C54   A    
C80   H43   S    
C64   C65   A    
C47   O13   D    
C54   H21   S    
N1    N2    D    
C34   H3    S    
C77   C78   A    
C70   H34   S    
C42   C43   A    
Cu2   N3    S    
C70   C71   A    
C48   H16   S    
C78   C79   A    
C16   O8    A    
C53   C54   A    
C5    C7    A    
C50   H17   S    
C46   H14   S    
C23   C32   S    
C6    C8    A    
C43   H11   S    
C84   H46   S    
C6    C49   S    
C25   C39   S    
C13   C75   S    
C45   H13   S    
C41   H9    S    
C3    C47   S    
N5    N6    D    
C4    C22   A    
C77   H40   S    
C31   H1    S    
C4    C48   S    
Cu2   O3    S    
C9    N5    S    
C32   H2    S    
Cu2   O6    S    
C44   H12   S    
C16   C18   S    
C39   C44   A    
C5    C55   S    
C9    C11   A    
C68   C69   A    
C63   H28   S    
C10   C12   A    
C61   C66   A    
C79   H42   S    
C1    O3    A    
C12   C14   A    
C55   C56   A    
C83   H45   S    
C21   C23   A    
C22   C24   A    
C3    C21   A    
C81   C86   A    
C15   O7    A    
C73   H37   S    
C26   C33   S    
C59   H25   S    
C67   C68   A    
C65   C66   A    
C58   H24   S    
C7    C9    A    
C34   C35   A    
C36   H5    S    
C24   C31   S    
C7    C67   S    
Cu1   Cu2   S    
C38   H7    S    
C24   C26   A    
C73   O15   D    
C11   C73   S    
C78   H41   S    
C51   H18   S    
C74   O16   D    
C33   C38   A    
C74   H38   S    
C29   C45   S    
C25   C27   A    
C75   C76   A    
C26   C28   A    
C83   C84   A    
C56   C57   A    
C10   N6    S    
C39   C40   A    
C28   C30   A    
C69   C70   A    
C15   O5    A    
C68   H32   S    
C82   C83   A    
C11   C13   A    
C52   C53   A    
C2    O4    A    
C5    N3    A    
C57   C58   A    
C67   C72   A    
C6    N4    A    
C71   H35   S    
C56   H22   S    
C18   C20   T    
C81   C82   A    
C23   C25   A    
C59   C60   A    
C76   C77   A    
C1    O1    A    
C65   H30   S    
C30   C46   S    
C2    O2    A    
C50   C51   A    
C49   C50   A    
C8    C10   A    
C40   C41   A    
C45   O11   D    
C61   C62   A    
Cu1   N4    S    
C85   C86   A    
C51   C52   A    
C8    C61   S    
C62   H27   S    
C52   H19   S    
C4    C30   A    
C40   H8    S    
C71   C72   A    
