data_mof_unit_36761.cif
_audit_creation_date              2012-12-11T14:17:40-0500
_audit_creation_method            fapswitch 2.2
_symmetry_space_group_name_H-M    P1
_symmetry_Int_Tables_number       1
_space_group_crystal_system       triclinic
_cell_length_a                    6.939947
_cell_length_b                    13.640049
_cell_length_c                    20.332198
_cell_angle_alpha                 101.886412
_cell_angle_beta                  90.315514
_cell_angle_gamma                 90.579576
_cell_volume                      1883.24853585

loop_
_atom_site_label
_atom_site_type_symbol
_atom_type_description
_atom_site_fract_x
_atom_site_fract_y
_atom_site_fract_z
_atom_type_partial_charge
O1    O     O_R   0.506860 0.599390 0.449240 -0.539996
O2    O     O_R   0.180220 0.594600 0.586780 -0.544181
O3    O     O_R   0.004500 0.400610 0.550760 -0.538937
C1    C     C_R   0.349503 0.614962 0.613815 0.745260
O4    O     O_R   0.177490 0.611290 0.451970 -0.539528
O5    O     O_R   0.001750 0.417420 0.414990 -0.540819
C2    C     C_R   0.346810 0.638436 0.435341 0.681364
O6    O     O_R   0.509610 0.582580 0.585010 -0.536843
O7    O     O_3   0.337420 0.436370 0.488020 -0.371581
V1    V     V_3+5 0.064680 0.511800 0.502220 1.448476
O8    O     O_R   0.671710 0.405400 0.413220 -0.546463
C3    C     C_R   0.839493 0.383920 0.386557 0.733411
O9    O     O_R   0.674440 0.388710 0.548030 -0.537940
C4    C     C_R   0.843571 0.361521 0.564533 0.714137
V2    V     V_3+5 0.564010 0.488200 0.497780 1.453974
O10   O     O_3   0.841140 0.563630 0.511980 -0.368565
C5    C     C_R   0.968189 0.117977 0.614095 -0.100805
H1    H     H_    0.013188 0.996771 0.699323 0.135911
H2    H     H_    0.017957 0.043663 0.591238 0.145122
C6    C     C_R   0.858094 0.281523 0.602654 -0.042032
C7    C     C_R   0.819060 0.312557 0.927087 -0.207177
C8    C     C_R   0.827454 0.391876 0.893278 0.170755
C9    C     C_R   0.868699 0.372374 0.823447 -0.014097
C10   C     C_R   0.880504 0.270740 0.786919 -0.028937
C11   C     C_R   0.893589 0.193284 0.824344 0.060966
C12   C     C_R   0.885571 0.242492 0.714819 0.068730
C13   C     C_R   0.943182 0.144326 0.683903 0.102189
C14   C     C_R   0.972224 0.072407 0.722628 -0.168770
C15   C     C_R   0.940408 0.095270 0.791302 -0.169812
C16   C     C_R   0.826951 0.306437 0.672050 -0.281018
C17   C     C_R   0.932009 0.186777 0.573275 0.161622
C18   C     C_R   0.861081 0.215216 0.894308 -0.111619
H3    H     H_    0.756979 0.376625 0.691485 0.139169
H4    H     H_    0.790537 0.327335 0.980603 0.112165
H5    H     H_    0.956194 0.035352 0.818467 0.120971
C19   C     C_2   0.004996 0.289491 0.285115 -0.130468
C20   C     C_2   0.841630 0.315544 0.319781 -0.308537
H6    H     H_    0.142120 0.318623 0.307231 0.137032
H7    H     H_    0.702853 0.287253 0.299307 0.127658
C21   C     C_2   0.013812 0.222413 0.217162 -0.142809
C22   C     C_2   0.858929 0.182474 0.180631 -0.300907
H8    H     H_    0.156675 0.206086 0.196504 0.129825
H9    H     H_    0.714700 0.198008 0.199699 0.128102
C23   C     C_2   0.198728 0.767121 0.788745 -0.009756
C24   C     C_2   0.356081 0.817995 0.818650 -0.343111
H10   H     H_    0.488680 0.816610 0.790681 0.178128
C25   C     C_2   0.201585 0.711114 0.717228 -0.115228
C26   C     C_2   0.361407 0.678101 0.682310 -0.335651
H11   H     H_    0.062284 0.691039 0.693348 0.184273
H12   H     H_    0.503418 0.692107 0.704927 0.183435
C27   C     C_R   0.443275 0.891409 0.390013 -0.022383
C28   C     C_R   0.359968 0.719977 0.398065 -0.131018
C29   C     C_R   0.344788 0.680966 0.073074 0.006617
C30   C     C_R   0.341535 0.608573 0.112574 -0.209048
C31   C     C_R   0.346997 0.635304 0.182317 -0.148701
C32   C     C_R   0.352775 0.736859 0.216178 0.094112
C33   C     C_R   0.359903 0.811301 0.176758 -0.009566
C34   C     C_R   0.359922 0.765930 0.287917 0.045323
C35   C     C_R   0.396734 0.868009 0.319578 0.014522
C36   C     C_R   0.381543 0.942108 0.279373 0.136989
C37   C     C_R   0.367594 0.912508 0.209435 -0.181171
C38   C     C_R   0.329054 0.695697 0.328958 -0.201574
C39   C     C_R   0.426911 0.816193 0.428937 -0.063920
C40   C     C_R   0.355944 0.783568 0.105189 -0.100778
H13   H     H_    0.280425 0.620188 0.308431 0.103340
H14   H     H_    0.352641 0.573930 0.208173 0.111058
H15   H     H_    0.336588 0.529626 0.089147 0.112085
H16   H     H_    0.362048 0.970652 0.180380 0.111642
O11   O     O_R   0.203230 0.917310 0.915020 -0.557043
O12   O     O_R   0.535500 0.888690 0.048040 -0.536701
O13   O     O_R   0.711080 0.082610 0.085000 -0.548666
C41   C     C_R   0.366357 0.861721 0.064850 0.782123
O14   O     O_R   0.532630 0.905370 0.913230 -0.522410
O15   O     O_R   0.708190 0.099410 0.949230 -0.540734
C42   C     C_R   0.362821 0.882905 0.886874 0.799406
O16   O     O_R   0.206120 0.900510 0.050790 -0.539295
O17   O     O_3   0.375360 0.063570 0.011990 -0.382933
V3    V     V_3+5 0.648170 0.988200 0.997780 1.468311
O18   O     O_R   0.038240 0.111390 0.951940 -0.545178
C43   C     C_R   0.869557 0.137477 0.934582 0.694951
O19   O     O_R   0.041120 0.094710 0.086750 -0.546040
C44   C     C_R   0.872786 0.115615 0.113580 0.734168
V4    V     V_3+5 0.148810 0.011930 0.002180 1.426475
O20   O     O_3   0.871750 0.936430 0.988010 -0.371445
C45   C     C_3   0.972678 0.156001 0.499156 -0.724718
H17   H     H_    0.913935 0.209134 0.469774 0.176232
H18   H     H_    0.130657 0.150998 0.491395 0.237820
H19   H     H_    0.906646 0.081395 0.478928 0.220493
C46   C     C_2   0.015581 0.762951 0.825772 0.469185
H20   H     H_    0.016174 0.766981 0.879571 0.098572
O21   O     O_2   0.861061 0.752777 0.796003 -0.538426
C47   C     C_2   0.482473 0.834852 0.501515 0.462320
H21   H     H_    0.402884 0.798310 0.535707 0.000416
O22   O     O_2   0.622566 0.886613 0.523162 -0.519991
C48   C     C_3   0.357717 0.052877 0.308038 -0.790645
H22   H     H_    0.284967 0.090983 0.271636 0.204207
H23   H     H_    0.264106 0.064853 0.353021 0.226161
H24   H     H_    0.500116 0.090176 0.319700 0.196961
C49   C     C_2   0.526752 0.990409 0.421802 0.442296
H25   H     H_    0.647495 0.020504 0.398411 0.030388
O23   O     O_2   0.459477 0.039427 0.473473 -0.522628
C50   C     C_2   0.337342 0.644227 0.998835 0.304474
H26   H     H_    0.331954 0.564180 0.978245 0.058764
O24   O     O_2   0.336143 0.701032 0.959710 -0.549014
C51   C     C_2   0.933231 0.456635 0.792359 0.346374
H27   H     H_    0.051844 0.445790 0.757105 0.056969
O25   O     O_2   0.851289 0.537004 0.803566 -0.511805
C52   C     C_3   0.802325 0.496918 0.933853 -0.682747
H28   H     H_    0.773369 0.497611 0.987637 0.172089
H29   H     H_    0.935262 0.542085 0.931637 0.220519
H30   H     H_    0.678074 0.532676 0.913916 0.246122

loop_
_geom_bond_atom_site_label_1
_geom_bond_atom_site_label_2
_ccdc_geom_bond_type
C34   C38   A    
C31   C32   A    
C17   C45   S    
O12   V3    S    
O14   C42   A    
C48   H22   S    
C1    O6    A    
O19   C44   A    
C48   H24   S    
C25   H11   S    
C6    C16   A    
C29   C30   A    
C32   C33   A    
C51   O25   D    
C12   C13   A    
V4    O20   S    
C14   C15   A    
C10   C12   A    
C2    C28   S    
O5    C3    A    
C29   C40   A    
O17   V4    S    
V2    O10   S    
C9    C51   S    
C52   H28   S    
C3    C20   S    
O8    V2    S    
C49   H25   S    
C52   H29   S    
C39   C47   S    
C9    C10   A    
O1    V2    S    
C46   O21   D    
O7    V1    S    
C16   H3    S    
C23   C25   S    
C41   O16   A    
O13   C44   A    
C11   C18   A    
C21   H8    S    
C35   C36   A    
O15   C43   A    
O9    C4    A    
C11   C15   A    
C22   H9    S    
O16   V4    S    
O19   V4    S    
C45   H18   S    
C27   C49   S    
C7    C18   A    
C5    C13   A    
C4    C6    S    
C19   C21   S    
C27   C39   A    
C10   C11   A    
O4    C2    A    
C30   H15   S    
C34   C35   A    
O17   V3    S    
C36   C37   A    
O2    C1    A    
O11   V4    S    
V3    O20   S    
C18   C43   S    
C25   C26   D    
C29   C50   S    
O14   V3    S    
C47   O22   D    
H1    C14   S    
C50   O24   D    
C45   H17   S    
O3    C4    A    
C21   C22   D    
C49   O23   D    
C12   C16   A    
O6    V2    S    
O9    V2    S    
C5    C17   A    
C27   C35   A    
O2    V1    S    
C31   H14   S    
C23   C24   D    
C33   C40   A    
C1    C26   S    
C45   H19   S    
C30   C31   A    
C19   C20   D    
C38   H13   S    
O1    C2    A    
C28   C39   A    
O5    V1    S    
O12   C41   A    
O8    C3    A    
C48   H23   S    
C33   C37   A    
C7    H4    S    
C51   H27   S    
C15   H5    S    
C52   H30   S    
C24   C42   S    
C19   H6    S    
O7    V2    S    
O4    V1    S    
C20   H7    S    
O3    V1    S    
C28   C38   A    
O18   V4    S    
C37   H16   S    
C8    C52   S    
C22   C44   S    
C26   H12   S    
C47   H21   S    
C5    H2    S    
C32   C34   A    
O11   C42   A    
C40   C41   S    
C50   H26   S    
O18   C43   A    
C36   C48   S    
C24   H10   S    
O15   V3    S    
C13   C14   A    
C8    C9    A    
V1    O10   S    
C46   H20   S    
C7    C8    A    
O13   V3    S    
C23   C46   S    
C6    C17   A    
