data_mof_unit_23131.cif
_audit_creation_date              2012-12-11T15:53:58-0500
_audit_creation_method            fapswitch 2.2
_symmetry_space_group_name_H-M    P1
_symmetry_Int_Tables_number       1
_space_group_crystal_system       triclinic
_cell_length_a                    10.673458
_cell_length_b                    10.723971
_cell_length_c                    17.047185
_cell_angle_alpha                 80.57271
_cell_angle_beta                  99.281461
_cell_angle_gamma                 118.802732
_cell_volume                      1679.08330712

loop_
_atom_site_label
_atom_site_type_symbol
_atom_type_description
_atom_site_fract_x
_atom_site_fract_y
_atom_site_fract_z
_atom_type_partial_charge
C1    C     C_R   0.384365 0.284210 0.631912 0.536937
C2    C     C_R   0.513472 0.712272 0.734565 -0.154701
C3    C     C_R   0.491386 0.728207 0.810274 -0.140911
C4    C     C_3   0.092662 0.495920 0.769881 -0.023481
C5    C     C_3   0.117499 0.478089 0.687923 -0.196296
C6    C     C_R   0.397906 0.619172 0.685482 -0.003716
C7    C     C_1   0.822556 0.656588 0.706082 -0.048197
C8    C     C_1   0.850197 0.684417 0.773837 -0.048154
C9    C     C_1   0.364622 0.233971 0.714342 -0.033196
C10   C     C_1   0.333592 0.187132 0.781579 -0.032944
C11   C     C_1   0.336054 0.663749 0.277695 -0.054263
C12   C     C_R   0.413280 0.620528 0.601733 0.547603
C13   C     C_1   0.323320 0.672946 0.206955 -0.059827
C14   C     C_R   0.856851 0.679490 0.164506 0.060449
C15   C     C_R   0.916767 0.610646 0.222883 0.012058
C16   C     C_R   0.906481 0.605394 0.302210 0.014688
C17   C     C_R   0.794841 0.759615 0.269136 -0.101459
C18   C     C_R   0.804848 0.764019 0.188037 0.051980
C19   C     C_3   0.898583 0.462463 0.230120 -0.275299
C20   C     C_3   0.887333 0.455664 0.318221 -0.274357
C21   C     C_R   0.835512 0.670685 0.325979 0.033523
C22   C     C_R   0.339405 0.183266 0.155021 0.022307
C23   C     C_R   0.776846 0.618923 0.626870 0.538185
C24   C     C_R   0.269835 0.250460 0.178535 -0.009902
C25   C     C_R   0.270041 0.256359 0.257645 0.052487
C26   C     C_R   0.441804 0.167904 0.292345 -0.165543
C27   C     C_R   0.438536 0.156461 0.211463 -0.161490
C28   C     C_3   0.124313 0.243418 0.159421 -0.283517
C29   C     C_3   0.125970 0.251468 0.248201 -0.098517
C30   C     C_R   0.345833 0.205403 0.316588 0.066275
C31   C     C_R   0.891428 0.701808 0.855954 0.550271
C32   C     C_R   0.316023 0.706153 0.898377 0.544871
C33   C     C_R   0.286602 0.118576 0.858409 0.548262
C34   C     C_R   0.353963 0.232114 0.397551 0.588212
C35   C     C_R   0.888748 0.691772 0.084327 0.576940
C36   C     C_R   0.312962 0.700614 0.123827 0.542787
C37   C     C_R   0.288236 0.111761 0.083263 0.553993
C38   C     C_R   0.365412 0.654036 0.360730 0.560634
C39   C     C_R   0.773026 0.623540 0.400466 0.560865
C40   C     C_R   0.352928 0.651995 0.837055 0.003000
C41   C     C_R   0.248311 0.539189 0.794701 0.010164
C42   C     C_R   0.270531 0.523330 0.719931 -0.016301
Cr1   Cr    Cr6+3 0.608440 0.389080 0.519680 1.026256
Cr2   Cr    Cr6+3 0.288640 0.400090 0.490760 1.021955
Cr3   Cr    Cr6+3 0.602940 0.710800 0.489510 1.029557
Cr4   Cr    Cr6+3 0.052530 0.947560 0.964210 1.033475
Cr5   Cr    Cr6+3 0.059970 0.626800 0.992920 1.000912
Cr6   Cr    Cr6+3 0.373320 0.938440 0.995370 1.026570
H1    H     H_    0.617194 0.780898 0.712115 0.142864
H2    H     H_    0.797119 0.387743 0.197601 0.138719
H3    H     H_    0.779376 0.374453 0.335784 0.159952
H4    H     H_    0.979312 0.450024 0.356806 0.152427
H5    H     H_    0.513299 0.140877 0.335698 0.130856
H6    H     H_    0.501827 0.112213 0.195029 0.140501
H7    H     H_    0.040225 0.140743 0.137507 0.165440
H8    H     H_    0.129172 0.340244 0.121684 0.131261
H9    H     H_    0.134131 0.352704 0.261973 0.102466
H10   H     H_    0.578545 0.810828 0.843592 0.151731
H11   H     H_    0.063182 0.582274 0.769647 0.168930
H12   H     H_    0.061618 0.365784 0.672461 0.165061
H13   H     H_    0.105551 0.556891 0.640220 0.142280
H14   H     H_    0.741814 0.814329 0.285975 0.149682
H15   H     H_    0.996954 0.462411 0.217145 0.146108
O1    O     O_R   0.754020 0.497590 0.609930 -0.503892
O2    O     O_R   0.295080 0.533620 0.397890 -0.511147
O3    O     O_R   0.485280 0.746620 0.388440 -0.509094
O4    O     O_R   0.720550 0.696220 0.420010 -0.495432
O5    O     O_3   0.500010 0.499990 0.499980 -0.302540
O6    O     O_R   0.163320 0.092900 0.874450 -0.518349
O7    O     O_R   0.934650 0.822080 0.882840 -0.495141
O8    O     O_R   0.915520 0.604140 0.893670 -0.514495
O9    O     O_R   0.191760 0.638110 0.923230 -0.510978
O10   O     O_R   0.406180 0.826930 0.920660 -0.509899
O11   O     O_R   0.358620 0.062870 0.901950 -0.490163
O12   O     O_R   0.481420 0.271390 0.600630 -0.474916
O13   O     O_R   0.163910 0.085460 0.050210 -0.518618
O14   O     O_R   0.935200 0.815170 0.045770 -0.464414
O15   O     O_R   0.916120 0.596690 0.069430 -0.534033
O16   O     O_R   0.192310 0.631200 0.086170 -0.509758
O17   O     O_R   0.406770 0.819480 0.096420 -0.522864
O18   O     O_R   0.359170 0.055960 0.064880 -0.510011
O19   O     O_3   0.161940 0.837600 0.984160 -0.251623
O20   O     O_R   0.263810 0.254550 0.589590 -0.503316
O21   O     O_R   0.300820 0.531200 0.560890 -0.512816
O22   O     O_R   0.491480 0.744020 0.564270 -0.497457
O23   O     O_R   0.726290 0.693800 0.583010 -0.515212
O24   O     O_R   0.747830 0.500190 0.434090 -0.526337
O25   O     O_R   0.475680 0.273800 0.437630 -0.512140
O26   O     O_R   0.257620 0.257160 0.413750 -0.475977
C43   C     C_2   0.006876 0.119791 0.286642 0.233354
H16   H     H_    0.897436 0.103471 0.273455 0.077783
O27   O     O_2   0.030685 0.031657 0.332293 -0.488787
N1    N     N_3   0.996419 0.360222 0.812091 -0.608803
H17   H     H_    0.036011 0.286702 0.816718 0.250835
H18   H     H_    0.996392 0.379273 0.870286 0.254185
N2    N     N_3   0.750896 0.843483 0.129988 -0.611193
H19   H     H_    0.802412 0.949395 0.143725 0.218190
H20   H     H_    0.641838 0.802016 0.136220 0.243632

loop_
_geom_bond_atom_site_label_1
_geom_bond_atom_site_label_2
_ccdc_geom_bond_type
C5    C42   S    
N1    H17   S    
C18   N2    S    
C41   C42   A    
C14   C18   A    
C19   C20   S    
Cr5   O16   S    
Cr2   O20   S    
Cr4   O13   S    
C28   H8    S    
C27   H6    S    
C7    C8    T    
C32   O9    A    
C15   C19   S    
C26   C27   A    
C16   C21   A    
C12   O22   A    
Cr1   O25   S    
C28   C29   S    
C20   H3    S    
C6    C12   S    
C4    C41   S    
C15   C16   A    
Cr6   O18   S    
C12   O21   A    
Cr5   O19   S    
Cr4   O6    S    
Cr4   O19   S    
C31   O7    A    
C38   O3    A    
C19   H15   S    
Cr1   O5    S    
C23   O23   A    
N2    H20   S    
Cr3   O4    S    
C39   O24   A    
C9    C10   T    
C33   O6    A    
C31   O8    A    
N1    H18   S    
Cr1   O12   S    
C37   O18   A    
Cr2   O2    S    
C2    C6    A    
C29   C43   S    
C28   H7    S    
Cr1   O1    S    
C25   C29   S    
C30   C34   S    
C1    O12   A    
Cr6   O11   S    
C1    C9    S    
C24   C25   A    
C13   C36   S    
C36   O17   A    
C32   O10   A    
C22   C37   S    
C35   O14   A    
C17   C21   A    
C11   C38   S    
Cr3   O22   S    
C2    H1    S    
C17   H14   S    
C43   O27   D    
C21   C39   S    
C38   O2    A    
C16   C20   S    
N2    H19   S    
Cr3   O5    S    
C17   C18   A    
C5    H13   S    
C34   O25   A    
Cr5   O8    S    
C23   O1    A    
C37   O13   A    
C29   H9    S    
C3    C40   A    
C26   C30   A    
C22   C27   A    
C22   C24   A    
Cr2   O5    S    
C26   H5    S    
C14   C35   S    
C25   C30   A    
C40   C41   A    
C5    H12   S    
C8    C31   S    
C39   O4    A    
Cr6   O10   S    
C24   C28   S    
C4    C5    S    
Cr2   O21   S    
C36   O16   A    
Cr4   O14   S    
C1    O20   A    
C35   O15   A    
Cr1   O24   S    
Cr6   O17   S    
C2    C3    A    
C34   O26   A    
C20   H4    S    
C11   C13   T    
C19   H2    S    
C43   H16   S    
C7    C23   S    
C4    H11   S    
Cr6   O19   S    
Cr3   O23   S    
C10   C33   S    
C32   C40   S    
Cr5   O9    S    
Cr4   O7    S    
C4    N1    S    
C3    H10   S    
C33   O11   A    
C6    C42   A    
Cr3   O3    S    
C14   C15   A    
Cr5   O15   S    
Cr2   O26   S    
