data_mof_unit_57634.cif
_audit_creation_date              2013-03-05T16:04:57-0500
_audit_creation_method            fapswitch 2.2
_symmetry_space_group_name_H-M    P1
_symmetry_Int_Tables_number       1
_space_group_crystal_system       triclinic
_cell_length_a                    10.889831
_cell_length_b                    9.790033
_cell_length_c                    14.288421
_cell_angle_alpha                 88.008417
_cell_angle_beta                  96.624198
_cell_angle_gamma                 88.45542
_cell_volume                      1511.49511465

loop_
_atom_site_label
_atom_site_type_symbol
_atom_site_description
_atom_site_fract_x
_atom_site_fract_y
_atom_site_fract_z
_atom_type_partial_charge
O1    O     O_R   0.319640 0.618740 0.499990 -0.539877
O2    O     O_R   0.680360 0.381260 0.500010 -0.559246
O3    O     O_R   0.680360 0.618740 0.500010 -0.568148
O4    O     O_R   0.319640 0.381260 0.499990 -0.575486
C1    C     C_R   0.263101 0.501862 0.501532 0.885788
C2    C     C_R   0.737177 0.498065 0.500020 0.886210
O5    O     O_R   0.500000 0.618810 0.376050 -0.564666
O6    O     O_R   0.500000 0.381190 0.623950 -0.563436
O7    O     O_R   0.500000 0.618810 0.623950 -0.581382
O8    O     O_R   0.500000 0.381190 0.376050 -0.588748
C3    C     C_R   0.498610 0.501867 0.331525 0.808963
C4    C     C_R   0.496945 0.498433 0.668044 0.815093
Cu1   Cu    Cu3+1 0.500000 0.640660 0.500000 0.981272
Cu2   Cu    Cu3+1 0.500000 0.359340 0.500000 0.966156
N1    N     N_R   0.500000 0.852070 0.500000 -0.193933
N2    N     N_R   0.500000 0.147930 0.500000 -0.196633
C5    C     C_1   0.496597 0.504839 0.228804 -0.139099
C6    C     C_1   0.489325 0.496956 0.769893 -0.142828
C7    C     C_1   0.493977 0.504808 0.142965 0.006530
C8    C     C_1   0.486734 0.499198 0.855232 0.011766
C9    C     C_1   0.490292 0.503587 0.041861 0.020401
C10   C     C_1   0.487751 0.501838 0.956081 0.019899
C11   C     C_R   0.076747 0.404772 0.560271 0.231892
C12   C     C_R   0.924570 0.598137 0.446381 0.245456
C13   C     C_R   0.947819 0.396130 0.552686 0.243954
C14   C     C_R   0.052986 0.604506 0.451966 0.239043
C15   C     C_R   0.871389 0.494610 0.497641 -0.374934
C16   C     C_R   0.129337 0.505770 0.506261 -0.359551
C17   C     C_R   0.421025 0.079771 0.435287 0.192261
C18   C     C_R   0.570567 0.919990 0.571092 0.195382
C19   C     C_R   0.566901 0.068543 0.572223 0.155342
C20   C     C_R   0.428373 0.932301 0.431216 0.185348
N3    N     N_R   0.153599 0.319153 0.628868 0.161096
O9    O     O_R   0.235542 0.374259 0.688274 -0.370912
O10   O     O_R   0.134388 0.189131 0.638839 -0.289580
N4    N     N_R   0.848540 0.696271 0.387042 0.178795
O11   O     O_R   0.770868 0.655447 0.318346 -0.369486
O12   O     O_R   0.857772 0.826472 0.400789 -0.283299
N5    N     N_R   0.895349 0.289172 0.603697 0.133595
O13   O     O_R   0.880937 0.171469 0.564958 -0.340208
O14   O     O_R   0.894953 0.296992 0.694369 -0.374789
N6    N     N_R   0.105351 0.716876 0.406500 0.131102
O15   O     O_R   0.142518 0.818359 0.457542 -0.361471
O16   O     O_R   0.087891 0.733074 0.315116 -0.370179
C21   C     C_3   0.319688 0.158512 0.368826 -0.430729
C22   C     C_3   0.189669 0.146265 0.399962 -0.313997
C23   C     C_3   0.094453 0.238442 0.338900 -0.784072
H1    H     H_    0.121570 0.346864 0.341145 0.234788
H2    H     H_    0.086169 0.206467 0.264650 0.263440
H3    H     H_    0.002834 0.230289 0.365358 0.276819
H4    H     H_    0.157040 0.041557 0.395104 0.283481
H5    H     H_    0.191644 0.173668 0.474371 0.282215
H6    H     H_    0.333394 0.266849 0.362901 0.258855
H7    H     H_    0.319696 0.128200 0.294887 0.173257
C24   C     C_3   0.669913 0.841657 0.640876 -0.323713
C25   C     C_3   0.638552 0.806713 0.741550 -0.373516
C26   C     C_3   0.737957 0.848971 0.818755 -0.807247
H8    H     H_    0.819242 0.776931 0.823124 0.264244
H9    H     H_    0.771135 0.951932 0.804486 0.268466
H10   H     H_    0.700628 0.846167 0.887884 0.252854
H11   H     H_    0.543833 0.841733 0.752014 0.223431
H12   H     H_    0.638499 0.694608 0.752462 0.218341
H13   H     H_    0.695785 0.744888 0.616393 0.228529
H14   H     H_    0.760852 0.889510 0.640877 0.197345
C27   C     C_3   0.640100 0.138575 0.653914 -0.271069
C28   C     C_3   0.574120 0.149521 0.743636 -0.382654
C29   C     C_3   0.653881 0.223102 0.820404 -0.761761
H15   H     H_    0.739800 0.163333 0.845399 0.263650
H16   H     H_    0.681690 0.323732 0.793370 0.260706
H17   H     H_    0.601610 0.237395 0.881753 0.243643
H18   H     H_    0.481822 0.200738 0.728829 0.273782
H19   H     H_    0.554645 0.049596 0.773633 0.229095
H20   H     H_    0.731859 0.090269 0.673796 0.221797
H21   H     H_    0.666375 0.239663 0.630866 0.267011
C30   C     C_3   0.364244 0.867319 0.344249 -0.308302
C31   C     C_3   0.441898 0.878509 0.260877 -0.386699
C32   C     C_3   0.368392 0.835730 0.169646 -0.778813
H22   H     H_    0.330222 0.732878 0.179237 0.263789
H23   H     H_    0.290642 0.910227 0.148194 0.260923
H24   H     H_    0.429459 0.833094 0.112592 0.249616
H25   H     H_    0.470741 0.985342 0.250258 0.215592
H26   H     H_    0.528193 0.814881 0.275021 0.283611
H27   H     H_    0.337913 0.762427 0.359112 0.259964
H28   H     H_    0.272607 0.914832 0.321382 0.215876

loop_
_geom_bond_atom_site_label_1
_geom_bond_atom_site_label_2
_geom_bond_distance
_ccdc_geom_bond_type
C24   C25   1.545417 S    
C12   C15   1.406053 A    
O3    C2    1.318759 A    
C20   C30   1.521583 S    
N1    C20   1.388429 A    
C23   H2    1.110938 S    
C21   C22   1.538761 S    
N2    C19   1.392845 A    
O5    C3    1.328547 A    
C12   N4    1.437344 S    
O1    C1    1.314620 A    
N4    O11   1.300991 A    
C7    C9    1.441022 S    
C12   C14   1.394682 A    
C17   C20   1.447357 A    
C18   C19   1.454509 A    
C30   H28   1.099149 S    
C26   H9    1.100223 S    
C22   H5    1.103474 S    
C27   H20   1.096596 S    
C25   C26   1.529787 S    
O7    Cu1   1.776526 S    
C5    C7    1.223550 T    
C28   H19   1.090282 S    
C2    C15   1.465369 S    
C11   N3    1.442053 S    
C24   H13   1.063327 S    
Cu2   N2    2.069712 S    
O3    Cu1   1.970002 S    
C28   C29   1.531461 S    
C21   H6    1.076836 S    
Cu1   Cu2   2.754132 S    
O2    C2    1.314758 A    
N6    O16   1.301134 A    
C23   H3    1.110828 S    
C32   H23   1.110878 S    
C29   H15   1.106450 S    
C31   C32   1.526653 S    
N5    O14   1.300976 A    
O8    Cu2   1.776526 S    
C31   H26   1.108090 S    
N5    O13   1.301117 A    
C26   H10   1.110391 S    
N2    C17   1.389325 A    
C32   H22   1.109762 S    
C22   H4    1.095803 S    
C27   H21   1.088162 S    
C17   C21   1.541207 S    
C29   H16   1.108195 S    
C30   C31   1.540957 S    
C28   H18   1.105818 S    
C1    C16   1.465530 S    
C23   H1    1.109950 S    
O6    C4    1.329875 A    
C24   H14   1.106885 S    
N3    O9    1.300327 A    
C11   C16   1.407366 A    
C8    C10   1.440876 S    
C21   H7    1.107256 S    
Cu1   N1    2.069711 S    
C25   H12   1.103176 S    
O1    Cu1   1.981506 S    
N6    O15   1.298739 A    
C14   N6    1.423751 S    
N1    C18   1.399607 A    
C32   H24   1.110442 S    
C19   C27   1.529164 S    
C22   C23   1.528673 S    
C3    C5    1.464615 S    
O6    Cu2   1.791287 S    
O4    C1    1.318849 A    
C31   H25   1.110519 S    
C13   C15   1.412052 A    
C18   C24   1.551133 S    
C14   C16   1.408282 A    
C29   H17   1.109662 S    
N4    O12   1.301244 A    
C13   N5    1.424595 S    
C30   H27   1.093885 S    
C26   H8    1.111487 S    
N3    O10   1.301155 A    
C6    C8    1.223866 T    
C11   C13   1.400735 A    
O4    Cu2   1.970004 S    
O2    Cu2   1.981504 S    
O7    C4    1.319932 A    
O8    C3    1.321111 A    
O5    Cu1   1.791287 S    
C27   C28   1.545679 S    
C4    C6    1.466758 S    
C25   H11   1.106307 S    
C9    C10   1.223505 T    
