data_mof_unit_6491.cif
_audit_creation_date              2012-12-11T15:41:30-0500
_audit_creation_method            fapswitch 2.2
_symmetry_space_group_name_H-M    P1
_symmetry_Int_Tables_number       1
_space_group_crystal_system       triclinic
_cell_length_a                    19.062385
_cell_length_b                    10.992796
_cell_length_c                    18.796237
_cell_angle_alpha                 89.997124
_cell_angle_beta                  90.118284
_cell_angle_gamma                 89.940629
_cell_volume                      3938.72045423

loop_
_atom_site_label
_atom_site_type_symbol
_atom_type_description
_atom_site_fract_x
_atom_site_fract_y
_atom_site_fract_z
_atom_type_partial_charge
C1    C     C_R   0.725859 0.957980 0.854349 0.539292
C2    C     C_R   0.272582 0.955503 0.146466 0.591379
C3    C     C_R   0.225859 0.457979 0.854348 0.539289
C4    C     C_R   0.772582 0.455502 0.146467 0.591379
C5    C     C_R   0.705112 0.475721 0.034440 0.020799
C6    C     C_R   0.304204 0.411450 0.957646 0.048594
C7    C     C_R   0.205079 0.975674 0.034454 0.020786
C8    C     C_R   0.804206 0.911456 0.957647 0.048585
C9    C     C_R   0.694167 0.443312 0.964112 -0.037140
C10   C     C_R   0.312348 0.403370 0.030183 0.058183
C11   C     C_R   0.194132 0.943264 0.964125 -0.037153
C12   C     C_R   0.812349 0.903377 0.030185 0.058200
C13   C     C_R   0.754232 0.254648 0.984707 -0.128145
C14   C     C_R   0.187671 0.421420 0.047064 -0.171703
C15   C     C_R   0.254259 0.754657 0.984701 -0.128180
C16   C     C_R   0.687671 0.921423 0.047065 -0.171792
C17   C     C_R   0.766345 0.287923 0.055896 -0.155138
C18   C     C_R   0.179306 0.427072 0.973690 -0.165360
C19   C     C_R   0.266372 0.787931 0.055891 -0.155146
C20   C     C_R   0.679307 0.927071 0.973690 -0.165426
C21   C     C_3   0.713216 0.606712 0.015378 0.248734
C22   C     C_3   0.374666 0.467439 0.946860 0.218212
C23   C     C_3   0.213133 0.106677 0.015397 0.248756
C24   C     C_3   0.874661 0.967477 0.946866 0.218223
C25   C     C_3   0.700032 0.571443 0.938554 -0.196940
C26   C     C_3   0.382809 0.463159 0.027688 -0.221500
C27   C     C_3   0.199945 0.071406 0.938574 -0.196923
C28   C     C_3   0.882803 0.963192 0.027693 -0.221483
C29   C     C_R   0.724464 0.337843 0.936439 0.019442
C30   C     C_R   0.254940 0.413202 0.076573 0.026580
C31   C     C_R   0.224460 0.837831 0.936441 0.019422
C32   C     C_R   0.754940 0.913204 0.076574 0.026522
C33   C     C_R   0.478647 0.169630 0.432530 0.017788
C34   C     C_R   0.492260 0.174841 0.579184 0.007518
C35   C     C_R   0.978647 0.669630 0.432529 0.017789
C36   C     C_R   0.992260 0.674841 0.579184 0.007518
C37   C     C_R   0.481561 0.279450 0.468462 0.029754
C38   C     C_R   0.487738 0.283900 0.540358 0.026974
C39   C     C_R   0.981562 0.779451 0.468461 0.029753
C40   C     C_R   0.987740 0.783900 0.540358 0.026975
C41   C     C_R   0.475488 0.064606 0.545715 -0.174123
C42   C     C_R   0.469630 0.061826 0.471661 -0.161645
C43   C     C_R   0.975487 0.564606 0.545715 -0.174123
C44   C     C_R   0.969629 0.561826 0.471661 -0.161645
C45   C     C_R   0.529944 0.177900 0.850742 0.540236
C46   C     C_R   0.469732 0.177295 0.149022 0.567169
C47   C     C_R   0.029942 0.677900 0.850741 0.540227
C48   C     C_R   0.969731 0.677296 0.149021 0.567191
C49   C     C_3   0.525168 0.389154 0.454300 -0.123258
C50   C     C_3   0.536415 0.392870 0.534536 -0.102346
C51   C     C_3   0.025170 0.889152 0.454299 -0.123258
C52   C     C_3   0.036419 0.892868 0.534534 -0.102345
C53   C     C_R   0.755763 0.428870 0.426132 0.011083
C54   C     C_R   0.245350 0.405488 0.578521 0.018883
C55   C     C_R   0.255763 0.928871 0.426132 0.011083
C56   C     C_R   0.745350 0.905488 0.578521 0.018883
C57   C     C_R   0.780013 0.321488 0.456580 0.003845
C58   C     C_R   0.191056 0.355900 0.537447 0.020426
C59   C     C_R   0.280014 0.821489 0.456580 0.003845
C60   C     C_R   0.691056 0.855900 0.537447 0.020426
C61   C     C_R   0.778301 0.307944 0.528952 0.035241
C62   C     C_R   0.196686 0.346981 0.465240 0.016275
C63   C     C_R   0.278301 0.807944 0.528952 0.035240
C64   C     C_R   0.696686 0.846981 0.465241 0.016274
C65   C     C_R   0.717410 0.498319 0.543284 -0.174233
C66   C     C_R   0.315786 0.417244 0.471738 -0.157663
C67   C     C_R   0.217410 0.998320 0.543284 -0.174232
C68   C     C_R   0.815787 0.917243 0.471739 -0.157664
C69   C     C_R   0.722533 0.516429 0.469907 -0.162304
C70   C     C_R   0.310299 0.425272 0.546143 -0.167290
C71   C     C_R   0.222533 0.016429 0.469907 -0.162303
C72   C     C_R   0.810299 0.925271 0.546143 -0.167290
C73   C     C_3   0.849292 0.258074 0.450829 -0.273190
C74   C     C_3   0.115415 0.391554 0.531767 -0.255878
C75   C     C_3   0.349292 0.758075 0.450829 -0.273190
C76   C     C_3   0.615415 0.891553 0.531767 -0.255878
C77   C     C_3   0.848835 0.249253 0.531156 -0.262190
C78   C     C_3   0.122039 0.379566 0.451967 -0.283505
C79   C     C_3   0.348835 0.749254 0.531156 -0.262190
C80   C     C_3   0.622039 0.879565 0.451967 -0.283505
C81   C     C_R   0.749575 0.396434 0.573555 0.018056
C82   C     C_R   0.256397 0.386502 0.430319 0.017242
C83   C     C_R   0.249575 0.896434 0.573555 0.018056
C84   C     C_R   0.756397 0.886502 0.430320 0.017242
C85   C     C_R   0.723610 0.312385 0.859886 0.559207
C86   C     C_R   0.262077 0.365203 0.147838 0.575924
C87   C     C_R   0.223610 0.812384 0.859886 0.559206
C88   C     C_R   0.762077 0.865204 0.147839 0.575908
C89   C     C_R   0.727755 0.953947 0.648033 0.541289
C90   C     C_R   0.273673 0.959893 0.353968 0.543664
C91   C     C_R   0.227755 0.453947 0.648033 0.541290
C92   C     C_R   0.773673 0.459893 0.353968 0.543664
C93   C     C_R   0.528670 0.177252 0.645942 0.543358
C94   C     C_R   0.465448 0.176266 0.357739 0.537820
C95   C     C_R   0.028670 0.677252 0.645942 0.543358
C96   C     C_R   0.965448 0.676266 0.357739 0.537818
C97   C     C_R   0.739904 0.362492 0.646831 0.546207
C98   C     C_R   0.262117 0.357428 0.355448 0.539097
C99   C     C_R   0.239904 0.862493 0.646831 0.546210
C100  C     C_R   0.762117 0.857428 0.355448 0.539099
C101  C     C_2   0.497995 0.171089 0.921152 -0.097646
C102  C     C_2   0.500986 0.166048 0.078360 -0.118344
C103  C     C_2   0.997988 0.671089 0.921149 -0.097631
C104  C     C_2   0.000982 0.666050 0.078357 -0.118324
C105  C     C_2   0.484503 0.070384 0.036594 -0.130115
C106  C     C_2   0.498853 0.068738 0.959741 -0.147942
C107  C     C_2   0.984498 0.570386 0.036592 -0.130060
C108  C     C_2   0.998848 0.568739 0.959739 -0.147922
C109  C     C_R   0.746055 0.403748 0.079886 0.039501
C110  C     C_R   0.237966 0.427658 0.928010 0.023689
C111  C     C_R   0.246052 0.903735 0.079889 0.039493
C112  C     C_R   0.737966 0.927658 0.928010 0.023661
Cr1   Cr    Cr6+3 0.769260 0.163750 0.750730 1.064908
Cr2   Cr    Cr6+3 0.230740 0.163750 0.249270 1.020128
Cr3   Cr    Cr6+3 0.269260 0.663750 0.750730 1.064912
Cr4   Cr    Cr6+3 0.730740 0.663750 0.249270 1.020124
Cr5   Cr    Cr6+3 0.612640 0.009910 0.748780 1.010190
Cr6   Cr    Cr6+3 0.387360 0.009910 0.251220 1.018231
Cr7   Cr    Cr6+3 0.112640 0.509910 0.748780 1.010188
Cr8   Cr    Cr6+3 0.887360 0.509910 0.251220 1.018239
Cr9   Cr    Cr6+3 0.614190 0.322400 0.747710 1.011170
Cr10  Cr    Cr6+3 0.385810 0.322400 0.252290 1.012601
Cr11  Cr    Cr6+3 0.114190 0.822400 0.747710 1.011156
Cr12  Cr    Cr6+3 0.885810 0.822400 0.252290 1.012606
H1    H     H_    0.457792 0.991598 0.058460 0.175973
H2    H     H_    0.509798 0.981759 0.934809 0.150664
H3    H     H_    0.957788 0.491599 0.058459 0.175986
H4    H     H_    0.009798 0.481760 0.934808 0.150654
H5    H     H_    0.993073 0.964914 0.432207 0.145290
H6    H     H_    0.090814 0.870896 0.551665 0.177061
H7    H     H_    0.493070 0.464914 0.432207 0.145290
H8    H     H_    0.590810 0.370901 0.551667 0.177062
H9    H     H_    0.690768 0.564766 0.576133 0.128739
H10   H     H_    0.365520 0.437036 0.446822 0.132314
H11   H     H_    0.190768 0.064766 0.576133 0.128740
H12   H     H_    0.865520 0.937035 0.446823 0.132315
H13   H     H_    0.702103 0.599897 0.447572 0.149802
H14   H     H_    0.354650 0.453763 0.577764 0.120338
H15   H     H_    0.202103 0.099897 0.447572 0.149802
H16   H     H_    0.854650 0.953762 0.577765 0.120337
H17   H     H_    0.892261 0.315681 0.430347 0.151437
H18   H     H_    0.107109 0.486987 0.549026 0.167026
H19   H     H_    0.392262 0.815682 0.430347 0.151438
H20   H     H_    0.607109 0.986986 0.549026 0.167026
H21   H     H_    0.844392 0.168340 0.424088 0.133384
H22   H     H_    0.079817 0.322951 0.555827 0.130698
H23   H     H_    0.344393 0.668341 0.424088 0.133384
H24   H     H_    0.579818 0.822950 0.555827 0.130698
H25   H     H_    0.846371 0.155416 0.551450 0.147820
H26   H     H_    0.091568 0.302065 0.429859 0.136873
H27   H     H_    0.346371 0.655416 0.551450 0.147820
H28   H     H_    0.591568 0.802064 0.429859 0.136874
H29   H     H_    0.889072 0.307523 0.557114 0.134127
H30   H     H_    0.115938 0.467341 0.423140 0.137175
H31   H     H_    0.389072 0.807524 0.557114 0.134128
H32   H     H_    0.615938 0.967340 0.423140 0.137175
H33   H     H_    0.529101 0.243784 0.057068 0.091779
H34   H     H_    0.483177 0.256081 0.945981 0.095992
H35   H     H_    0.029094 0.743787 0.057064 0.091763
H36   H     H_    0.983163 0.756080 0.945975 0.096003
H37   H     H_    0.770721 0.166645 0.966703 0.196103
H38   H     H_    0.141489 0.419905 0.080592 0.127247
H39   H     H_    0.270772 0.666667 0.966690 0.196143
H40   H     H_    0.641489 0.919908 0.080592 0.127280
H41   H     H_    0.794873 0.226573 0.090556 0.121782
H42   H     H_    0.126754 0.436447 0.952964 0.141550
H43   H     H_    0.294924 0.726602 0.090542 0.121803
H44   H     H_    0.626754 0.936443 0.952964 0.141576
H45   H     H_    0.672099 0.665694 0.039009 0.128457
H46   H     H_    0.410861 0.407366 0.917148 0.127956
H47   H     H_    0.172002 0.165617 0.039038 0.128425
H48   H     H_    0.910867 0.907423 0.917154 0.127942
H49   H     H_    0.649350 0.606614 0.917612 0.105776
H50   H     H_    0.425478 0.401210 0.045235 0.119683
H51   H     H_    0.149246 0.106523 0.917645 0.105763
H52   H     H_    0.925479 0.901256 0.045238 0.119676
H53   H     H_    0.745959 0.586086 0.903160 0.181242
H54   H     H_    0.382788 0.554286 0.053359 0.148399
H55   H     H_    0.245859 0.086105 0.903170 0.181248
H56   H     H_    0.882771 0.054316 0.053368 0.148405
H57   H     H_    0.475048 0.980039 0.575232 0.123592
H58   H     H_    0.461946 0.975906 0.445133 0.130424
H59   H     H_    0.975047 0.480039 0.575232 0.123592
H60   H     H_    0.961944 0.475906 0.445133 0.130425
O1    O     O_R   0.784290 0.290360 0.830540 -0.456140
O2    O     O_R   0.215710 0.290360 0.169460 -0.510173
O3    O     O_R   0.284290 0.790360 0.830540 -0.456159
O4    O     O_R   0.715710 0.790360 0.169460 -0.510207
O5    O     O_R   0.554690 0.080440 0.673480 -0.508218
O6    O     O_R   0.445310 0.080440 0.326520 -0.514757
O7    O     O_R   0.054690 0.580440 0.673480 -0.508218
O8    O     O_R   0.945310 0.580440 0.326520 -0.514760
O9    O     O_R   0.543980 0.282110 0.666770 -0.526489
O10   O     O_R   0.456020 0.282110 0.333230 -0.530095
O11   O     O_R   0.043980 0.782110 0.666770 -0.526489
O12   O     O_R   0.956020 0.782110 0.333230 -0.530098
O13   O     O_R   0.679070 0.374030 0.674430 -0.508203
O14   O     O_R   0.320930 0.374030 0.325570 -0.514995
O15   O     O_R   0.179070 0.874030 0.674430 -0.508203
O16   O     O_R   0.820930 0.874030 0.325570 -0.514996
O17   O     O_3   0.665360 0.165350 0.749070 -0.281253
O18   O     O_3   0.334640 0.165350 0.250930 -0.240914
O19   O     O_3   0.165360 0.665350 0.749070 -0.281250
O20   O     O_3   0.834640 0.665350 0.250930 -0.240910
O21   O     O_R   0.762610 0.041070 0.825230 -0.462511
O22   O     O_R   0.237390 0.041070 0.174770 -0.487681
O23   O     O_R   0.262610 0.541070 0.825230 -0.462519
O24   O     O_R   0.737390 0.541070 0.174770 -0.487708
O25   O     O_R   0.667390 0.924160 0.829970 -0.531469
O26   O     O_R   0.332610 0.924160 0.170030 -0.516648
O27   O     O_R   0.167390 0.424160 0.829970 -0.531466
O28   O     O_R   0.832610 0.424160 0.170030 -0.516624
O29   O     O_R   0.553980 0.081420 0.821780 -0.498290
O30   O     O_R   0.446020 0.081420 0.178220 -0.491135
O31   O     O_R   0.053980 0.581420 0.821780 -0.498291
O32   O     O_R   0.946020 0.581420 0.178220 -0.491132
O33   O     O_R   0.543210 0.283170 0.826740 -0.518437
O34   O     O_R   0.456790 0.283170 0.173260 -0.518766
O35   O     O_R   0.043210 0.783170 0.826740 -0.518450
O36   O     O_R   0.956790 0.783170 0.173260 -0.518766
O37   O     O_R   0.678350 0.375000 0.822720 -0.506400
O38   O     O_R   0.321650 0.375000 0.177280 -0.499808
O39   O     O_R   0.178350 0.875000 0.822720 -0.506400
O40   O     O_R   0.821650 0.875000 0.177280 -0.499790
O41   O     O_R   0.785060 0.289300 0.670580 -0.514058
O42   O     O_R   0.214940 0.289300 0.329420 -0.524963
O43   O     O_R   0.285060 0.789300 0.670580 -0.514055
O44   O     O_R   0.714940 0.789300 0.329420 -0.524958
O45   O     O_R   0.763330 0.040090 0.676940 -0.506121
O46   O     O_R   0.236670 0.040090 0.323060 -0.521693
O47   O     O_R   0.263330 0.540090 0.676940 -0.506118
O48   O     O_R   0.736670 0.540090 0.323060 -0.521690
O49   O     O_R   0.668160 0.923110 0.670000 -0.519603
O50   O     O_R   0.331840 0.923110 0.330000 -0.527272
O51   O     O_R   0.168160 0.423110 0.670000 -0.519603
O52   O     O_R   0.831840 0.423110 0.330000 -0.527274
C113  C     C_3   0.591370 0.364166 0.410723 -0.406025
H61   H     H_    0.628394 0.303773 0.439687 0.134873
H62   H     H_    0.579409 0.321340 0.358912 0.156595
H63   H     H_    0.615514 0.452575 0.397710 0.145174
C114  C     C_3   0.508329 0.509351 0.568983 -0.404552
H64   H     H_    0.500529 0.495741 0.626895 0.170291
H65   H     H_    0.547006 0.583607 0.561275 0.121643
H66   H     H_    0.458059 0.538372 0.544652 0.111377
C115  C     C_3   0.091371 0.864163 0.410721 -0.406026
H67   H     H_    0.128395 0.803768 0.439684 0.134872
H68   H     H_    0.079409 0.821338 0.358910 0.156594
H69   H     H_    0.115516 0.952571 0.397708 0.145174
C116  C     C_3   0.008336 0.009351 0.568982 -0.404558
H70   H     H_    0.000548 0.995748 0.626895 0.170292
H71   H     H_    0.047008 0.083609 0.561263 0.121640
H72   H     H_    0.958061 0.038363 0.544660 0.111380
F1    F     F_    0.281230 0.146162 0.026299 -0.637551
F2    F     F_    0.872809 0.084740 0.920476 -0.635448
F3    F     F_    0.781324 0.646132 0.026294 -0.637560
F4    F     F_    0.372831 0.584698 0.920464 -0.635463

loop_
_geom_bond_atom_site_label_1
_geom_bond_atom_site_label_2
_ccdc_geom_bond_type
Cr8   O28   S    
C97   O41   A    
C4    C109  S    
C48   O32   A    
C67   C83   A    
C71   H15   S    
C46   O34   A    
Cr3   O23   S    
C14   H38   S    
Cr9   O37   S    
C45   O33   A    
C41   C42   A    
C14   C18   A    
C39   C51   S    
C36   C95   S    
C34   C93   S    
C23   F1    S    
C50   C114  S    
C53   C69   A    
C33   C94   S    
C58   C62   A    
C75   H19   S    
Cr12  O36   S    
C51   H5    S    
C9    C25   S    
C63   C79   S    
C35   C96   S    
C16   H40   S    
Cr7   O31   S    
C49   H7    S    
C78   H26   S    
C116  H70   S    
C37   C38   A    
C81   C97   S    
Cr1   O45   S    
Cr4   O44   S    
C33   C42   A    
C13   C29   A    
C51   C115  S    
C27   H55   S    
C15   C19   A    
C55   C90   S    
C55   C59   A    
Cr8   O8    S    
C1    C112  S    
C48   O36   A    
C25   H53   S    
C103  H36   S    
Cr2   O42   S    
Cr5   O49   S    
C26   H50   S    
C3    C110  S    
C89   O49   A    
C48   C104  S    
C91   O51   A    
C65   C69   A    
Cr3   O3    S    
C90   O50   A    
C102  C105  D    
C114  H64   S    
C96   O12   A    
C57   C73   S    
C57   C61   A    
C100  O44   A    
C10   C30   A    
Cr10  O14   S    
C64   C84   A    
C21   C25   S    
C77   H29   S    
C20   C112  A    
C65   C81   A    
C73   C77   S    
Cr12  O40   S    
C61   C77   S    
C56   C72   A    
Cr3   O19   S    
C45   O29   A    
C107  C108  S    
Cr2   O18   S    
C4    O24   A    
C103  C108  D    
C2    O22   A    
C40   C52   S    
Cr1   O17   S    
C8    C12   A    
C30   C86   S    
C1    O21   A    
C52   C116  S    
C44   H60   S    
Cr3   O47   S    
C7    C23   S    
C95   O7    A    
C10   C26   S    
C6    C22   S    
C85   O37   A    
C74   H18   S    
C11   C31   A    
C94   O10   A    
C115  H67   S    
Cr4   O48   S    
C3    O27   A    
C64   C80   S    
C5    C9    A    
C41   H57   S    
Cr6   O18   S    
C34   C41   A    
C19   H43   S    
Cr10  O10   S    
Cr5   O17   S    
C91   O47   A    
C46   C102  S    
C102  H33   S    
Cr11  O11   S    
Cr4   O20   S    
C74   H22   S    
C7    C11   A    
C26   H54   S    
C79   H31   S    
C69   H13   S    
C20   H44   S    
C93   O9    A    
C2    C111  S    
C2    O26   A    
C47   C103  S    
C98   O14   A    
C1    O25   A    
C51   C52   S    
C68   C84   A    
C97   O13   A    
C36   C40   A    
C31   C87   S    
C49   C113  S    
C27   H51   S    
C39   C40   A    
C47   O35   A    
C53   C57   A    
C28   H52   S    
C73   H17   S    
C7    C111  A    
C18   H42   S    
C75   H23   S    
C14   C30   A    
C106  H2    S    
Cr11  O39   S    
C92   O52   A    
C42   H58   S    
Cr2   O22   S    
C73   H21   S    
C68   C72   A    
C114  H65   S    
Cr1   O21   S    
C55   C71   A    
C6    C110  A    
C35   C39   A    
C43   C44   A    
C94   O6    A    
C6    C10   A    
Cr3   O43   S    
C67   H11   S    
C66   C82   A    
Cr4   O4    S    
Cr6   O50   S    
Cr6   O26   S    
Cr1   O41   S    
C29   C85   S    
C54   C70   A    
C11   C27   S    
C16   C20   A    
C43   H59   S    
Cr1   O1    S    
Cr12  O12   S    
C53   C92   S    
C88   O40   A    
Cr7   O19   S    
Cr6   O30   S    
C22   H46   S    
C108  H4    S    
C68   H12   S    
C24   F2    S    
C35   C44   A    
C28   H56   S    
Cr9   O13   S    
C37   C49   S    
Cr4   O24   S    
C50   H8    S    
C21   F3    S    
C65   H9    S    
C76   H20   S    
Cr7   O51   S    
C56   C89   S    
C12   C28   S    
C101  H34   S    
C86   O2    A    
C116  H71   S    
C23   C27   S    
C113  H62   S    
Cr10  O38   S    
Cr8   O20   S    
C82   C98   S    
C59   C63   A    
C115  H69   S    
C32   C88   S    
Cr8   O32   S    
C72   H16   S    
C77   H25   S    
C13   H37   S    
Cr9   O9    S    
C59   C75   S    
C80   H32   S    
C58   C74   S    
C24   C28   S    
C79   H27   S    
C54   C58   A    
Cr11  O15   S    
C101  C106  D    
C80   H28   S    
Cr11  O35   S    
C52   H6    S    
C116  H72   S    
C95   O11   A    
C93   O5    A    
Cr10  O34   S    
C85   O1    A    
C34   C38   A    
C22   F4    S    
C62   C78   S    
C78   H30   S    
C76   C80   S    
Cr7   O7    S    
C17   C109  A    
Cr2   O46   S    
C84   C100  S    
C87   O3    A    
C47   O31   A    
C15   C31   A    
C38   C50   S    
C19   C111  A    
C16   C32   A    
Cr9   O33   S    
C86   O38   A    
C105  C106  S    
Cr12  O16   S    
Cr7   O27   S    
Cr2   O2    S    
C13   C17   A    
C60   C64   A    
C114  H66   S    
C3    O23   A    
C105  H1    S    
C115  H68   S    
C74   C78   S    
Cr9   O17   S    
C54   C91   S    
C61   C81   A    
Cr8   O52   S    
C9    C29   A    
Cr6   O6    S    
C70   H14   S    
C96   O8    A    
C66   C70   A    
C5    C109  A    
C99   O15   A    
C21   H45   S    
C4    O28   A    
Cr5   O25   S    
C8    C24   S    
C8    C112  A    
C60   C76   S    
C33   C37   A    
C67   C71   A    
C104  C107  D    
C56   C60   A    
C62   C82   A    
C24   H48   S    
C99   O43   A    
Cr12  O20   S    
C100  O16   A    
C107  H3    S    
C88   O4    A    
C25   H49   S    
Cr10  O18   S    
Cr5   O29   S    
C5    C21   S    
C76   H24   S    
C46   O30   A    
C18   C110  A    
C49   C50   S    
C22   C26   S    
C113  H63   S    
C63   C83   A    
C92   O48   A    
C90   O46   A    
C36   C43   A    
C17   H41   S    
Cr5   O5    S    
C104  H35   S    
Cr11  O19   S    
C89   O45   A    
C66   H10   S    
C113  H61   S    
C75   C79   S    
C15   H39   S    
C12   C32   A    
C87   O39   A    
C83   C99   S    
C98   O42   A    
C23   H47   S    
C45   C101  S    
