data_mof_unit_13491.cif
_audit_creation_date              2012-10-26T20:33:59-0400
_audit_creation_method            fapswitch 2.2
_symmetry_space_group_name_H-M    P1
_symmetry_Int_Tables_number       1
_space_group_crystal_system       triclinic
_cell_length_a                    15.954667
_cell_length_b                    9.115952
_cell_length_c                    7.889487
_cell_angle_alpha                 89.999731
_cell_angle_beta                  89.141893
_cell_angle_gamma                 89.999835
_cell_volume                      1147.33391099

loop_
_atom_site_label
_atom_site_type_symbol
_atom_type_description
_atom_site_fract_x
_atom_site_fract_y
_atom_site_fract_z
_atom_type_partial_charge
C1    C     C_R   0.500000 0.220393 0.500000 0.552566
C2    C     C_3   0.053803 0.424162 0.331168 0.079345
C3    C     C_3   0.946197 0.424172 0.668840 0.079345
C4    C     C_3   0.953104 0.411599 0.336998 0.061182
C5    C     C_1   0.748827 0.500489 0.495443 -0.010675
C6    C     C_1   0.251173 0.500493 0.504557 -0.010675
C7    C     C_3   0.083386 0.501456 0.502200 0.077846
C8    C     C_3   0.916613 0.501454 0.497800 0.077844
C9    C     C_3   0.949318 0.668743 0.493780 0.250835
C10   C     C_3   0.050680 0.668744 0.506203 0.250837
C11   C     C_1   0.906085 0.277969 0.695150 0.243621
C12   C     C_1   0.823972 0.501006 0.494252 -0.019408
C13   C     C_1   0.924661 0.255286 0.343624 0.192092
C14   C     C_1   0.075342 0.255299 0.656397 0.192087
C15   C     C_1   0.093918 0.277959 0.304870 0.243626
C16   C     C_1   0.176028 0.501011 0.505748 -0.019410
C17   C     C_R   0.340283 0.500058 0.501284 0.546034
C18   C     C_R   0.659717 0.500057 0.498716 0.546032
C19   C     C_1   0.500000 0.934587 0.500000 -0.029453
C20   C     C_1   0.500000 0.065421 0.500000 -0.027658
C21   C     C_R   0.500000 0.779614 0.500000 0.549020
C22   C     C_3   0.046897 0.411612 0.663009 0.061180
Cu1   Cu    Cu3+1 0.500000 0.500010 0.669080 1.052008
Cu2   Cu    Cu3+1 0.500000 0.500010 0.330920 1.052008
H1    H     H_    0.046823 0.719894 0.770053 0.271612
H2    H     H_    0.050522 0.593205 0.139834 0.293067
H3    H     H_    0.061371 0.396862 0.917369 0.276142
H4    H     H_    0.147094 0.461276 0.820567 0.257100
H5    H     H_    0.938632 0.396838 0.082637 0.276140
H6    H     H_    0.852907 0.461247 0.179433 0.257101
H7    H     H_    0.851264 0.532648 0.811808 0.255673
H8    H     H_    0.949477 0.593228 0.860154 0.293064
H9    H     H_    0.080777 0.854737 0.648437 0.260164
H10   H     H_    0.065813 0.860696 0.365858 0.257917
H11   H     H_    0.152751 0.760306 0.376486 0.259522
H12   H     H_    0.847246 0.760310 0.623483 0.259522
H13   H     H_    0.934182 0.860703 0.634105 0.257920
H14   H     H_    0.919219 0.854723 0.351525 0.260163
H15   H     H_    0.953174 0.719872 0.229924 0.271613
H16   H     H_    0.148736 0.532634 0.188191 0.255675
N1    N     N_1   0.500000 0.499970 0.076820 -0.075346
N2    N     N_1   0.125359 0.165161 0.281188 -0.274827
N3    N     N_3   0.085294 0.504721 0.181308 -0.639174
N4    N     N_3   0.081627 0.467766 0.821285 -0.623902
N5    N     N_3   0.918374 0.467742 0.178717 -0.623896
N6    N     N_3   0.914706 0.504738 0.818693 -0.639159
N7    N     N_1   0.500000 0.499970 0.923180 -0.075346
N8    N     N_3   0.081901 0.740900 0.661630 -0.587944
N9    N     N_3   0.087763 0.752576 0.363380 -0.646919
N10   N     N_3   0.912234 0.752582 0.636592 -0.646923
N11   N     N_3   0.918095 0.740886 0.338345 -0.587946
N12   N     N_1   0.874645 0.165172 0.718843 -0.274825
N13   N     N_1   0.902264 0.134604 0.344617 -0.295231
N14   N     N_1   0.097743 0.134617 0.655417 -0.295215
O1    O     O_R   0.500000 0.288400 0.642760 -0.493674
O2    O     O_R   0.500000 0.288400 0.357240 -0.493674
O3    O     O_R   0.379440 0.500020 0.642850 -0.495714
O4    O     O_R   0.379440 0.500020 0.357150 -0.498477
O5    O     O_R   0.620560 0.500020 0.642850 -0.498477
O6    O     O_R   0.620560 0.500020 0.357150 -0.495714
O7    O     O_R   0.500000 0.711620 0.642810 -0.495121
O8    O     O_R   0.500000 0.711620 0.357190 -0.495121

loop_
_geom_bond_atom_site_label_1
_geom_bond_atom_site_label_2
_ccdc_geom_bond_type
H11   N9    S    
C7    C10   S    
C2    C4    S    
Cu1   Cu2   S    
Cu1   O1    S    
C2    C15   S    
Cu2   O2    S    
C7    C22   S    
C9    C10   S    
C17   O4    A    
H6    N5    S    
H15   N11   S    
C19   C20   T    
C9    N11   S    
C8    C12   S    
C2    N3    S    
C4    C8    S    
C14   C22   S    
N1    N7    T    
H12   N10   S    
H9    N8    S    
Cu1   O5    S    
Cu2   N1    S    
H1    N8    S    
C21   O8    A    
C4    C13   S    
H8    N6    S    
C1    C20   S    
C18   O6    A    
C7    C16   S    
C14   N14   T    
C1    O2    A    
H2    N3    S    
C10   N8    S    
C13   N13   T    
C4    N5    S    
H14   N11   S    
C1    O1    A    
Cu1   N7    S    
C11   N12   T    
C6    C16   T    
Cu2   O6    S    
C18   O5    A    
Cu1   O7    S    
C3    C11   S    
C5    C12   T    
Cu2   O4    S    
C3    C8    S    
C17   O3    A    
H13   N10   S    
Cu1   O3    S    
C6    C17   S    
H10   N9    S    
Cu2   O8    S    
C5    C18   S    
C3    N6    S    
C19   C21   S    
C10   N9    S    
C21   O7    A    
H3    N4    S    
H4    N4    S    
H16   N3    S    
C22   N4    S    
C9    N10   S    
C2    C7    S    
C15   N2    T    
H5    N5    S    
C8    C9    S    
C3    C22   S    
H7    N6    S    
