data_mof_unit_13089.cif
_audit_creation_date              2012-10-26T17:12:33-0400
_audit_creation_method            fapswitch 2.2
_symmetry_space_group_name_H-M    P1
_symmetry_Int_Tables_number       1
_space_group_crystal_system       triclinic
_cell_length_a                    16.832014
_cell_length_b                    16.828479
_cell_length_c                    16.830669
_cell_angle_alpha                 67.459714
_cell_angle_beta                  68.161374
_cell_angle_gamma                 67.612763
_cell_volume                      3926.21287921

loop_
_atom_site_label
_atom_site_type_symbol
_atom_type_description
_atom_site_fract_x
_atom_site_fract_y
_atom_site_fract_z
_atom_type_partial_charge
C1    C     C_R   0.019326 0.829766 0.568594 0.815663
C2    C     C_R   0.979677 0.170500 0.431862 0.802105
C3    C     C_R   0.828360 0.563502 0.030769 0.817009
C4    C     C_R   0.171830 0.436720 0.968645 0.791823
C5    C     C_R   0.567469 0.019320 0.830180 0.820196
C6    C     C_R   0.432476 0.980824 0.169783 0.824305
C7    C     C_R   0.431459 0.170290 0.980636 0.815854
C8    C     C_R   0.568544 0.829954 0.019168 0.819572
C9    C     C_R   0.969598 0.436284 0.171786 0.808522
C10   C     C_R   0.031458 0.563307 0.828168 0.792860
C11   C     C_R   0.169766 0.980859 0.432474 0.822280
C12   C     C_R   0.830197 0.019241 0.567501 0.823743
C13   C     C_R   0.482728 0.969218 0.733661 -0.174481
C14   C     C_R   0.516569 0.032398 0.265697 -0.177476
C15   C     C_R   0.944380 0.733263 0.510099 -0.171437
C16   C     C_R   0.055456 0.266383 0.490790 -0.168474
C17   C     C_R   0.701430 0.454135 0.072486 -0.173617
C18   C     C_R   0.298695 0.547226 0.925016 -0.166663
C19   C     C_R   0.265823 0.032620 0.516231 -0.174289
C20   C     C_R   0.733607 0.968606 0.483290 -0.176303
C21   C     C_R   0.490124 0.267045 0.055282 -0.171891
C22   C     C_R   0.509508 0.734475 0.943415 -0.169053
C23   C     C_R   0.927449 0.546900 0.298079 -0.170774
C24   C     C_R   0.074973 0.452899 0.701358 -0.166406
C25   C     C_R   0.551414 0.995480 0.551476 0.033585
C26   C     C_R   0.447914 0.006508 0.447837 0.033626
C27   C     C_R   0.008231 0.546340 0.550506 0.029448
C28   C     C_R   0.993176 0.453381 0.449535 0.030541
C29   C     C_R   0.550434 0.547461 0.006446 0.029693
C30   C     C_R   0.449420 0.454103 0.991698 0.029583
C31   C     C_R   0.590863 0.995137 0.461763 0.045164
C32   C     C_R   0.408439 0.006968 0.537501 0.044836
C33   C     C_R   0.038045 0.451453 0.574198 0.040658
C34   C     C_R   0.963637 0.548252 0.425695 0.041422
C35   C     C_R   0.477990 0.595725 0.967149 0.043427
C36   C     C_R   0.521640 0.405888 0.031265 0.043622
C37   C     C_R   0.537661 0.006716 0.408466 0.045517
C38   C     C_R   0.461613 0.995432 0.590789 0.044987
C39   C     C_R   0.425737 0.549020 0.961841 0.040731
C40   C     C_R   0.573999 0.452570 0.036339 0.041446
C41   C     C_R   0.032527 0.404950 0.521976 0.043991
C42   C     C_R   0.968696 0.594716 0.478186 0.043514
C43   C     C_R   0.430590 0.975008 0.683593 -0.227213
C44   C     C_R   0.568643 0.027038 0.315650 -0.227334
C45   C     C_R   0.932076 0.688135 0.463497 -0.203660
C46   C     C_R   0.068391 0.311420 0.537077 -0.207362
C47   C     C_R   0.650632 0.407560 0.068766 -0.205822
C48   C     C_R   0.349250 0.593941 0.929038 -0.207642
C49   C     C_R   0.315690 0.027436 0.568292 -0.227041
C50   C     C_R   0.683627 0.974410 0.431022 -0.226227
C51   C     C_R   0.536483 0.312356 0.067756 -0.203405
C52   C     C_R   0.462869 0.689308 0.931131 -0.205913
C53   C     C_R   0.931397 0.593405 0.348809 -0.206346
C54   C     C_R   0.070863 0.406352 0.650751 -0.207385
C55   C     C_R   0.563434 0.994134 0.692392 0.025386
C56   C     C_R   0.436066 0.007107 0.307162 0.024942
C57   C     C_R   0.995033 0.687915 0.572696 0.013457
C58   C     C_R   0.005019 0.311954 0.427986 0.027262
C59   C     C_R   0.678200 0.548075 0.044849 0.036027
C60   C     C_R   0.322129 0.453333 0.952787 0.045181
C61   C     C_R   0.307240 0.007175 0.435925 0.025101
C62   C     C_R   0.692336 0.993867 0.563706 0.025003
C63   C     C_R   0.427427 0.312315 0.004792 0.013622
C64   C     C_R   0.572842 0.689037 0.993192 0.020466
C65   C     C_R   0.954765 0.452978 0.321756 0.031058
C66   C     C_R   0.047295 0.546781 0.677880 0.045565
C67   C     C_R   0.606503 0.017539 0.735913 -0.162121
C68   C     C_R   0.393292 0.983004 0.263929 -0.162993
C69   C     C_R   0.024632 0.732826 0.608815 -0.135222
C70   C     C_R   0.974440 0.267537 0.392142 -0.173157
C71   C     C_R   0.729460 0.597317 0.047352 -0.179287
C72   C     C_R   0.271420 0.404032 0.949719 -0.180502
C73   C     C_R   0.263923 0.983025 0.393285 -0.162345
C74   C     C_R   0.735924 0.017398 0.606607 -0.162466
C75   C     C_R   0.391257 0.267301 0.975335 -0.135171
C76   C     C_R   0.609652 0.733906 0.022073 -0.163709
C77   C     C_R   0.951518 0.403588 0.271253 -0.128699
C78   C     C_R   0.050544 0.595987 0.728527 -0.180629
C79   C     C_R   0.686860 0.041880 0.686805 0.049908
C80   C     C_R   0.313121 0.958335 0.313228 0.050843
C81   C     C_R   0.061073 0.682430 0.683279 0.082918
C82   C     C_R   0.938461 0.318144 0.317517 0.077741
C83   C     C_R   0.686257 0.684850 0.054966 0.066600
C84   C     C_R   0.316597 0.317646 0.939183 0.083958
C85   C     C_R   0.602023 0.996187 0.602142 0.073147
C86   C     C_R   0.397434 0.005300 0.397341 0.072996
C87   C     C_R   0.017792 0.593511 0.599785 0.074961
C88   C     C_R   0.983415 0.406289 0.400318 0.072097
C89   C     C_R   0.599994 0.594711 0.015679 0.077162
C90   C     C_R   0.400225 0.406745 0.982156 0.075032
Cu1   Cu    Cu3+1 0.995180 0.995180 0.424630 0.895529
Cu2   Cu    Cu3+1 0.004820 0.004820 0.575370 0.897794
Cu3   Cu    Cu3+1 0.995180 0.424630 0.995180 0.921991
Cu4   Cu    Cu3+1 0.004820 0.575370 0.004820 0.910789
Cu5   Cu    Cu3+1 0.424630 0.995180 0.995180 0.897397
Cu6   Cu    Cu3+1 0.575370 0.004820 0.004820 0.887713
H1    H     H_    0.457543 0.942486 0.804005 0.171188
H2    H     H_    0.541639 0.058948 0.195283 0.170858
H3    H     H_    0.911130 0.803890 0.497683 0.156520
H4    H     H_    0.088177 0.195676 0.503591 0.158008
H5    H     H_    0.756672 0.414996 0.101689 0.166359
H6    H     H_    0.243698 0.585931 0.895188 0.155074
H7    H     H_    0.195515 0.059177 0.541126 0.170846
H8    H     H_    0.803877 0.941617 0.458534 0.170786
H9    H     H_    0.502751 0.196327 0.088367 0.156827
H10   H     H_    0.496733 0.805254 0.910576 0.157333
H11   H     H_    0.897786 0.585859 0.242956 0.156448
H12   H     H_    0.104741 0.414108 0.756446 0.154908
H13   H     H_    0.367793 0.958922 0.718875 0.135485
H14   H     H_    0.631386 0.043226 0.280301 0.135136
H15   H     H_    0.892161 0.728630 0.417039 0.131297
H16   H     H_    0.108012 0.270699 0.583756 0.131720
H17   H     H_    0.674609 0.335642 0.090471 0.132960
H18   H     H_    0.325350 0.665844 0.907054 0.132634
H19   H     H_    0.280342 0.043831 0.630869 0.135440
H20   H     H_    0.718890 0.958122 0.368385 0.135108
H21   H     H_    0.582933 0.271853 0.107651 0.131328
H22   H     H_    0.415967 0.729999 0.891779 0.131570
H23   H     H_    0.909898 0.665340 0.324721 0.132158
H24   H     H_    0.092776 0.334435 0.674649 0.132804
O1    O     O_R   0.124540 0.978640 0.385460 -0.568995
O2    O     O_R   0.875460 0.021360 0.614540 -0.571604
O3    O     O_R   0.978640 0.385460 0.124540 -0.578645
O4    O     O_R   0.021360 0.614540 0.875460 -0.591681
O5    O     O_R   0.385460 0.124540 0.978640 -0.580306
O6    O     O_R   0.614540 0.875460 0.021360 -0.572383
O7    O     O_R   0.614540 0.021360 0.875460 -0.571643
O8    O     O_R   0.385460 0.978640 0.124540 -0.571155
O9    O     O_R   0.875460 0.614540 0.021360 -0.571233
O10   O     O_R   0.124540 0.385460 0.978640 -0.590823
O11   O     O_R   0.021360 0.875460 0.614540 -0.581152
O12   O     O_R   0.978640 0.124540 0.385460 -0.592108
O13   O     O_R   0.013780 0.867370 0.487190 -0.599727
O14   O     O_R   0.986220 0.132630 0.512810 -0.594310
O15   O     O_R   0.867370 0.487190 0.013780 -0.587985
O16   O     O_R   0.132630 0.512810 0.986220 -0.584048
O17   O     O_R   0.487190 0.013780 0.867370 -0.607943
O18   O     O_R   0.512810 0.986220 0.132630 -0.611544
O19   O     O_R   0.512810 0.132630 0.986220 -0.599924
O20   O     O_R   0.487190 0.867370 0.013780 -0.600676
O21   O     O_R   0.986220 0.512810 0.132630 -0.592333
O22   O     O_R   0.013780 0.487190 0.867370 -0.583560
O23   O     O_R   0.132630 0.986220 0.512810 -0.607711
O24   O     O_R   0.867370 0.013780 0.487190 -0.611412
C91   C     C_3   0.709346 0.109855 0.709026 -0.320723
C92   C     C_3   0.771342 0.068050 0.771263 -0.677550
H25   H     H_    0.790302 0.993665 0.790663 0.247070
H26   H     H_    0.832845 0.090566 0.738302 0.225138
H27   H     H_    0.738470 0.090702 0.832603 0.224935
H28   H     H_    0.739526 0.155390 0.646324 0.179646
H29   H     H_    0.646812 0.155423 0.738981 0.178521
C93   C     C_3   0.291051 0.889788 0.291467 -0.324794
C94   C     C_3   0.229073 0.930877 0.229290 -0.673706
H30   H     H_    0.167782 0.907999 0.262425 0.224882
H31   H     H_    0.209729 0.005280 0.209670 0.249286
H32   H     H_    0.262146 0.908022 0.168072 0.224435
H33   H     H_    0.353738 0.844286 0.261656 0.177980
H34   H     H_    0.261029 0.844321 0.354361 0.178287
C95   C     C_3   0.120121 0.713244 0.709331 -0.337911
C96   C     C_3   0.203460 0.727959 0.633608 -0.830072
H35   H     H_    0.241444 0.665888 0.612416 0.244016
H36   H     H_    0.186957 0.783664 0.574971 0.253660
H37   H     H_    0.246899 0.744564 0.657446 0.236065
H38   H     H_    0.082344 0.773468 0.733386 0.222975
H39   H     H_    0.146199 0.661092 0.765306 0.192655
C97   C     C_3   0.876506 0.288574 0.294045 -0.338013
C98   C     C_3   0.790004 0.362434 0.282514 -0.875094
H40   H     H_    0.755980 0.386331 0.343117 0.256183
H41   H     H_    0.802741 0.420018 0.223775 0.235844
H42   H     H_    0.744675 0.335466 0.272535 0.239446
H43   H     H_    0.911174 0.265456 0.233145 0.221106
H44   H     H_    0.853638 0.232711 0.348477 0.216842
C99   C     C_3   0.711335 0.715500 0.115005 -0.327617
C100  C     C_3   0.774269 0.775995 0.064866 -0.684902
H45   H     H_    0.787604 0.792559 0.991361 0.252825
H46   H     H_    0.744928 0.839271 0.084447 0.220120
H47   H     H_    0.838670 0.742812 0.082949 0.217207
H48   H     H_    0.649786 0.749913 0.157846 0.183673
H49   H     H_    0.742973 0.655970 0.163278 0.166164
C101  C     C_3   0.290396 0.286934 0.880197 -0.338001
C102  C     C_3   0.365874 0.272728 0.796641 -0.829980
H50   H     H_    0.387147 0.334926 0.758668 0.244179
H51   H     H_    0.424419 0.217007 0.813012 0.253956
H52   H     H_    0.341854 0.256410 0.753143 0.236125
H53   H     H_    0.266417 0.226510 0.918088 0.223520
H54   H     H_    0.234430 0.338982 0.854189 0.192878

loop_
_geom_bond_atom_site_label_1
_geom_bond_atom_site_label_2
_ccdc_geom_bond_type
C68   C80   A    
C40   C47   A    
C14   C56   A    
C97   H44   S    
Cu3   Cu4   S    
C81   C95   S    
C12   C74   S    
C3    C71   S    
Cu5   Cu6   S    
C34   C42   A    
C13   C43   A    
C5    C67   S    
Cu6   O19   S    
C29   C89   A    
C91   C92   S    
C10   C78   S    
C101  H53   S    
C98   H41   S    
C99   C100  S    
C27   C33   A    
C26   C32   A    
C55   C85   A    
Cu5   O20   S    
C2    O14   A    
C99   H48   S    
C14   C44   A    
C54   H24   S    
C92   H25   S    
C10   O4    A    
C18   H6    S    
C75   C84   A    
C60   C72   A    
C24   C54   A    
C28   C41   A    
C8    C76   S    
C55   C67   A    
C63   C90   A    
C80   C93   S    
C10   O22   A    
C84   C101  S    
Cu2   O23   S    
C17   H5    S    
C100  H45   S    
C20   C50   A    
C51   H21   S    
C48   H18   S    
C19   H7    S    
Cu5   O8    S    
C59   C89   A    
C28   C88   A    
C2    O12   A    
C41   C46   A    
C57   C87   A    
C14   H2    S    
C24   H12   S    
C32   C38   A    
C94   H31   S    
C46   H16   S    
C71   C83   A    
C91   H28   S    
Cu1   Cu2   S    
C30   C90   A    
C4    O16   A    
C6    C68   S    
C28   C34   A    
C97   H43   S    
C98   H40   S    
C20   C62   A    
C15   C57   A    
C11   O1    A    
C64   C89   A    
C1    O13   A    
C76   C83   A    
C23   C53   A    
C98   H42   S    
C92   H26   S    
C102  H51   S    
C66   C78   A    
C62   C85   A    
C93   H34   S    
Cu5   O17   S    
Cu4   O9    S    
C65   C77   A    
C96   H37   S    
C17   C47   A    
C36   C40   A    
Cu2   O11   S    
C67   C79   A    
C79   C91   S    
C11   C73   S    
C16   C46   A    
C66   C87   A    
C9    O21   A    
C58   C70   A    
C7    C75   S    
Cu1   O12   S    
C61   C73   A    
C102  H50   S    
C1    C69   S    
C12   O24   A    
Cu6   O7    S    
C18   C48   A    
C91   H29   S    
C42   C45   A    
C96   H36   S    
C6    O18   A    
C35   C39   A    
C27   C42   A    
Cu2   O2    S    
C25   C38   A    
C92   H27   S    
C19   C49   A    
C56   C86   A    
C95   C96   S    
Cu1   O13   S    
C3    O15   A    
C26   C86   A    
C23   H11   S    
C5    O7    A    
C4    C72   S    
C25   C85   A    
C64   C76   A    
Cu6   O6    S    
C100  H46   S    
C16   C58   A    
C7    O5    A    
C94   H32   S    
C27   C87   A    
C100  H47   S    
C44   H14   S    
C72   C84   A    
C36   C51   A    
C101  H54   S    
C17   C59   A    
C69   C81   A    
C8    O6    A    
Cu5   O5    S    
C49   H19   S    
C60   C90   A    
C74   C79   A    
C83   C99   S    
C97   C98   S    
C7    O19   A    
C15   C45   A    
C31   C50   A    
Cu3   O10   S    
C52   H22   S    
C21   C51   A    
C101  C102  S    
C65   C88   A    
C22   C52   A    
Cu1   O24   S    
C82   C97   S    
C102  H52   S    
C18   C60   A    
C33   C54   A    
C47   H17   S    
C93   H33   S    
C3    O9    A    
Cu4   O21   S    
C25   C31   A    
Cu2   O14   S    
Cu3   O3    S    
C15   H3    S    
Cu3   O15   S    
C58   C88   A    
C4    O10   A    
C53   H23   S    
C26   C37   A    
C5    O17   A    
C20   H8    S    
C24   C66   A    
C29   C35   A    
C30   C36   A    
C8    O20   A    
C33   C41   A    
C96   H35   S    
C23   C65   A    
C37   C44   A    
C9    C77   S    
C6    O8    A    
C38   C43   A    
C56   C68   A    
C45   H15   S    
Cu6   O18   S    
C78   C81   A    
C63   C75   A    
C77   C82   A    
C19   C61   A    
C1    O11   A    
C29   C40   A    
C9    O3    A    
C73   C80   A    
C30   C39   A    
C50   H20   S    
C13   H1    S    
C70   C82   A    
C95   H39   S    
C32   C49   A    
C21   C63   A    
C22   H10   S    
C61   C86   A    
C22   C64   A    
C16   H4    S    
C31   C37   A    
C12   O2    A    
C93   C94   S    
C34   C53   A    
Cu1   O1    S    
C35   C52   A    
C99   H49   S    
C95   H38   S    
C62   C74   A    
Cu4   O16   S    
C43   H13   S    
C57   C69   A    
C94   H30   S    
C2    C70   S    
C11   O23   A    
C21   H9    S    
Cu3   O22   S    
C59   C71   A    
C39   C48   A    
C13   C55   A    
Cu4   O4    S    
