data_mof_unit_60648.cif
_audit_creation_date              2012-12-10T17:57:49-0500
_audit_creation_method            fapswitch 2.2
_symmetry_space_group_name_H-M    P1
_symmetry_Int_Tables_number       1
_space_group_crystal_system       triclinic
_cell_length_a                    18.803797
_cell_length_b                    18.716337
_cell_length_c                    18.829451
_cell_angle_alpha                 109.227281
_cell_angle_beta                  109.710966
_cell_angle_gamma                 109.245543
_cell_volume                      5115.64827514

loop_
_atom_site_label
_atom_site_type_symbol
_atom_type_description
_atom_site_fract_x
_atom_site_fract_y
_atom_site_fract_z
_atom_type_partial_charge
C1    C     C_R   0.381940 0.381203 0.500683 0.783178
C2    C     C_3   0.808776 0.501825 0.811547 0.078328
C3    C     C_3   0.845207 0.584767 0.803492 -0.354601
C4    C     C_3   0.732153 0.494686 0.829966 -0.139177
C5    C     C_R   0.241260 0.245412 0.423429 0.013334
C6    C     C_R   0.314807 0.315467 0.501020 -0.033456
C7    C     C_R   0.318178 0.325914 0.579828 -0.157645
C8    C     C_R   0.253855 0.261274 0.579997 -0.182844
C9    C     C_R   0.184052 0.187489 0.501140 -0.048795
C10   C     C_R   0.176223 0.183821 0.423498 0.055903
C11   C     C_3   0.153710 0.112081 0.339763 -0.334464
C12   C     C_R   0.617656 0.498094 0.619228 0.749902
C13   C     C_3   0.227538 0.180891 0.340230 -0.155628
C14   C     C_R   0.328275 0.528001 0.261029 0.053085
C15   C     C_R   0.312047 0.497961 0.315014 -0.102870
C16   C     C_R   0.227357 0.468237 0.304077 -0.030801
C17   C     C_R   0.162860 0.468907 0.238747 -0.219187
C18   C     C_R   0.182478 0.500393 0.185144 -0.097537
C19   C     C_R   0.266942 0.530408 0.199937 0.060820
C20   C     C_3   0.326087 0.565444 0.168455 -0.254387
C21   C     C_3   0.396398 0.562532 0.238953 -0.330290
C22   C     C_R   0.706486 0.666042 0.434227 0.034851
C23   C     C_R   0.619239 0.619167 0.500398 0.784907
C24   C     C_R   0.683718 0.687006 0.498647 -0.065438
C25   C     C_R   0.721131 0.775726 0.558865 -0.142866
C26   C     C_R   0.786559 0.839917 0.559582 -0.187054
C27   C     C_R   0.814305 0.815924 0.499679 -0.041163
C28   C     C_R   0.769199 0.729746 0.433428 0.080667
C29   C     C_3   0.803072 0.671861 0.401158 -0.328491
C30   C     C_3   0.734026 0.601001 0.402235 -0.218002
C31   C     C_R   0.998054 0.381342 0.879488 0.793783
C32   C     C_R   0.878021 0.501958 0.879758 0.763289
C33   C     C_R   0.998706 0.618779 0.116952 0.812471
C34   C     C_R   0.380599 0.499700 0.380977 0.794275
C35   C     C_R   0.116541 0.500124 0.117020 0.794486
C36   C     C_R   0.999276 0.118524 0.618029 0.776253
C37   C     C_R   0.118528 0.118906 0.500055 0.778405
C38   C     C_R   0.001412 0.882228 0.381241 0.789602
C39   C     C_R   0.881470 0.881322 0.499852 0.775727
C40   C     C_R   0.923843 0.242096 0.743892 0.095965
C41   C     C_R   0.999853 0.315397 0.814671 -0.075732
C42   C     C_R   0.079266 0.323983 0.820174 -0.194425
C43   C     C_R   0.079547 0.258712 0.755980 -0.187694
C44   C     C_R   0.000344 0.185943 0.684233 -0.084510
C45   C     C_3   0.699458 0.417520 0.649916 -0.122312
C46   C     C_R   0.923928 0.181388 0.680481 0.070379
C47   C     C_3   0.827243 0.126805 0.629909 -0.248126
C48   C     C_3   0.827197 0.197146 0.701682 -0.486859
C49   C     C_R   0.038642 0.703857 0.268976 0.104424
C50   C     C_R   0.001273 0.686822 0.183670 -0.085037
C51   C     C_R   0.978562 0.745193 0.165502 -0.197796
C52   C     C_R   0.976740 0.809665 0.228060 -0.005670
C53   C     C_R   0.004673 0.819345 0.313040 -0.165099
C54   C     C_R   0.041311 0.769544 0.332695 0.156710
C55   C     C_3   0.025777 0.717758 0.377060 -0.435489
C56   C     C_3   0.772165 0.421107 0.723599 -0.464835
C57   C     C_3   0.022083 0.645185 0.306121 -0.471290
C58   C     C_3   0.772781 0.581831 0.730784 -0.409388
C59   C     C_3   0.662317 0.497188 0.759425 -0.383086
C60   C     C_3   0.685532 0.497106 0.687692 0.039431
Cu1   Cu    Cu3+1 0.500370 0.438220 0.438550 1.065213
Cu2   Cu    Cu3+1 0.499630 0.561780 0.561450 0.984877
Cu3   Cu    Cu3+1 0.935500 0.438280 0.997350 0.974100
Cu4   Cu    Cu3+1 0.059110 0.561800 0.997270 1.007767
Cu5   Cu    Cu3+1 0.062130 0.000020 0.562160 0.986759
Cu6   Cu    Cu3+1 0.937870 0.000080 0.437940 1.042238
H1    H     H_    0.722785 0.424545 0.604134 0.142698
H2    H     H_    0.766070 0.640129 0.758596 0.192113
H3    H     H_    0.873306 0.644281 0.866155 0.180106
H4    H     H_    0.372359 0.381795 0.641147 0.148716
H5    H     H_    0.259232 0.268197 0.641299 0.147344
H6    H     H_    0.087149 0.087082 0.287352 0.179711
H7    H     H_    0.097957 0.445267 0.230178 0.167185
H8    H     H_    0.304582 0.517493 0.101270 0.143257
H9    H     H_    0.414901 0.513761 0.212008 0.162621
H10   H     H_    0.702535 0.795365 0.607420 0.163529
H11   H     H_    0.816929 0.907628 0.608006 0.128446
H12   H     H_    0.871869 0.695810 0.447766 0.171270
H13   H     H_    0.681778 0.544504 0.336912 0.160817
H14   H     H_    0.748017 0.360898 0.728389 0.188058
H15   H     H_    0.140578 0.379972 0.874303 0.159490
H16   H     H_    0.141052 0.265642 0.761732 0.153854
H17   H     H_    0.803379 0.062285 0.626479 0.147791
H18   H     H_    0.800362 0.236220 0.681035 0.193025
H19   H     H_    0.803866 0.173486 0.740779 0.207394
H20   H     H_    0.957040 0.737027 0.100760 0.167569
H21   H     H_    0.083018 0.747419 0.442096 0.211320
H22   H     H_    0.825288 0.424355 0.708676 0.158616
H23   H     H_    0.962823 0.700483 0.375787 0.192832
H24   H     H_    0.076996 0.632879 0.330358 0.204150
H25   H     H_    0.956549 0.586047 0.263024 0.220621
H26   H     H_    0.791431 0.585227 0.681292 0.187043
H27   H     H_    0.898384 0.589497 0.788371 0.194154
H28   H     H_    0.657253 0.556452 0.788355 0.186700
H29   H     H_    0.597135 0.441088 0.731322 0.188783
H30   H     H_    0.701136 0.431099 0.827134 0.178851
O1    O     O_R   0.410140 0.357660 0.448100 -0.566040
O2    O     O_R   0.049970 0.462000 0.907620 -0.580071
O3    O     O_R   0.854460 0.447890 0.906680 -0.591520
O4    O     O_R   0.958840 0.552200 0.906620 -0.589115
O5    O     O_R   0.944630 0.538080 0.087010 -0.581587
O6    O     O_R   0.049020 0.642390 0.086940 -0.572584
O7    O     O_R   0.035760 0.447880 0.088010 -0.590253
O8    O     O_R   0.140150 0.552190 0.087940 -0.574161
O9    O     O_R   0.051980 0.090160 0.642200 -0.586372
O10   O     O_R   0.947040 0.090210 0.537310 -0.577743
O11   O     O_R   0.142640 0.090190 0.552500 -0.580208
O12   O     O_R   0.409510 0.462000 0.551890 -0.585802
O13   O     O_R   0.037710 0.090250 0.447610 -0.579751
O14   O     O_R   0.052960 0.909890 0.462790 -0.578676
O15   O     O_R   0.948020 0.909940 0.357900 -0.548467
O16   O     O_R   0.962290 0.909850 0.552490 -0.581052
O17   O     O_R   0.857360 0.909910 0.447600 -0.567280
O18   O     O_R   0.590970 0.447830 0.538770 -0.557957
O19   O     O_R   0.590340 0.552170 0.642560 -0.595245
O20   O     O_R   0.590490 0.538000 0.448110 -0.576033
O21   O     O_R   0.589860 0.642340 0.551900 -0.589462
O22   O     O_R   0.409660 0.447830 0.357440 -0.578448
O23   O     O_R   0.409030 0.552170 0.461230 -0.575258
O24   O     O_R   0.945590 0.357690 0.907690 -0.581328
C61   C     C_1   0.761869 0.563188 0.917393 0.215524
N1    N     N_1   0.784605 0.616623 0.985734 -0.263937
C62   C     C_1   0.167643 0.041950 0.349696 0.360676
N2    N     N_1   0.178912 0.987224 0.357640 -0.257790
C63   C     C_2   0.305100 0.167527 0.349603 0.918132
O25   O     O_2   0.323867 0.156338 0.292112 -0.562085
O26   O     O_R   0.355076 0.167695 0.424153 -0.749474
H31   H     H_    0.404503 0.157771 0.422642 0.358867
C64   C     C_1   0.194922 0.201078 0.270495 0.292227
N3    N     N_1   0.169444 0.217074 0.215940 -0.255987
C65   C     C_1   0.204721 0.434752 0.356938 0.253827
N4    N     N_1   0.186649 0.407839 0.399282 -0.274478
C66   C     C_2   0.617270 0.329434 0.599239 0.855281
O27   O     O_2   0.587133 0.284553 0.521246 -0.565342
O28   O     O_R   0.577194 0.298363 0.641393 -0.783188
H32   H     H_    0.523191 0.238837 0.600232 0.349612
C67   C     C_2   0.342256 0.654157 0.179759 0.942676
O29   O     O_2   0.352568 0.709599 0.245248 -0.566057
O30   O     O_R   0.343883 0.671808 0.113616 -0.755569
H33   H     H_    0.354444 0.732762 0.127593 0.339116
C68   C     C_1   0.471536 0.647014 0.311986 0.334069
N5    N     N_1   0.530547 0.713353 0.369318 -0.256143
C69   C     C_1   0.786865 0.652805 0.313167 0.257252
N6    N     N_1   0.774378 0.637991 0.244041 -0.237738
C70   C     C_2   0.771225 0.574357 0.467080 0.883443
O31   O     O_2   0.828746 0.629413 0.541918 -0.607564
O32   O     O_R   0.738519 0.485857 0.440962 -0.737614
H34   H     H_    0.767208 0.475559 0.489924 0.328757
C71   C     C_1   0.789940 0.122714 0.545396 0.349535
N7    N     N_1   0.760584 0.119461 0.478860 -0.245308
C72   C     C_2   0.942554 0.861655 0.199015 0.867113
O33   O     O_2   0.873469 0.854724 0.192799 -0.545620
O34   O     O_R   0.985424 0.912178 0.170609 -0.776272
H35   H     H_    0.954610 0.942497 0.149353 0.331322

loop_
_geom_bond_atom_site_label_1
_geom_bond_atom_site_label_2
_ccdc_geom_bond_type
C34   O22   A    
C45   C60   S    
Cu6   O17   S    
C41   C42   A    
C54   C55   S    
O32   H34   S    
Cu3   O5    S    
C7    H4    S    
C70   O31   D    
C33   O6    A    
O28   H32   S    
C53   C54   A    
Cu4   O6    S    
C67   O30   S    
C26   C27   A    
C33   O5    A    
C14   C21   S    
C28   C29   S    
C3    H3    S    
C69   N6    T    
C37   O11   A    
C35   O7    A    
C5    C6    A    
C56   H22   S    
Cu2   O12   S    
C58   C60   S    
C49   C54   A    
C29   C69   S    
C49   C57   S    
C2    C32   S    
C18   C19   A    
C31   O2    A    
C16   C65   S    
C40   C48   S    
Cu2   O21   S    
Cu3   O3    S    
C23   O20   A    
C4    H30   S    
C29   H12   S    
C47   C71   S    
C45   C56   S    
C27   C39   S    
C8    C9    A    
C39   O17   A    
Cu2   O19   S    
C45   H1    S    
C72   O33   D    
C59   H28   S    
C47   H17   S    
Cu6   O15   S    
C38   O14   A    
C22   C30   S    
C18   C35   S    
C15   C34   S    
C5    C13   S    
C12   O19   A    
C13   C63   S    
Cu4   O2    S    
C36   O9    A    
C59   C60   S    
O34   H35   S    
C22   C28   A    
C17   H7    S    
Cu1   Cu2   S    
C42   H15   S    
C59   H29   S    
Cu6   O10   S    
C51   H20   S    
Cu5   O9    S    
C70   O32   S    
C44   C46   A    
C17   C18   A    
C12   O18   A    
C31   O24   A    
C11   C62   S    
C26   H11   S    
C57   H24   S    
C36   O10   A    
C51   C52   A    
C62   N2    T    
C24   C25   A    
Cu3   O7    S    
C35   O8    A    
C1    O1    A    
C11   H6    S    
C16   C17   A    
C33   C50   S    
C48   H18   S    
C1    C6    S    
C20   C67   S    
C2    C4    S    
C43   C44   A    
Cu5   O16   S    
C29   C30   S    
C47   C48   S    
C23   C24   S    
Cu1   O20   S    
C9    C37   S    
C50   C51   A    
Cu2   O23   S    
C20   H8    S    
C3    H27   S    
C31   C41   S    
C61   N1    T    
C30   H13   S    
C58   H2    S    
C40   C41   A    
C49   C50   A    
C55   C57   S    
C66   O27   D    
C22   C24   A    
C36   C44   S    
C42   C43   A    
C40   C46   A    
O26   H31   S    
Cu1   O18   S    
C52   C53   A    
C30   C70   S    
C63   O26   S    
C64   N3    T    
C9    C10   A    
C34   O23   A    
Cu4   O8    S    
C46   C47   S    
C39   O16   A    
C8    H5    S    
C57   H25   S    
Cu1   O22   S    
C14   C15   A    
C37   O13   A    
C14   C19   A    
Cu1   O1    S    
C23   O21   A    
O30   H33   S    
C6    C7    A    
C67   O29   D    
C21   H9    S    
C45   C66   S    
C56   H14   S    
C32   O3    A    
C25   H10   S    
C19   C20   S    
C2    C3    S    
C25   C26   A    
C21   C68   S    
C5    C10   A    
C55   H23   S    
C2    C56   S    
C68   N5    T    
Cu3   O24   S    
C11   C13   S    
C63   O25   D    
C38   C53   S    
C52   C72   S    
C4    C59   S    
C4    C61   S    
C72   O34   S    
Cu6   O13   S    
C55   H21   S    
C65   N4    T    
Cu5   O14   S    
C7    C8    A    
C10   C11   S    
C1    O12   A    
Cu3   Cu4   S    
C12   C60   S    
C3    C58   S    
C32   O4    A    
Cu4   O4    S    
C20   C21   S    
Cu5   Cu6   S    
C27   C28   A    
C66   O28   S    
C43   H16   S    
C13   C64   S    
C48   H19   S    
C38   O15   A    
C71   N7    T    
C58   H26   S    
Cu5   O11   S    
C15   C16   A    
