data_mof_unit_48066.cif
_audit_creation_date              2012-12-10T21:11:38-0500
_audit_creation_method            fapswitch 2.2
_symmetry_space_group_name_H-M    P1
_symmetry_Int_Tables_number       1
_space_group_crystal_system       triclinic
_cell_length_a                    17.351855
_cell_length_b                    16.66331
_cell_length_c                    10.672884
_cell_angle_alpha                 88.301215
_cell_angle_beta                  89.908559
_cell_angle_gamma                 90.525675
_cell_volume                      3084.45910496

loop_
_atom_site_label
_atom_site_type_symbol
_atom_type_description
_atom_site_fract_x
_atom_site_fract_y
_atom_site_fract_z
_atom_type_partial_charge
C1    C     C_R   0.351820 0.499398 0.501618 0.848148
C2    C     C_R   0.470291 0.168947 0.398738 -0.289405
C3    C     C_R   0.469717 0.749831 0.401059 0.043189
C4    C     C_R   0.531159 0.250613 0.598640 0.014299
C5    C     C_R   0.531020 0.746382 0.598796 0.005617
C6    C     C_R   0.469797 0.253285 0.400924 0.033881
C7    C     C_R   0.501760 0.875665 0.499249 0.157387
C8    C     C_R   0.501518 0.124424 0.499703 0.164659
C9    C     C_1   0.501872 0.963437 0.499480 -0.068784
C10   C     C_1   0.501801 0.036645 0.499705 -0.067657
C11   C     C_R   0.509376 0.501552 0.259002 0.904454
C12   C     C_R   0.647607 0.500533 0.497163 0.866553
C13   C     C_R   0.487654 0.498426 0.739483 0.890519
C14   C     C_R   0.505491 0.653955 0.101288 -0.153891
C15   C     C_R   0.479187 0.346087 0.896534 -0.143817
C16   C     C_R   0.428474 0.635139 0.876855 -0.140554
C17   C     C_R   0.559936 0.362587 0.118276 -0.156908
C18   C     C_R   0.473783 0.720506 0.039102 -0.185703
C19   C     C_R   0.508609 0.278364 0.958711 -0.180128
C20   C     C_R   0.432804 0.710616 0.929037 -0.154107
C21   C     C_R   0.551565 0.287011 0.067257 -0.177361
C22   C     C_R   0.465325 0.568236 0.934862 0.086402
C23   C     C_R   0.884507 0.482534 0.404195 0.121538
C24   C     C_R   0.523893 0.430710 0.062091 0.075093
C25   C     C_R   0.496352 0.575593 0.054821 0.091698
C26   C     C_R   0.491775 0.423874 0.942947 0.094452
C27   C     C_R   0.473657 0.494959 0.874129 -0.272953
C28   C     C_R   0.517568 0.504631 0.122936 -0.261441
C29   C     C_R   0.843089 0.547645 0.357674 -0.206457
C30   C     C_R   0.152297 0.417345 0.441670 -0.213703
C31   C     C_R   0.149838 0.561405 0.411881 -0.209442
C32   C     C_R   0.851401 0.427228 0.488687 -0.208884
C33   C     C_R   0.766653 0.558056 0.393592 -0.033714
C34   C     C_R   0.114418 0.486711 0.403620 0.124556
C35   C     C_R   0.227710 0.421175 0.485767 -0.013507
C36   C     C_R   0.225365 0.567857 0.455404 -0.018846
C37   C     C_R   0.775224 0.435900 0.527308 -0.015477
C38   C     C_R   0.731276 0.500670 0.477296 -0.152121
C39   C     C_R   0.267022 0.496818 0.486768 -0.159124
C40   C     C_R   0.727546 0.630319 0.341863 0.140214
C41   C     C_R   0.711080 0.694598 0.419585 -0.090290
C42   C     C_R   0.681246 0.765997 0.368439 -0.135427
C43   C     C_R   0.669208 0.774369 0.239329 -0.133556
C44   C     C_R   0.687198 0.711398 0.161057 -0.161937
C45   C     C_1   0.965208 0.481329 0.386113 -0.054275
C46   C     C_R   0.715725 0.639367 0.212044 -0.182485
C47   C     C_R   0.260430 0.345339 0.538113 0.167271
C48   C     C_R   0.282467 0.339329 0.664699 -0.123218
C49   C     C_R   0.309236 0.266468 0.715566 -0.163837
C50   C     C_R   0.314694 0.199442 0.640577 -0.093720
C51   C     C_R   0.292493 0.204824 0.514876 -0.134556
C52   C     C_R   0.265385 0.277393 0.463649 -0.166979
C53   C     C_R   0.254953 0.649995 0.476779 0.164471
C54   C     C_R   0.257856 0.707485 0.377828 -0.169396
C55   C     C_R   0.278865 0.786902 0.400779 -0.160545
C56   C     C_1   0.033772 0.482932 0.385659 -0.053891
C57   C     C_R   0.297183 0.809428 0.522367 -0.090536
C58   C     C_R   0.294768 0.752530 0.621117 -0.139848
C59   C     C_R   0.273211 0.673198 0.598788 -0.117599
C60   C     C_R   0.745288 0.379788 0.626768 0.143435
C61   C     C_R   0.749266 0.296336 0.612530 -0.142088
C62   C     C_R   0.724427 0.243715 0.709088 -0.163954
C63   C     C_R   0.696008 0.273937 0.820630 -0.134288
C64   C     C_R   0.691752 0.356839 0.835351 -0.114001
C65   C     C_R   0.716033 0.409648 0.738871 -0.138733
C66   C     C_R   0.470839 0.834284 0.398149 -0.282370
C67   C     C_R   0.532262 0.166197 0.600613 -0.283983
C68   C     C_R   0.531983 0.830744 0.600613 -0.300086
H1    H     H_    0.577420 0.235076 0.113034 0.136046
H2    H     H_    0.121415 0.360359 0.443489 0.137790
H3    H     H_    0.116920 0.615232 0.390982 0.139538
H4    H     H_    0.886288 0.379498 0.529500 0.138394
H5    H     H_    0.446531 0.866889 0.318539 0.128049
H6    H     H_    0.557086 0.133938 0.680135 0.132261
H7    H     H_    0.556480 0.860579 0.680272 0.138820
H8    H     H_    0.445914 0.138814 0.319260 0.132993
H9    H     H_    0.443635 0.718396 0.324694 0.131137
H10   H     H_    0.555485 0.282510 0.675990 0.153839
H11   H     H_    0.555374 0.712312 0.676636 0.139758
H12   H     H_    0.406355 0.761810 0.882264 0.127332
H13   H     H_    0.444792 0.287050 0.323324 0.141836
H14   H     H_    0.722029 0.689583 0.519389 0.116737
H15   H     H_    0.668343 0.815215 0.428696 0.137586
H16   H     H_    0.646293 0.829754 0.199877 0.126353
H17   H     H_    0.678306 0.718116 0.060952 0.138795
H18   H     H_    0.729720 0.591113 0.150362 0.128600
H19   H     H_    0.278055 0.390713 0.724043 0.103225
H20   H     H_    0.325223 0.261732 0.813433 0.122486
H21   H     H_    0.335793 0.143238 0.679989 0.122718
H22   H     H_    0.296389 0.152747 0.457037 0.126585
H23   H     H_    0.499593 0.219449 0.920904 0.128396
H24   H     H_    0.248232 0.280695 0.366121 0.121780
H25   H     H_    0.243098 0.690930 0.283414 0.128460
H26   H     H_    0.280987 0.831003 0.324311 0.125401
H27   H     H_    0.313547 0.870910 0.539937 0.126416
H28   H     H_    0.308570 0.770169 0.715209 0.114853
H29   H     H_    0.269556 0.630089 0.676581 0.100493
H30   H     H_    0.771582 0.272142 0.526816 0.123563
H31   H     H_    0.727399 0.179505 0.697578 0.131487
H32   H     H_    0.677281 0.233083 0.895509 0.130598
H33   H     H_    0.670360 0.380376 0.921876 0.146072
H34   H     H_    0.480557 0.779674 0.077122 0.128347
H35   H     H_    0.713282 0.473736 0.752330 0.107877
H36   H     H_    0.539435 0.665668 0.183092 0.178962
H37   H     H_    0.445050 0.336632 0.813831 0.155604
H38   H     H_    0.396517 0.629356 0.790599 0.141690
H39   H     H_    0.594874 0.367329 0.201705 0.152325
H40   H     H_    0.871280 0.592081 0.296429 0.142395
N1    N     N_R   0.500000 0.707230 0.500000 -0.084767
N2    N     N_R   0.500000 0.292770 0.500000 -0.089579
O1    O     O_R   0.389110 0.566570 0.499990 -0.606220
O2    O     O_R   0.610890 0.433430 0.500010 -0.604150
O3    O     O_R   0.610890 0.566570 0.500010 -0.614152
O4    O     O_R   0.389110 0.433430 0.499990 -0.601344
O5    O     O_R   0.499990 0.566540 0.316770 -0.627580
O6    O     O_R   0.500010 0.433460 0.683230 -0.624394
O7    O     O_R   0.500010 0.566540 0.683230 -0.624778
O8    O     O_R   0.499990 0.433460 0.316770 -0.624789
Zn1   Zn    Zn3+2 0.500000 0.588860 0.500000 0.944342
Zn2   Zn    Zn3+2 0.500000 0.411140 0.500000 0.949561

loop_
_geom_bond_atom_site_label_1
_geom_bond_atom_site_label_2
_ccdc_geom_bond_type
C34   C56   S    
C23   C45   S    
C41   C42   A    
C14   C18   A    
C61   H30   S    
C35   C47   S    
C53   C59   A    
C32   H4    S    
C53   C54   A    
C68   H7    S    
C15   C19   A    
C26   C27   A    
C62   C63   A    
C30   C35   A    
C23   C29   A    
C19   C21   A    
C24   C26   A    
O7    Zn1   S    
C51   H22   S    
C29   C33   A    
O1    Zn1   S    
C18   H34   S    
C58   H28   S    
C54   H25   S    
C36   C53   S    
C7    C68   A    
O3    Zn1   S    
C45   C56   T    
C44   C46   A    
C22   C25   A    
C29   H40   S    
C5    H11   S    
C11   O5    A    
C9    C10   T    
C16   H38   S    
C31   H3    S    
C6    H13   S    
C43   H16   S    
C6    N2    A    
C49   H20   S    
C2    C6    A    
C55   H26   S    
C30   H2    S    
C5    C68   A    
C64   H33   S    
C31   C34   A    
C17   C24   A    
C30   C34   A    
C51   C52   A    
C33   C40   S    
N2    Zn2   S    
O2    Zn2   S    
C20   H12   S    
C15   C26   A    
C63   H32   S    
C58   C59   A    
C66   H5    S    
C17   C21   A    
C62   H31   S    
C21   H1    S    
C60   C61   A    
C25   C28   A    
C35   C39   A    
C43   C44   A    
C4    H10   S    
C37   C38   A    
C50   H21   S    
C14   H36   S    
C47   C48   A    
C16   C20   A    
C50   C51   A    
C48   H19   S    
C67   H6    S    
O4    Zn2   S    
C32   C37   A    
C40   C41   A    
C60   C65   A    
C40   C46   A    
O5    Zn1   S    
C22   C27   A    
C55   C57   A    
C57   H27   S    
C59   H29   S    
C52   H24   S    
C3    C66   A    
C1    O4    A    
C65   H35   S    
C44   H17   S    
C3    H9    S    
C12   O2    A    
C2    H8    S    
N1    Zn1   S    
C12   O3    A    
C7    C9    S    
C4    N2    A    
C54   C55   A    
C48   C49   A    
C16   C22   A    
C36   C39   A    
C2    C8    A    
C42   H15   S    
C24   C28   A    
C4    C67   A    
C13   O7    A    
C47   C52   A    
C33   C38   A    
C23   C32   A    
C15   H37   S    
C17   H39   S    
C64   C65   A    
C7    C66   A    
C57   C58   A    
C5    N1    A    
C11   C28   S    
C3    N1    A    
C41   H14   S    
C18   C20   A    
C14   C25   A    
C12   C38   S    
C61   C62   A    
O8    Zn2   S    
C13   O6    A    
C19   H23   S    
C1    C39   S    
C63   C64   A    
O6    Zn2   S    
C8    C67   A    
C8    C10   S    
C49   C50   A    
C42   C43   A    
C31   C36   A    
C13   C27   S    
C46   H18   S    
C11   O8    A    
C1    O1    A    
C37   C60   S    
