data_mof_unit_27959.cif
_audit_creation_date              2012-12-10T17:42:41-0500
_audit_creation_method            fapswitch 2.2
_symmetry_space_group_name_H-M    P1
_symmetry_Int_Tables_number       1
_space_group_crystal_system       triclinic
_cell_length_a                    9.934528
_cell_length_b                    10.650778
_cell_length_c                    13.223435
_cell_angle_alpha                 92.371459
_cell_angle_beta                  71.439187
_cell_angle_gamma                 90.581483
_cell_volume                      1325.2585625

loop_
_atom_site_label
_atom_site_type_symbol
_atom_type_description
_atom_site_fract_x
_atom_site_fract_y
_atom_site_fract_z
_atom_type_partial_charge
C1    C     C_R   0.501712 0.739207 0.497511 0.857945
C2    C     C_R   0.443743 0.437070 0.976135 0.089967
C3    C     C_R   0.484988 0.427431 0.864147 0.009182
C4    C     C_R   0.551734 0.454543 0.024233 0.015767
C5    C     C_R   0.695493 0.470772 0.960267 -0.048576
C6    C     C_R   0.735051 0.425372 0.853540 0.437742
C7    C     C_R   0.628874 0.400142 0.807540 -0.284880
C8    C     C_R   0.520235 0.459688 0.133980 -0.204585
C9    C     C_R   0.756657 0.531479 0.119248 -0.192632
C10   C     C_R   0.381658 0.447574 0.812919 -0.105430
C11   C     C_R   0.438333 0.856664 0.324250 -0.161769
C12   C     C_R   0.423673 0.484205 0.701321 0.867914
C13   C     C_R   0.396746 0.915277 0.246953 -0.242839
C14   C     C_R   0.386101 0.045849 0.249153 0.069747
C15   C     C_R   0.422721 0.117914 0.327908 -0.185253
C16   C     C_R   0.463577 0.059273 0.407981 0.049656
C17   C     C_R   0.468555 0.927688 0.407101 0.100395
C18   C     C_R   0.507344 0.870913 0.488285 -0.085836
C19   C     C_R   0.549853 0.940202 0.564125 -0.213503
C20   C     C_R   0.548378 0.068419 0.563779 -0.200299
C21   C     C_R   0.503070 0.127430 0.488248 -0.086361
C22   C     C_R   0.804861 0.670477 0.636720 -0.129640
C23   C     C_R   0.501295 0.260395 0.495221 0.853580
C24   C     C_R   0.848483 0.755464 0.702685 -0.209069
C25   C     C_R   0.987780 0.754543 0.702842 -0.212142
C26   C     C_R   0.083926 0.667811 0.637953 -0.138528
C27   C     C_R   0.044648 0.583037 0.567812 0.191700
C28   C     C_R   0.900364 0.583659 0.567444 0.191898
C29   C     C_R   0.955137 0.420063 0.435313 -0.115075
C30   C     C_R   0.098143 0.420223 0.435223 -0.116860
C31   C     C_R   0.577663 0.499944 0.296931 0.858873
C32   C     C_R   0.793728 0.524657 0.007685 0.018125
C33   C     C_R   0.621744 0.494713 0.181408 -0.117560
C34   C     C_R   0.237488 0.441059 0.871667 -0.186607
C35   C     C_R   0.195696 0.431013 0.981649 -0.096976
C36   C     C_R   0.296480 0.437048 0.034318 -0.093216
H1    H     H_    0.830583 0.568933 0.157836 0.195130
H2    H     H_    0.447703 0.755511 0.317408 0.162861
H3    H     H_    0.372016 0.858159 0.185476 0.142790
H4    H     H_    0.420490 0.219079 0.324884 0.174973
H5    H     H_    0.579245 0.122069 0.624374 0.144014
H6    H     H_    0.923346 0.354737 0.382358 0.158635
H7    H     H_    0.695745 0.675668 0.642501 0.197786
H8    H     H_    0.773198 0.821534 0.754834 0.144208
H9    H     H_    0.020938 0.819013 0.755685 0.170661
H10   H     H_    0.187417 0.668749 0.645751 0.205003
H11   H     H_    0.173456 0.355012 0.382204 0.176834
H12   H     H_    0.416804 0.433620 0.184554 0.196636
H13   H     H_    0.157301 0.447030 0.832697 0.175314
H14   H     H_    0.254703 0.444041 0.120111 0.153855
H15   H     H_    0.084114 0.426680 0.027302 0.156476
H16   H     H_    0.661246 0.360272 0.726972 0.187807
H17   H     H_    0.580812 0.894810 0.625300 0.140289
N1    N     N_R   0.856860 0.501200 0.500990 -0.129297
N2    N     N_R   0.142450 0.501280 0.501020 -0.128352
O1    O     O_R   0.385310 0.683220 0.500000 -0.636761
O2    O     O_R   0.614640 0.683250 0.500010 -0.626673
O3    O     O_R   0.328400 0.499950 0.653610 -0.630707
O4    O     O_R   0.557730 0.499970 0.653620 -0.642728
O5    O     O_R   0.385360 0.316750 0.499990 -0.622695
O6    O     O_R   0.614690 0.316780 0.500000 -0.619768
O7    O     O_R   0.442270 0.500030 0.346380 -0.630056
O8    O     O_R   0.671600 0.500050 0.346390 -0.608791
Zn1   Zn    Zn3+2 0.346880 0.499980 0.499990 0.930771
Zn2   Zn    Zn3+2 0.653120 0.500020 0.500010 0.932611
C37   C     C_2   0.335933 0.104927 0.168613 0.366349
H18   H     H_    0.323022 0.048739 0.101939 0.074271
O9    O     O_2   0.305136 0.216180 0.176929 -0.635569
O10   O     O_3   0.876516 0.405761 0.794523 -0.685479
C38   C     C_3   0.906994 0.275553 0.776696 0.070199
H19   H     H_    0.011544 0.265604 0.713184 0.183039
H20   H     H_    0.829361 0.223677 0.745851 0.129559
C39   C     C_3   0.917543 0.215495 0.877545 -0.373146
H21   H     H_    0.994610 0.268424 0.907708 0.226849
H22   H     H_    0.812450 0.218972 0.940889 0.222331
C40   C     C_3   0.965179 0.078686 0.854706 -0.931268
H23   H     H_    0.887464 0.023646 0.826595 0.256725
H24   H     H_    0.971826 0.037742 0.928847 0.278473
H25   H     H_    0.071458 0.072041 0.792959 0.264279
C41   C     C_2   0.922979 0.591663 0.944431 0.347573
H26   H     H_    0.952522 0.593135 0.858744 0.147586
O11   O     O_2   0.995348 0.652204 0.988200 -0.597446

loop_
_geom_bond_atom_site_label_1
_geom_bond_atom_site_label_2
_ccdc_geom_bond_type
C6    O10   S    
C37   O9    D    
O8    Zn2   S    
C16   C21   A    
C29   H6    S    
C39   H21   S    
C19   C20   A    
C40   H25   S    
C4    C8    A    
C20   H5    S    
N1    Zn2   S    
C1    C18   S    
C1    O1    A    
C40   H24   S    
C7    H16   S    
C18   C19   A    
C3    C7    A    
C5    C6    A    
C27   N2    A    
C29   N1    A    
C15   C16   A    
C34   C35   A    
O7    Zn1   S    
C9    C32   A    
C12   O4    A    
C35   C36   A    
C16   C17   A    
O1    Zn1   S    
C38   H19   S    
C5    C32   A    
C12   O3    A    
C19   H17   S    
C37   H18   S    
C22   C28   A    
C13   C14   A    
C9    C33   A    
C39   H22   S    
C31   O7    A    
O3    Zn1   S    
C23   O5    A    
C31   C33   S    
C31   O8    A    
C30   H11   S    
C40   H23   S    
C14   C37   S    
C41   O11   D    
C28   N1    A    
C41   H26   S    
C25   C26   A    
C11   H2    S    
C2    C4    A    
C8    H12   S    
C29   C30   A    
C1    O2    A    
C32   C41   S    
C22   H7    S    
N2    Zn1   S    
C38   C39   S    
C9    H1    S    
C17   C18   A    
C26   C27   A    
C10   C34   A    
C24   C25   A    
C10   C12   S    
C21   C23   S    
C35   H15   S    
C24   H8    S    
C39   C40   S    
C22   C24   A    
C25   H9    S    
C36   H14   S    
C2    C36   A    
C11   C17   A    
C34   H13   S    
O2    Zn2   S    
C4    C5    A    
C6    C7    A    
C30   N2    A    
O5    Zn1   S    
C2    C3    A    
C3    C10   A    
O4    Zn2   S    
C11   C13   A    
C8    C33   A    
O10   C38   S    
C15   H4    S    
C13   H3    S    
C26   H10   S    
O6    Zn2   S    
C23   O6    A    
C20   C21   A    
C27   C28   A    
C14   C15   A    
C38   H20   S    
