data_mof_unit_41328.cif
_audit_creation_date              2012-12-10T19:31:28-0500
_audit_creation_method            fapswitch 2.2
_symmetry_space_group_name_H-M    P1
_symmetry_Int_Tables_number       1
_space_group_crystal_system       triclinic
_cell_length_a                    19.256021
_cell_length_b                    15.737971
_cell_length_c                    14.923145
_cell_angle_alpha                 90.201237
_cell_angle_beta                  89.964821
_cell_angle_gamma                 89.839744
_cell_volume                      4522.42307536

loop_
_atom_site_label
_atom_site_type_symbol
_atom_type_description
_atom_site_fract_x
_atom_site_fract_y
_atom_site_fract_z
_atom_type_partial_charge
C1    C     C_R   0.499847 0.337505 0.499845 0.894711
C2    C     C_3   0.502147 0.971931 0.416339 0.159949
C3    C     C_3   0.498301 0.082838 0.499735 0.144614
C4    C     C_3   0.498431 0.917315 0.500671 0.143889
C5    C     C_1   0.498645 0.173568 0.499400 -0.086130
C6    C     C_1   0.498850 0.826544 0.500843 -0.079697
C7    C     C_3   0.500415 0.418682 0.969434 -0.312541
C8    C     C_3   0.498491 0.581063 0.030365 -0.294979
C9    C     C_3   0.557541 0.459784 0.029268 -0.333861
C10   C     C_3   0.441358 0.539995 0.970522 -0.311897
C11   C     C_3   0.444355 0.459785 0.029953 0.594484
C12   C     C_R   0.499919 0.662522 0.500168 0.911980
C13   C     C_3   0.554498 0.540001 0.969876 0.596342
C14   C     C_3   0.500411 0.500120 0.089486 -0.000789
C15   C     C_3   0.498507 0.499691 0.910369 -0.005435
C16   C     C_R   0.365183 0.498844 0.500002 0.889013
C17   C     C_R   0.634994 0.499742 0.500114 0.898899
C18   C     C_1   0.500110 0.500050 0.189722 0.109360
C19   C     C_1   0.499310 0.499913 0.810231 0.116081
C20   C     C_R   0.252126 0.470837 0.575767 0.465911
C21   C     C_R   0.750372 0.500442 0.422722 0.470876
C22   C     C_R   0.180183 0.471342 0.572959 -0.285243
C23   C     C_3   0.553808 0.972044 0.547114 -0.207435
C24   C     C_R   0.822294 0.504870 0.428614 -0.298123
C25   C     C_R   0.145012 0.491612 0.493800 -0.018814
C26   C     C_R   0.855395 0.502569 0.511807 -0.010222
C27   C     C_R   0.182000 0.509851 0.414125 0.121501
C28   C     C_R   0.816984 0.499331 0.592297 0.120065
C29   C     C_R   0.254528 0.512968 0.418966 -0.269034
C30   C     C_R   0.744461 0.498662 0.585810 -0.270960
C31   C     C_R   0.289563 0.494834 0.499047 -0.189590
C32   C     C_R   0.710970 0.499788 0.502081 -0.186303
C33   C     C_R   0.930536 0.502125 0.511212 0.292016
C34   C     C_3   0.442900 0.028164 0.453326 -0.210923
C35   C     C_R   0.069626 0.494284 0.497833 0.296691
C36   C     C_3   0.294987 0.362364 0.658863 0.130721
C37   C     C_3   0.333454 0.340012 0.744605 -0.829341
C38   C     C_3   0.728996 0.420929 0.298285 0.125564
C39   C     C_3   0.686602 0.416788 0.212639 -0.832772
C40   C     C_3   0.660803 0.600903 0.000106 0.090467
C41   C     C_3   0.711704 0.667167 0.966258 -0.818015
C42   C     C_3   0.343251 0.387746 0.998315 0.085102
C43   C     C_3   0.282513 0.340102 0.039320 -0.821365
C44   C     C_3   0.143793 0.524943 0.325904 -0.398185
C45   C     C_3   0.557578 0.027935 0.461807 -0.209136
C46   C     C_3   0.188415 0.518211 0.240539 -0.362207
C47   C     C_3   0.143467 0.521679 0.156383 -0.875877
C48   C     C_3   0.854285 0.498665 0.682621 -0.401034
C49   C     C_3   0.807757 0.506709 0.766074 -0.359300
C50   C     C_3   0.851086 0.509829 0.851659 -0.878696
C51   C     C_3   0.506405 0.936491 0.321045 -0.427891
C52   C     C_3   0.509159 0.008080 0.251842 -0.338095
C53   C     C_3   0.513199 0.972506 0.156722 -0.876769
C54   C     C_3   0.490182 0.064148 0.679196 -0.432696
C55   C     C_3   0.487056 0.992926 0.748765 -0.333465
C56   C     C_3   0.439127 0.972208 0.538630 -0.211027
C57   C     C_3   0.482764 0.029029 0.843651 -0.880307
C58   C     C_1   0.499187 0.248742 0.499512 -0.190319
C59   C     C_1   0.499368 0.751340 0.500579 -0.179453
C60   C     C_3   0.494560 0.028274 0.584085 0.159676
H1    H     H_    0.151689 0.456754 0.633651 0.170572
H2    H     H_    0.393475 0.572087 0.946582 0.157369
H3    H     H_    0.500366 0.352138 0.944531 0.150430
H4    H     H_    0.499109 0.647662 0.055091 0.155725
H5    H     H_    0.326685 0.339527 0.600995 0.125735
H6    H     H_    0.244162 0.328678 0.659175 0.127687
H7    H     H_    0.302321 0.360209 0.803617 0.239921
H8    H     H_    0.342082 0.270291 0.747842 0.197871
H9    H     H_    0.384553 0.372511 0.746307 0.262007
H10   H     H_    0.711699 0.368233 0.342783 0.127303
H11   H     H_    0.784580 0.411412 0.280278 0.128647
H12   H     H_    0.852681 0.508081 0.367527 0.159812
H13   H     H_    0.696325 0.355459 0.177752 0.198980
H14   H     H_    0.630520 0.421607 0.228817 0.262305
H15   H     H_    0.701318 0.469738 0.167538 0.240726
H16   H     H_    0.690214 0.541841 0.015547 0.139006
H17   H     H_    0.636505 0.626057 0.062683 0.141502
H18   H     H_    0.683974 0.727801 0.952983 0.255056
H19   H     H_    0.752517 0.678542 0.017418 0.209221
H20   H     H_    0.736687 0.644830 0.903383 0.260773
H21   H     H_    0.371605 0.343142 0.953147 0.140094
H22   H     H_    0.322060 0.441624 0.958593 0.145292
H23   H     H_    0.284501 0.530251 0.360658 0.180663
H24   H     H_    0.252750 0.382831 0.084646 0.259649
H25   H     H_    0.247512 0.316966 0.985441 0.205063
H26   H     H_    0.301828 0.284803 0.078155 0.257750
H27   H     H_    0.107423 0.466721 0.154365 0.260070
H28   H     H_    0.112941 0.581658 0.154950 0.265682
H29   H     H_    0.177148 0.519218 0.095996 0.253503
H30   H     H_    0.225585 0.572038 0.237865 0.226131
H31   H     H_    0.217831 0.457309 0.240443 0.236083
H32   H     H_    0.101777 0.476871 0.320152 0.210701
H33   H     H_    0.119528 0.589052 0.328007 0.216350
H34   H     H_    0.713288 0.496986 0.645906 0.183966
H35   H     H_    0.883643 0.451725 0.857415 0.263738
H36   H     H_    0.885113 0.566707 0.851651 0.263163
H37   H     H_    0.816180 0.513373 0.910816 0.252685
H38   H     H_    0.776244 0.565859 0.762038 0.232830
H39   H     H_    0.772532 0.451013 0.770238 0.227550
H40   H     H_    0.884039 0.438351 0.688161 0.216438
H41   H     H_    0.891815 0.552260 0.683625 0.209841
H42   H     H_    0.560745 0.933113 0.148405 0.261895
H43   H     H_    0.466782 0.933120 0.141950 0.261225
H44   H     H_    0.515106 0.025668 0.108054 0.250736
H45   H     H_    0.605560 0.052580 0.429977 0.136654
H46   H     H_    0.461928 0.048487 0.257821 0.224026
H47   H     H_    0.555455 0.048468 0.264286 0.222113
H48   H     H_    0.553726 0.896247 0.315285 0.206990
H49   H     H_    0.460134 0.896090 0.308614 0.205468
H50   H     H_    0.529224 0.068327 0.858460 0.260434
H51   H     H_    0.435288 0.068649 0.851447 0.259556
H52   H     H_    0.480552 0.976143 0.892628 0.252666
H53   H     H_    0.440713 0.952627 0.736299 0.223533
H54   H     H_    0.534226 0.952354 0.743257 0.224790
H55   H     H_    0.536533 0.104420 0.691608 0.205657
H56   H     H_    0.391149 0.947551 0.570456 0.138865
H57   H     H_    0.442964 0.104635 0.684570 0.201822
H58   H     H_    0.598675 0.947257 0.585815 0.139913
H59   H     H_    0.398028 0.053005 0.414673 0.137652
H60   H     H_    0.605381 0.427165 0.052202 0.154436
N1    N     N_R   0.034027 0.558117 0.457998 -0.187548
N2    N     N_R   0.966020 0.438560 0.551554 -0.190151
N3    N     N_R   0.965368 0.561566 0.463863 -0.170114
N4    N     N_R   0.034680 0.435011 0.545469 -0.181502
N5    N     N_1   0.500020 0.500000 0.268010 -0.093025
N6    N     N_1   0.499980 0.500000 0.731990 -0.093533
O1    O     O_R   0.500000 0.376780 0.574460 -0.620916
O2    O     O_3   0.718700 0.500944 0.339539 -0.590416
O3    O     O_3   0.611197 0.584326 0.932835 -0.613934
O4    O     O_3   0.386798 0.417502 0.067474 -0.611952
O5    O     O_R   0.500000 0.623220 0.425540 -0.613278
O6    O     O_R   0.500010 0.376780 0.425520 -0.611799
O7    O     O_R   0.499990 0.623220 0.574480 -0.606167
O8    O     O_R   0.398130 0.499990 0.574490 -0.563232
O9    O     O_R   0.601870 0.500010 0.425510 -0.561455
O10   O     O_R   0.398140 0.499990 0.425550 -0.627434
O11   O     O_R   0.601860 0.500010 0.574450 -0.629648
O12   O     O_3   0.285131 0.451236 0.655326 -0.592407
Zn1   Zn    Zn3+2 0.499990 0.500000 0.599450 0.990294
Zn2   Zn    Zn3+2 0.500010 0.500000 0.400550 0.991910

loop_
_geom_bond_atom_site_label_1
_geom_bond_atom_site_label_2
_ccdc_geom_bond_type
C40   O3    S    
C38   H10   S    
C34   C56   S    
C8    C13   S    
C23   C45   S    
C12   O5    A    
C37   H9    S    
C27   C29   A    
C14   C18   S    
C42   H22   S    
O10   Zn2   S    
C1    O6    A    
C16   O8    A    
C41   H20   S    
C54   C60   S    
C16   C31   S    
C15   C19   S    
O11   Zn1   S    
C5    C58   T    
C35   N4    A    
C24   C26   A    
C29   H23   S    
C10   C15   S    
C18   N5    T    
C38   C39   S    
C11   C14   S    
C36   H6    S    
C50   H35   S    
C57   H52   S    
C53   H44   S    
C37   H8    S    
C39   H14   S    
C20   O12   S    
C9    C13   S    
O5    Zn2   S    
C49   H38   S    
C46   C47   S    
C12   C59   S    
C27   C44   S    
C52   H47   S    
C45   H45   S    
C51   H48   S    
C22   C25   A    
C17   O9    A    
C44   H33   S    
C39   H15   S    
C44   H32   S    
C3    C60   S    
C2    C34   S    
C7    C15   S    
C52   H46   S    
C51   H49   S    
C4    C56   S    
C43   H24   S    
C47   H29   S    
C23   C60   S    
C42   H21   S    
O1    Zn1   S    
C23   H58   S    
C44   C46   S    
C7    C11   S    
N5    Zn2   S    
O9    Zn2   S    
C48   H40   S    
C21   C32   A    
N6    Zn1   S    
C51   C52   S    
C43   H25   S    
C35   N1    A    
C4    C6    S    
C2    C51   S    
C41   H18   S    
C4    C23   S    
C36   H5    S    
C30   H34   S    
C46   H31   S    
C55   H53   S    
C3    C34   S    
C3    C45   S    
C56   C60   S    
C47   H27   S    
C2    C4    S    
C9    C14   S    
C49   H39   S    
C26   C33   S    
C57   H50   S    
C13   C15   S    
C53   H42   S    
C54   H55   S    
C56   H56   S    
C42   O4    S    
C21   O2    S    
C7    H3    S    
C8    H4    S    
C8    C10   S    
C40   C41   S    
C25   C35   S    
O7    Zn1   S    
C12   O7    A    
C2    C45   S    
C33   N2    A    
C10   H2    S    
O6    Zn2   S    
C42   C43   S    
C21   C24   A    
N2    N4    A    
C16   O10   A    
C11   O4    S    
O8    Zn1   S    
C52   C53   S    
C24   H12   S    
C34   H59   S    
C7    C9    S    
C54   C55   S    
C28   C48   S    
C50   H37   S    
C8    C14   S    
C43   H26   S    
C6    C59   T    
C1    O1    A    
C20   C22   A    
C3    C5    S    
C41   H19   S    
C38   O2    S    
C46   H30   S    
C55   H54   S    
C25   C27   A    
C19   N6    T    
C26   C28   A    
C9    H60   S    
C47   H28   S    
C55   C57   S    
C29   C31   A    
C1    C58   S    
C22   H1    S    
C30   C32   A    
C50   H36   S    
C57   H51   S    
C53   H43   S    
C48   C49   S    
C48   H41   S    
C37   H7    S    
C28   C30   A    
C39   H13   S    
N1    N3    A    
C10   C11   S    
C40   H16   S    
C36   C37   S    
C49   C50   S    
C54   H57   S    
C33   N3    A    
C17   C32   S    
C13   O3    S    
C40   H17   S    
C17   O11   A    
C36   O12   S    
C38   H11   S    
C20   C31   A    
