data_mof_unit_53770.cif
_audit_creation_date              2012-10-26T19:04:45-0400
_audit_creation_method            fapswitch 2.2
_symmetry_space_group_name_H-M    P1
_symmetry_Int_Tables_number       1
_space_group_crystal_system       triclinic
_cell_length_a                    9.610267
_cell_length_b                    10.843692
_cell_length_c                    13.49203
_cell_angle_alpha                 92.288885
_cell_angle_beta                  73.330488
_cell_angle_gamma                 88.929856
_cell_volume                      1345.18586324

loop_
_atom_site_label
_atom_site_type_symbol
_atom_type_description
_atom_site_fract_x
_atom_site_fract_y
_atom_site_fract_z
_atom_type_partial_charge
C1    C     C_R   0.499320 0.737974 0.495851 0.546866
C2    C     C_R   0.384728 0.457480 0.809028 -0.003114
C3    C     C_R   0.232090 0.897741 0.499990 -0.185358
C4    C     C_R   0.424426 0.485909 0.698093 0.561949
C5    C     C_R   0.099027 0.963691 0.538448 0.225859
C6    C     C_R   0.094685 0.075889 0.593222 0.524518
C7    C     C_R   0.222608 0.128218 0.601580 0.246601
C8    C     C_R   0.359464 0.069178 0.549206 -0.097485
C9    C     C_R   0.361762 0.944575 0.514503 -0.064479
C10   C     C_R   0.494001 0.873559 0.495388 -0.039261
C11   C     C_R   0.622956 0.933137 0.491335 -0.057891
C12   C     C_R   0.445139 0.456553 0.973726 -0.000998
C13   C     C_R   0.624697 0.059542 0.506622 0.226175
C14   C     C_R   0.493375 0.130276 0.528093 -0.019597
C15   C     C_R   0.912562 0.332678 0.365703 -0.055499
C16   C     C_R   0.497398 0.263463 0.510374 0.535100
C17   C     C_R   0.010957 0.246875 0.302842 -0.127405
C18   C     C_R   0.153623 0.244463 0.304442 -0.112655
C19   C     C_R   0.198923 0.328799 0.368009 -0.008209
C20   C     C_R   0.102047 0.416320 0.434978 0.149369
C21   C     C_R   0.953001 0.417253 0.434362 0.109942
C22   C     C_R   0.898230 0.578721 0.563816 0.369385
C23   C     C_R   0.490823 0.443876 0.864015 0.003012
C24   C     C_R   0.047479 0.578513 0.562949 0.027645
C25   C     C_R   0.577455 0.499814 0.300391 0.554581
C26   C     C_R   0.796283 0.532187 0.022195 -0.121716
C27   C     C_R   0.620366 0.499611 0.186818 0.027332
C28   C     C_R   0.236816 0.454044 0.863461 -0.118064
C29   C     C_R   0.193183 0.452152 0.970621 -0.145446
C30   C     C_R   0.294523 0.462219 0.025404 -0.066400
C31   C     C_R   0.552010 0.470384 0.027112 -0.011702
C32   C     C_R   0.697057 0.491656 0.970394 -0.017055
C33   C     C_R   0.742727 0.461574 0.864247 0.375947
C34   C     C_R   0.641179 0.420759 0.814387 0.299288
C35   C     C_R   0.520517 0.462182 0.134529 0.356821
C36   C     C_R   0.757363 0.538267 0.130185 -0.210885
Cu1   Cu    Cu3+1 0.359340 0.500010 0.500010 0.993769
Cu2   Cu    Cu3+1 0.640660 0.499990 0.499990 1.030219
F1    F     F_    0.964915 0.134230 0.639837 -0.568037
F2    F     F_    0.886447 0.460622 0.811712 -0.654449
F3    F     F_    0.402116 0.401818 0.186504 -0.691256
H1    H     H_    0.835272 0.569770 0.169074 0.135030
H2    H     H_    0.250737 0.479226 0.107818 0.195317
H3    H     H_    0.079554 0.449701 0.012583 0.127771
H4    H     H_    0.724636 0.881136 0.476860 0.200713
H5    H     H_    0.991972 0.838530 0.486674 0.302537
H6    H     H_    0.297786 0.236060 0.690539 0.314888
H7    H     H_    0.741468 0.167185 0.562831 0.397753
H8    H     H_    0.846380 0.709597 0.671693 0.321508
H9    H     H_    0.792175 0.337661 0.701125 0.407035
H10   H     H_    0.232316 0.813659 0.454654 0.150458
H11   H     H_    0.806403 0.328553 0.357196 0.192310
H12   H     H_    0.976280 0.182550 0.251852 0.137526
H13   H     H_    0.230891 0.178563 0.254314 0.151834
H14   H     H_    0.312080 0.323251 0.358976 0.221023
H15   H     H_    0.082439 0.642438 0.613994 0.124693
H16   H     H_    0.903297 0.559502 0.978863 0.169453
H17   H     H_    0.154115 0.457218 0.823473 0.225697
N1    N     N_R   0.852480 0.498790 0.499000 -0.218574
N2    N     N_R   0.148360 0.498710 0.498970 -0.263061
O1    O     O_R   0.381190 0.680360 0.500010 -0.525025
O2    O     O_3   0.208820 0.231166 0.667602 -0.607568
O3    O     O_3   0.756733 0.110029 0.501271 -0.624818
O4    O     O_3   0.797293 0.658903 0.629740 -0.635623
O5    O     O_3   0.684792 0.346800 0.724310 -0.655189
O6    O     O_R   0.618760 0.680340 0.500000 -0.463409
O7    O     O_R   0.323240 0.499990 0.650990 -0.487738
O8    O     O_R   0.560820 0.499960 0.650980 -0.403752
O9    O     O_R   0.381240 0.319660 0.500000 -0.508457
O10   O     O_R   0.618810 0.319640 0.499990 -0.505578
O11   O     O_R   0.439180 0.500040 0.349020 -0.472614
O12   O     O_R   0.676760 0.500010 0.349010 -0.556839
O13   O     O_3   0.971004 0.918448 0.527200 -0.634717

loop_
_geom_bond_atom_site_label_1
_geom_bond_atom_site_label_2
_ccdc_geom_bond_type
Cu2   O10   S    
C26   C32   A    
Cu1   O9    S    
C36   H1    S    
C19   C20   A    
H6    O2    S    
C7    C8    A    
C12   C23   A    
C29   C30   A    
C28   C29   A    
C21   N1    A    
C5    C6    A    
C18   C19   A    
Cu2   O6    S    
C8    C9    A    
C25   O11   A    
C20   N2    A    
C9    C10   A    
H8    O4    S    
C13   C14   A    
C34   O5    S    
H9    O5    S    
C33   C34   A    
Cu2   O12   S    
C33   F2    S    
C1    C10   S    
C16   O10   A    
C22   N1    A    
C4    O8    A    
C3    H10   S    
H7    O3    S    
C27   C35   A    
C1    O6    A    
C2    C4    S    
C7    O2    S    
Cu1   Cu2   S    
C3    C9    A    
C31   C32   A    
C13   O3    S    
C24   N2    A    
C23   C34   A    
C17   C18   A    
C25   O12   A    
C15   H11   S    
C26   C36   A    
Cu2   O8    S    
Cu1   O11   S    
C12   C31   A    
C14   C16   S    
C30   H2    S    
C11   H4    S    
C25   C27   S    
C17   H12   S    
C19   H14   S    
C15   C17   A    
C8    C14   A    
C12   C30   A    
C16   O9    A    
C3    C5    A    
C1    O1    A    
C4    O7    A    
Cu1   O1    S    
C6    C7    A    
C28   H17   S    
C27   C36   A    
C24   H15   S    
C32   C33   A    
C29   H3    S    
C11   C13   A    
Cu1   O7    S    
C31   C35   A    
C22   C24   A    
C5    O13   S    
C35   F3    S    
C26   H16   S    
Cu1   N2    S    
C10   C11   A    
C18   H13   S    
C22   O4    S    
Cu2   N1    S    
C15   C21   A    
C20   C21   A    
C2    C23   A    
C6    F1    S    
C2    C28   A    
H5    O13   S    
