data_mof_unit_68166.cif
_audit_creation_date              2012-12-11T16:27:31-0500
_audit_creation_method            fapswitch 2.2
_symmetry_space_group_name_H-M    P1
_symmetry_Int_Tables_number       1
_space_group_crystal_system       triclinic
_cell_length_a                    22.062905
_cell_length_b                    7.142029
_cell_length_c                    15.161373
_cell_angle_alpha                 90.145717
_cell_angle_beta                  107.039106
_cell_angle_gamma                 89.377839
_cell_volume                      2284.03479526

loop_
_atom_site_label
_atom_site_type_symbol
_atom_type_description
_atom_site_fract_x
_atom_site_fract_y
_atom_site_fract_z
_atom_type_partial_charge
O1    O     O_R   0.835850 0.638310 0.002120 -0.551892
O2    O     O_R   0.164150 0.361690 0.997880 -0.524409
O3    O     O_R   0.664150 0.138310 0.997880 -0.538284
O4    O     O_R   0.335850 0.861690 0.002120 -0.537867
O5    O     O_R   0.717530 0.306070 0.861970 -0.521867
O6    O     O_R   0.282470 0.693930 0.138030 -0.531689
O7    O     O_R   0.782470 0.806070 0.138030 -0.519980
O8    O     O_R   0.217530 0.193930 0.861970 -0.522998
C1    C     C_R   0.707314 0.477320 0.826282 0.762762
C2    C     C_R   0.301900 0.523650 0.171039 0.746942
C3    C     C_R   0.798106 0.975463 0.172541 0.728580
C4    C     C_R   0.206070 0.022967 0.826250 0.761684
O9    O     O_R   0.838690 0.308440 0.993250 -0.542636
O10   O     O_R   0.161310 0.691560 0.006750 -0.559513
O11   O     O_R   0.661310 0.808440 0.006750 -0.539412
O12   O     O_R   0.338690 0.191560 0.993250 -0.560227
O13   O     O_R   0.786170 0.140510 0.130090 -0.536810
O14   O     O_R   0.213830 0.859490 0.869910 -0.528556
O15   O     O_R   0.713830 0.640510 0.869910 -0.525477
O16   O     O_R   0.286170 0.359490 0.130090 -0.521291
C5    C     C_R   0.865588 0.478875 0.000471 0.742559
C6    C     C_R   0.134793 0.524542 0.003510 0.741485
C7    C     C_R   0.635680 0.980495 0.007220 0.739322
C8    C     C_R   0.365938 0.025352 0.002050 0.738548
O17   O     O_3   0.732630 0.472520 0.044740 -0.371459
O18   O     O_3   0.267370 0.527480 0.955260 -0.379597
O19   O     O_3   0.767370 0.972520 0.955260 -0.379833
O20   O     O_3   0.232630 0.027480 0.044740 -0.365594
V1    V     V_3+5 0.753220 0.196740 0.991700 1.477998
V2    V     V_3+5 0.246780 0.803260 0.008300 1.482588
V3    V     V_3+5 0.746780 0.696740 0.008300 1.477120
V4    V     V_3+5 0.253220 0.303260 0.991700 1.497702
C9    C     C_R   0.519402 0.025499 0.832490 0.020308
C10   C     C_R   0.474272 0.019155 0.187000 -0.000508
C11   C     C_R   0.975607 0.498993 0.183581 -0.002629
C12   C     C_R   0.017696 0.529138 0.826887 0.013952
C13   C     C_R   0.467074 0.094164 0.759173 0.143468
C14   C     C_R   0.524530 0.045470 0.268668 0.124996
C15   C     C_R   0.026367 0.538054 0.263630 0.108634
C16   C     C_R   0.963997 0.585910 0.753047 0.145444
C17   C     C_R   0.419713 0.203581 0.779474 0.187955
C18   C     C_R   0.584788 0.092508 0.264001 0.156655
C19   C     C_R   0.083853 0.605159 0.255334 0.204098
C20   C     C_R   0.912852 0.676056 0.772918 0.190836
C21   C     C_R   0.420604 0.224185 0.870965 0.030847
C22   C     C_R   0.596122 0.109263 0.177435 0.030575
C23   C     C_R   0.090159 0.637903 0.166926 0.020675
C24   C     C_R   0.911986 0.687239 0.864224 0.025366
C25   C     C_R   0.456300 0.093098 0.936000 -0.027549
C26   C     C_R   0.551469 0.035669 0.096075 0.010386
C27   C     C_R   0.048791 0.546994 0.089187 -0.029742
C28   C     C_R   0.951867 0.565017 0.929352 -0.021201
C29   C     C_R   0.515576 0.032926 0.925921 -0.019825
C30   C     C_R   0.486383 0.019097 0.098492 -0.022219
C31   C     C_R   0.985752 0.505594 0.093751 -0.008640
C32   C     C_R   0.013289 0.530418 0.919947 -0.006654
C33   C     C_R   0.436853 0.031894 0.012477 -0.135273
C34   C     C_R   0.566858 0.003640 0.009594 -0.119427
C35   C     C_R   0.065246 0.523181 0.003691 -0.136285
C36   C     C_R   0.935562 0.501347 0.008227 -0.134450
C37   C     C_R   0.176371 0.018215 0.726289 -0.083248
C38   C     C_R   0.831699 0.981540 0.270916 -0.072057
C39   C     C_R   0.337360 0.516829 0.269087 -0.080663
C40   C     C_R   0.679495 0.489300 0.726361 -0.080287
C41   C     C_R   0.189947 0.035237 0.575034 -0.088995
C42   C     C_R   0.822982 0.990289 0.424136 -0.097695
C43   C     C_R   0.328796 0.526494 0.422390 -0.099176
C44   C     C_R   0.695230 0.509381 0.576444 -0.082615
C45   C     C_R   0.214585 0.997233 0.668273 0.152433
C46   C     C_R   0.797971 0.941307 0.332765 0.133989
C47   C     C_R   0.303544 0.481423 0.330971 0.154247
C48   C     C_R   0.718133 0.464631 0.669126 0.150527
C49   C     C_R   0.109508 0.026249 0.689005 0.085008
C50   C     C_R   0.898542 0.006183 0.303249 0.114777
C51   C     C_R   0.404568 0.535002 0.301239 0.105047
C52   C     C_R   0.613211 0.510427 0.687930 0.084121
C53   C     C_R   0.082844 0.060948 0.591539 0.077333
C54   C     C_R   0.926828 0.045305 0.400212 0.082261
C55   C     C_R   0.433349 0.567978 0.398817 0.088131
C56   C     C_R   0.588448 0.554136 0.591315 0.074640
C57   C     C_R   0.125206 0.072611 0.536972 0.085566
C58   C     C_R   0.885502 0.050963 0.456970 0.076856
C59   C     C_R   0.392008 0.577815 0.455620 0.077045
C60   C     C_R   0.631548 0.558827 0.537882 0.083889
C61   C     C_R   0.016286 0.075525 0.544540 0.104743
C62   C     C_R   0.993549 0.069796 0.445813 0.117031
C63   C     C_R   0.500342 0.581658 0.445205 0.111682
C64   C     C_R   0.522584 0.581106 0.543859 0.101859
C65   C     C_R   0.037897 0.104252 0.397945 -0.143176
C66   C     C_R   0.971993 0.112481 0.592110 -0.131609
C67   C     C_R   0.478839 0.622641 0.591548 -0.132255
C68   C     C_R   0.545876 0.609253 0.398749 -0.138335
C69   C     C_R   0.102286 0.108816 0.442864 -0.078041
C70   C     C_R   0.907865 0.102857 0.548901 -0.072751
C71   C     C_R   0.414790 0.622548 0.548198 -0.068441
C72   C     C_R   0.610018 0.598791 0.444131 -0.076971
H1    H     H_    0.134733 0.134988 0.403083 0.166136
H2    H     H_    0.875468 0.130911 0.588733 0.190247
H3    H     H_    0.382684 0.653913 0.588252 0.188876
H4    H     H_    0.643014 0.612232 0.404384 0.179783
H5    H     H_    0.220861 0.024787 0.531245 0.186998
H6    H     H_    0.794758 0.969758 0.470846 0.199694
H7    H     H_    0.300359 0.507226 0.469018 0.195761
H8    H     H_    0.726542 0.495557 0.533390 0.188321
H9    H     H_    0.023413 0.143011 0.326483 0.157884
H10   H     H_    0.986229 0.157014 0.662783 0.174530
H11   H     H_    0.493638 0.662650 0.662844 0.176746
H12   H     H_    0.533242 0.649783 0.328073 0.158305
I1    I     I_    0.657489 0.157637 0.390772 -0.407431
I2    I     I_    0.343965 0.335999 0.675188 -0.384565
I3    I     I_    0.836172 0.802865 0.668654 -0.397612
I4    I     I_    0.157712 0.687405 0.376974 -0.400749
I5    I     I_    0.599661 0.923833 0.793248 -0.378186
I6    I     I_    0.383231 0.979567 0.210462 -0.333472
I7    I     I_    0.886472 0.437662 0.210117 -0.345442
I8    I     I_    0.099408 0.444119 0.788035 -0.381375
I9    I     I_    0.460385 0.065843 0.616692 -0.339495
I10   I     I_    0.507408 0.063586 0.401555 -0.322082
I11   I     I_    0.012232 0.553014 0.398348 -0.330474
I12   I     I_    0.960528 0.568331 0.610920 -0.336612
C73   C     C_3   0.396269 0.407044 0.901002 -0.258724
C74   C     C_3   0.429798 0.580781 0.881713 -0.759822
H13   H     H_    0.405647 0.706884 0.898354 0.245371
H14   H     H_    0.479437 0.581887 0.927029 0.218941
H15   H     H_    0.428207 0.590264 0.808259 0.264208
H16   H     H_    0.344569 0.421922 0.867225 0.239560
H17   H     H_    0.405664 0.411141 0.976348 0.190453
C75   C     C_3   0.643652 0.257090 0.170716 -0.295391
C76   C     C_3   0.611022 0.423072 0.111191 -0.665165
H18   H     H_    0.588165 0.381948 0.038653 0.216456
H19   H     H_    0.574865 0.484986 0.140326 0.209592
H20   H     H_    0.645888 0.533836 0.112647 0.253650
H21   H     H_    0.668316 0.320739 0.237669 0.223459
H22   H     H_    0.682868 0.195525 0.150186 0.202777
C77   C     C_3   0.121948 0.818179 0.151175 -0.275940
C78   C     C_3   0.105605 0.988977 0.200603 -0.738600
H23   H     H_    0.060186 0.971679 0.214784 0.228332
H24   H     H_    0.141679 0.006547 0.267190 0.272131
H25   H     H_    0.103665 0.118452 0.159230 0.232517
H26   H     H_    0.174170 0.798471 0.170543 0.230399
H27   H     H_    0.102801 0.860037 0.077879 0.193926
C79   C     C_3   0.887064 0.867095 0.895504 -0.256249
C80   C     C_3   0.923390 0.038958 0.880608 -0.749428
H28   H     H_    0.971671 0.037247 0.930178 0.214775
H29   H     H_    0.925886 0.047244 0.808852 0.259184
H30   H     H_    0.899183 0.167089 0.894158 0.250289
H31   H     H_    0.835933 0.884593 0.858854 0.237615
H32   H     H_    0.894144 0.868263 0.970416 0.194005
C81   C     C_3   0.935720 0.922646 0.241588 -0.373532
C82   C     C_3   0.939475 0.029326 0.156548 -0.770165
H33   H     H_    0.892575 0.072964 0.112089 0.260651
H34   H     H_    0.971158 0.149175 0.175736 0.242448
H35   H     H_    0.960359 0.935571 0.114455 0.211443
H36   H     H_    0.982960 0.872900 0.280707 0.206399
H37   H     H_    0.911017 0.796682 0.212435 0.224449
C83   C     C_3   0.072953 0.926911 0.746023 -0.360752
C84   C     C_3   0.063397 0.020529 0.831718 -0.729718
H38   H     H_    0.107567 0.076222 0.878812 0.246703
H39   H     H_    0.026837 0.131668 0.813320 0.239405
H40   H     H_    0.046879 0.913024 0.871680 0.212811
H41   H     H_    0.027877 0.871256 0.703807 0.219064
H42   H     H_    0.101662 0.804752 0.772901 0.230881
C85   C     C_3   0.573823 0.410465 0.740401 -0.359231
C86   C     C_3   0.564979 0.495995 0.828288 -0.731317
H43   H     H_    0.609365 0.541261 0.878409 0.251804
H44   H     H_    0.530673 0.612538 0.811785 0.239185
H45   H     H_    0.545081 0.389571 0.864333 0.213471
H46   H     H_    0.527769 0.369115 0.695769 0.221068
H47   H     H_    0.598881 0.280066 0.761710 0.231073
C87   C     C_3   0.440738 0.451609 0.238188 -0.367848
C88   C     C_3   0.449963 0.569957 0.160208 -0.769914
H48   H     H_    0.486864 0.674602 0.185250 0.238330
H49   H     H_    0.467759 0.477360 0.114478 0.205090
H50   H     H_    0.404901 0.633257 0.118324 0.251928
H51   H     H_    0.486083 0.387374 0.276965 0.211793
H52   H     H_    0.412676 0.336025 0.201377 0.215712
I13   I     I_    0.718641 0.760559 0.294716 -0.430976
I14   I     I_    0.303219 0.857088 0.715032 -0.385072
I15   I     I_    0.805184 0.317239 0.715378 -0.405239
I16   I     I_    0.226346 0.299178 0.294266 -0.396614

loop_
_geom_bond_atom_site_label_1
_geom_bond_atom_site_label_2
_ccdc_geom_bond_type
O17   V3    S    
C80   H30   S    
C88   H48   S    
C25   C29   A    
O1    C5    A    
C84   H38   S    
C58   C70   A    
O19   V1    S    
C1    C40   S    
O13   V1    S    
C42   H6    S    
O3    C7    A    
C2    C39   S    
C68   C72   A    
C56   C60   A    
C3    C38   S    
O15   V3    S    
C75   C76   S    
C55   C63   A    
C43   H7    S    
C77   C78   S    
C87   H52   S    
C61   C62   A    
O7    C3    A    
C88   H49   S    
C26   C30   A    
C51   C55   A    
C22   C75   S    
C86   H43   S    
C18   I1    S    
C73   H17   S    
C75   H22   S    
C18   C22   A    
O4    C8    A    
C71   H3    S    
C87   C88   S    
C70   H2    S    
C37   C45   A    
C80   H28   S    
O1    V3    S    
C25   C33   A    
C38   C46   A    
O2    V4    S    
C60   C72   A    
O3    V1    S    
C15   I11   S    
C28   C36   A    
C68   H12   S    
C85   C86   S    
C2    O16   A    
C8    C33   S    
C82   H35   S    
O2    C6    A    
C50   C81   S    
C11   I7    S    
O14   V2    S    
C21   C25   A    
C16   C20   A    
C27   C31   A    
C44   C48   A    
C76   H20   S    
C54   C62   A    
O11   C7    A    
C83   H42   S    
O12   C8    A    
C31   C36   A    
O17   V1    S    
O10   V2    S    
C78   H25   S    
O20   V4    S    
C1    O15   A    
C66   C70   A    
O5    V1    S    
C87   H51   S    
C9    C29   A    
C77   H26   S    
C88   H50   S    
O7    V3    S    
C77   H27   S    
C11   C31   A    
C44   C60   A    
C67   H11   S    
C12   C16   A    
C66   H10   S    
C5    C36   S    
C78   H24   S    
C6    C35   S    
O18   V4    S    
C15   C19   A    
C21   C73   S    
O19   V3    S    
O6    V2    S    
C65   C69   A    
C9    C13   A    
C26   C34   A    
C47   I16   S    
C63   C64   A    
C11   C15   A    
C81   H36   S    
O5    C1    A    
C12   C32   A    
C79   H32   S    
C45   I14   S    
C42   C58   A    
C57   C69   A    
C54   C58   A    
C41   C57   A    
C64   C67   A    
C53   C57   A    
O8    C4    A    
C10   I6    S    
C59   C71   A    
C51   C87   S    
C40   C52   A    
C24   C79   S    
C43   C59   A    
O11   V3    S    
C73   C74   S    
C41   H5    S    
C16   I12   S    
C39   C47   A    
C83   H41   S    
O18   V2    S    
C84   H40   S    
C17   I2    S    
C82   H34   S    
C61   C66   A    
C27   C35   A    
C19   I4    S    
C74   H14   S    
C12   I8    S    
C69   H1    S    
C63   C68   A    
C76   H18   S    
O16   V4    S    
O9    V1    S    
C80   H29   S    
C3    O13   A    
C49   C53   A    
C23   C77   S    
C10   C14   A    
C79   H31   S    
C86   H45   S    
C52   C56   A    
C78   H23   S    
C62   C65   A    
O6    C2    A    
C23   C27   A    
C29   C34   A    
C46   I13   S    
C10   C30   A    
O12   V4    S    
C22   C26   A    
C9    I5    S    
C32   C35   A    
C37   C49   A    
C65   H9    S    
O10   C6    A    
C74   H15   S    
C86   H44   S    
C85   H46   S    
C81   H37   S    
C73   H16   S    
C56   C64   A    
C81   C82   S    
O9    C5    A    
C55   C59   A    
C4    C37   S    
C42   C46   A    
O8    V4    S    
C39   C51   A    
C41   C45   A    
C72   H4    S    
C49   C83   S    
O20   V2    S    
C13   I9    S    
C7    C34   S    
C43   C47   A    
C40   C48   A    
C13   C17   A    
C85   H47   S    
C14   C18   A    
C53   C61   A    
C14   I10   S    
C20   I3    S    
C28   C32   A    
C24   C28   A    
C83   C84   S    
C67   C71   A    
C84   H39   S    
C50   C54   A    
C4    O14   A    
C79   C80   S    
C17   C21   A    
C82   H33   S    
C38   C50   A    
C52   C85   S    
C44   H8    S    
C48   I15   S    
C74   H13   S    
C75   H21   S    
C19   C23   A    
O4    V2    S    
C20   C24   A    
C76   H19   S    
C30   C33   A    
