data_mof_unit_22248.cif
_audit_creation_date              2013-03-05T16:44:16-0500
_audit_creation_method            fapswitch 2.2
_symmetry_space_group_name_H-M    P1
_symmetry_Int_Tables_number       1
_space_group_crystal_system       triclinic
_cell_length_a                    23.436307
_cell_length_b                    10.668346
_cell_length_c                    9.879226
_cell_angle_alpha                 89.841252
_cell_angle_beta                  89.869851
_cell_angle_gamma                 89.855517
_cell_volume                      2470.04593599

loop_
_atom_site_label
_atom_site_type_symbol
_atom_site_description
_atom_site_fract_x
_atom_site_fract_y
_atom_site_fract_z
_atom_type_partial_charge
O1    O     O_R   0.500010 0.316790 0.614690 -0.626971
O2    O     O_R   0.500000 0.316760 0.385350 -0.617548
C1    C     C_R   0.500179 0.260423 0.499996 0.932257
O3    O     O_R   0.416160 0.499980 0.614700 -0.611512
O4    O     O_R   0.416150 0.499940 0.385360 -0.618549
C2    C     C_R   0.389457 0.500009 0.499973 0.916624
Zn1   Zn    Zn3+2 0.500000 0.500020 0.653130 0.965501
Zn2   Zn    Zn3+2 0.500000 0.499980 0.346870 0.971938
O5    O     O_R   0.500000 0.683240 0.614650 -0.621414
O6    O     O_R   0.499990 0.683210 0.385310 -0.580238
O7    O     O_R   0.583850 0.500060 0.614640 -0.591346
O8    O     O_R   0.583840 0.500020 0.385300 -0.634078
C3    C     C_R   0.501247 0.739669 0.499429 0.938507
C4    C     C_R   0.610627 0.501647 0.499822 0.926063
C5    C     C_R   0.880976 0.615766 0.485428 0.582590
N1    N     N_R   0.852502 0.504310 0.486505 -0.338624
C6    C     C_R   0.880281 0.391480 0.483971 0.523478
C7    C     C_R   0.940168 0.387202 0.480977 -0.142041
C8    C     C_R   0.970204 0.501991 0.483107 -0.085771
C9    C     C_R   0.940433 0.617080 0.485185 -0.009028
C10   C     C_R   0.970832 0.272703 0.476191 0.543270
C11   C     C_R   0.030504 0.274363 0.478901 -0.253885
C12   C     C_R   0.060299 0.387946 0.482100 -0.109591
C13   C     C_R   0.030189 0.502135 0.484182 -0.019382
C14   C     C_R   0.060023 0.616680 0.488706 0.002891
C15   C     C_R   0.029859 0.730376 0.489980 -0.155064
C16   C     C_R   0.970572 0.730570 0.487851 -0.159860
C17   C     C_R   0.119884 0.390348 0.483936 0.607781
N2    N     N_R   0.147979 0.502295 0.490583 -0.345585
C18   C     C_R   0.119558 0.614307 0.492978 0.491311
O9    O     O_2   0.851597 0.724804 0.484627 -0.538417
O10   O     O_2   0.849686 0.284507 0.485797 -0.501756
H1    H     H_    0.053302 0.185892 0.479784 0.206364
O11   O     O_2   0.149675 0.281995 0.478456 -0.521689
O12   O     O_2   0.148946 0.722721 0.500640 -0.550809
H2    H     H_    0.051901 0.819456 0.492999 0.196173
C19   C     C_R   0.239274 0.549723 0.384127 -0.171834
C20   C     C_R   0.298409 0.550160 0.386632 -0.202819
H3    H     H_    0.321394 0.589346 0.301342 0.150366
C21   C     C_R   0.327432 0.501228 0.498885 -0.089218
C22   C     C_R   0.296866 0.452652 0.608944 -0.306765
C23   C     C_R   0.237405 0.456044 0.609033 0.597419
C24   C     C_R   0.208738 0.502339 0.494605 0.198432
C25   C     C_R   0.761021 0.467271 0.378104 -0.176701
C26   C     C_R   0.701969 0.466115 0.381961 -0.280037
C27   C     C_R   0.672887 0.505421 0.498649 -0.213325
C28   C     C_R   0.703787 0.549139 0.611686 0.383044
C29   C     C_R   0.763464 0.543824 0.609797 0.484121
C30   C     C_R   0.791750 0.505624 0.491409 0.136537
C31   C     C_R   0.465736 0.063214 0.590076 0.068795
C32   C     C_R   0.498691 0.128738 0.497022 -0.150001
C33   C     C_R   0.526378 0.066447 0.391069 -0.323223
C34   C     C_R   0.526599 0.936523 0.388096 0.527627
C35   C     C_R   0.500028 0.871770 0.495495 -0.303005
C36   C     C_R   0.466626 0.935413 0.589411 0.065617
C37   C     C_3   0.464662 0.926256 0.740184 0.399994
C38   C     C_3   0.463744 0.069018 0.741196 -0.564884
C39   C     C_R   0.450299 0.507896 0.070946 0.051549
N3    N     N_R   0.499610 0.499140 0.142800 -0.104111
C40   C     C_R   0.549778 0.501254 0.071602 -0.146300
C41   C     C_R   0.549771 0.500093 0.927906 -0.145293
H4    H     H_    0.589942 0.497395 0.874352 0.205179
N4    N     N_R   0.499610 0.499180 0.857150 -0.098741
C42   C     C_R   0.450213 0.512396 0.928890 0.146828
C43   C     C_3   0.397906 0.433535 0.917779 -0.562451
C44   C     C_3   0.399928 0.420956 0.071706 0.383597
H5    H     H_    0.403760 0.346219 0.858550 0.217642
H6    H     H_    0.362247 0.465428 0.120270 0.089029
O13   O     O_3   0.942836 0.158658 0.478873 -0.555986
C45   C     C_3   0.946263 0.103885 0.349303 -0.225976
H7    H     H_    0.929822 0.168338 0.269392 0.159271
H8    H     H_    0.919157 0.018807 0.348384 0.207918
H9    H     H_    0.990641 0.074022 0.325411 0.138323
H10   H     H_    0.679065 0.433490 0.293738 0.185390
O14   O     O_3   0.676223 0.592415 0.726337 -0.608776
C46   C     C_3   0.666923 0.722373 0.711538 -0.220707
H11   H     H_    0.643322 0.756560 0.801706 0.169120
H12   H     H_    0.640304 0.743850 0.621078 0.142466
H13   H     H_    0.708021 0.774200 0.706151 0.199787
O15   O     O_3   0.794317 0.583857 0.720561 -0.576116
C47   C     C_3   0.801624 0.481407 0.809287 -0.256592
H14   H     H_    0.825843 0.404009 0.760063 0.168880
H15   H     H_    0.759916 0.446489 0.847890 0.177699
H16   H     H_    0.826787 0.513005 0.897772 0.191367
H17   H     H_    0.550710 0.117981 0.315993 0.166254
O16   O     O_3   0.559721 0.873450 0.293801 -0.583776
C48   C     C_3   0.534643 0.886428 0.164815 -0.278554
H18   H     H_    0.488630 0.860671 0.166574 0.148390
H19   H     H_    0.556408 0.821356 0.093981 0.187372
H20   H     H_    0.540224 0.983029 0.124620 0.133159
O17   O     O_3   0.412402 0.872894 0.782009 -0.552899
C49   C     C_3   0.414268 0.849540 0.922265 -0.285524
H21   H     H_    0.420236 0.937889 0.979870 0.152507
H22   H     H_    0.448407 0.780893 0.947649 0.137257
H23   H     H_    0.372992 0.808092 0.954119 0.193072
H24   H     H_    0.504036 0.882651 0.783193 0.063152
H25   H     H_    0.423021 0.109989 0.778706 0.231300
H26   H     H_    0.503028 0.110194 0.785400 0.164471
H27   H     H_    0.589977 0.500232 0.124921 0.163299
H28   H     H_    0.361068 0.491216 0.884024 0.164487
O18   O     O_3   0.408384 0.296723 0.122658 -0.556438
C50   C     C_3   0.458899 0.235565 0.078601 -0.214092
H29   H     H_    0.495344 0.260183 0.143895 0.188678
H30   H     H_    0.470641 0.253890 0.971950 0.132817
H31   H     H_    0.452545 0.133094 0.088925 0.153300
H32   H     H_    0.948474 0.819837 0.489534 0.197353
H33   H     H_    0.217017 0.586317 0.296502 0.162364
H34   H     H_    0.318829 0.410256 0.693531 0.170541
O19   O     O_3   0.207052 0.407074 0.716851 -0.581416
C51   C     C_3   0.205543 0.497186 0.820878 -0.295896
H35   H     H_    0.185214 0.585982 0.785830 0.178059
H36   H     H_    0.248990 0.515876 0.861196 0.150993
H37   H     H_    0.179342 0.459975 0.905488 0.204383
H38   H     H_    0.783124 0.437361 0.287318 0.170661

loop_
_geom_bond_atom_site_label_1
_geom_bond_atom_site_label_2
_geom_bond_distance
_ccdc_geom_bond_type
C25   C30   1.395252 A    
C44   H6    1.110110 S    
C48   H18   1.113586 S    
O18   C50   1.418482 S    
C22   H34   1.080057 S    
C7    C10   1.416516 A    
C22   C23   1.393923 A    
C8    C9    1.410838 A    
C46   H13   1.112908 S    
C36   C37   1.493070 S    
C40   H27   1.080428 S    
C47   H14   1.113124 S    
C4    C27   1.459806 S    
C34   C35   1.409204 A    
C25   C26   1.384475 A    
Zn1   O7    2.000738 S    
C15   C16   1.389671 A    
N2    C18   1.366855 A    
C18   O12   1.350025 S    
C17   N2    1.367046 A    
C23   O19   1.381617 S    
C46   H12   1.114011 S    
C19   H33   1.083066 S    
O13   C45   1.410629 S    
Zn2   N3    2.016140 S    
C20   H3    1.082602 S    
O7    C4    1.295182 A    
C5    N1    1.364986 A    
C37   C38   1.523187 S    
C50   H31   1.108050 S    
C37   H24   1.116684 S    
C7    C8    1.414275 A    
C41   N4    1.369143 A    
O5    C3    1.286509 A    
C51   H35   1.113971 S    
C35   C36   1.390020 A    
C39   C44   1.503127 S    
C37   O17   1.412383 S    
N1    C6    1.367311 A    
C43   H5    1.109479 S    
C12   C13   1.406473 A    
C34   O16   1.385889 S    
C25   H38   1.083156 S    
N3    C40   1.368926 A    
C10   C11   1.398982 A    
N2    C24   1.424603 S    
C44   O18   1.429917 S    
C50   H29   1.104175 S    
O3    Zn1   2.002090 S    
C47   H15   1.113128 S    
C31   C32   1.387890 A    
C39   C42   1.404095 A    
C5    C9    1.393557 A    
C32   C33   1.398901 A    
C13   C14   1.410292 A    
O3    C2    1.295959 A    
O17   C49   1.407922 S    
C1    C32   1.405770 S    
O16   C48   1.410821 S    
C16   H32   1.083056 S    
C14   C15   1.402459 A    
C26   C27   1.402483 A    
C49   H23   1.109225 S    
C10   O13   1.383924 S    
C26   H10   1.083362 S    
O1    C1    1.284236 A    
C19   C24   1.397906 A    
O14   C46   1.410174 S    
C19   C20   1.386208 A    
C28   C29   1.399704 A    
Zn2   O8    2.002088 S    
C38   H25   1.111944 S    
C45   H9    1.112005 S    
C49   H22   1.111892 S    
C6    C7    1.404413 A    
C12   C17   1.396912 A    
C46   H11   1.109510 S    
C50   H30   1.105401 S    
C51   H37   1.109248 S    
Zn1   N4    2.015555 S    
C45   H7    1.114256 S    
C15   H2    1.083325 S    
C21   C22   1.399700 A    
O8    C4    1.295325 A    
C48   H19   1.109560 S    
C2    C21   1.453724 S    
C23   C24   1.404262 A    
N1    C30   1.424563 S    
C47   H16   1.109304 S    
C33   C34   1.386462 A    
C3    C35   1.409948 S    
C14   C18   1.396164 A    
Zn1   O5    1.990245 S    
C11   H1    1.083418 S    
C27   C28   1.413262 A    
C33   H17   1.083960 S    
O1    Zn1   1.992339 S    
C31   C38   1.495024 S    
O2    Zn2   1.990243 S    
C43   H28   1.110279 S    
O15   C47   1.409493 S    
O6    C3    1.280126 A    
O4    Zn2   2.000738 S    
C5    O9    1.350269 S    
C9    C16   1.403599 A    
C31   C36   1.363563 A    
C42   C43   1.492983 S    
C29   O15   1.382170 S    
O2    C1    1.280739 A    
C39   N3    1.360509 A    
C28   O14   1.382550 S    
O19   C51   1.409525 S    
C20   C21   1.401212 A    
O4    C2    1.292371 A    
C29   C30   1.403998 A    
C38   H26   1.111879 S    
C49   H21   1.111667 S    
C8    C13   1.405898 A    
C41   H4    1.079243 S    
C51   H36   1.112881 S    
C17   O11   1.350082 S    
N4    C42   1.363242 A    
Zn2   O6    1.992341 S    
C43   C44   1.527051 S    
C48   H20   1.111326 S    
C6    O10   1.349366 S    
C11   C12   1.400530 A    
C40   C41   1.419692 A    
C45   H8    1.109245 S    
