data_mof_unit_27544.cif
_audit_creation_date              2012-12-10T18:36:17-0500
_audit_creation_method            fapswitch 2.2
_symmetry_space_group_name_H-M    P1
_symmetry_Int_Tables_number       1
_space_group_crystal_system       triclinic
_cell_length_a                    14.933514
_cell_length_b                    15.54264
_cell_length_c                    19.235157
_cell_angle_alpha                 90.285604
_cell_angle_beta                  104.726254
_cell_angle_gamma                 81.756583
_cell_volume                      4271.02103699

loop_
_atom_site_label
_atom_site_type_symbol
_atom_type_description
_atom_site_fract_x
_atom_site_fract_y
_atom_site_fract_z
_atom_type_partial_charge
C1    C     C_R   0.440872 0.662348 0.489930 0.897614
C2    C     C_R   0.533345 0.187412 0.498057 -0.340670
C3    C     C_R   0.435486 0.903164 0.508018 0.027678
C4    C     C_R   0.548453 0.103039 0.526909 0.030223
C5    C     C_R   0.341784 0.935464 0.472187 -0.007070
C6    C     C_R   0.636944 0.072116 0.574354 -0.019694
C7    C     C_R   0.499911 0.961240 0.534338 0.129950
C8    C     C_R   0.477024 0.049255 0.510790 0.125903
C9    C     C_R   0.382838 0.080705 0.474741 -0.257241
C10   C     C_R   0.585269 0.934172 0.585399 -0.256911
C11   C     C_R   0.315876 0.024949 0.457969 -0.178668
C12   C     C_R   0.558973 0.337890 0.510875 0.937261
C13   C     C_R   0.652134 0.988801 0.605699 -0.176332
C14   C     C_R   0.845846 0.634974 0.605278 -0.401888
C15   C     C_R   0.154289 0.375184 0.381421 -0.416404
C16   C     C_R   0.501231 0.500061 0.634123 0.937979
C17   C     C_R   0.498480 0.500808 0.365526 0.903809
C18   C     C_R   0.759014 0.606306 0.595346 0.645739
C19   C     C_R   0.247378 0.389306 0.406646 0.659984
C20   C     C_R   0.787736 0.520364 0.498505 -0.121410
C21   C     C_R   0.202932 0.492983 0.487895 -0.084486
C22   C     C_R   0.876752 0.546161 0.506104 0.018229
C23   C     C_R   0.402613 0.755373 0.485539 -0.234629
C24   C     C_R   0.107082 0.486735 0.460049 0.009420
C25   C     C_R   0.902932 0.607325 0.559590 0.039989
C26   C     C_R   0.084488 0.424946 0.406951 0.024258
C27   C     C_R   0.942163 0.511374 0.466157 -0.089608
C28   C     C_R   0.034366 0.535958 0.485580 -0.081023
C29   C     C_R   0.051036 0.608729 0.529677 0.519761
C30   C     C_R   0.921093 0.452124 0.409008 0.533286
C31   C     C_R   0.985617 0.641642 0.567345 -0.290815
C32   C     C_R   0.992423 0.412439 0.379396 -0.277025
C33   C     C_R   0.422191 0.541254 0.728424 -0.401795
C34   C     C_R   0.595712 0.245381 0.524334 -0.265666
C35   C     C_R   0.582040 0.484849 0.271324 -0.385816
C36   C     C_R   0.420321 0.545757 0.800261 0.512766
C37   C     C_R   0.586603 0.490231 0.200436 0.502391
C38   C     C_R   0.501955 0.513917 0.853976 -0.079490
C39   C     C_R   0.503446 0.512678 0.146226 -0.083651
C40   C     C_R   0.582928 0.475879 0.834479 -0.362256
C41   C     C_R   0.417485 0.531916 0.164032 -0.356874
C42   C     C_R   0.584733 0.471463 0.762159 0.539433
C43   C     C_R   0.412329 0.525101 0.235803 0.540908
C44   C     C_R   0.502901 0.503440 0.709534 -0.177427
C45   C     C_R   0.276211 0.877431 0.450462 0.403814
C46   C     C_R   0.496515 0.502829 0.289457 -0.209035
C47   C     C_R   0.504919 0.515587 0.070842 0.319251
C48   C     C_R   0.503331 0.515940 0.930286 0.319010
C49   C     C_3   0.300632 0.324406 0.310943 0.103712
C50   C     C_3   0.298215 0.227616 0.299517 -0.906169
C51   C     C_3   0.691716 0.710276 0.662128 0.076076
C52   C     C_3   0.738873 0.720740 0.741170 -0.881714
C53   C     C_3   0.171452 0.680424 0.593570 -0.343993
C54   C     C_3   0.819574 0.352338 0.370295 -0.402474
C55   C     C_3   0.273703 0.526516 0.804702 0.100445
C56   C     C_R   0.706883 0.126824 0.592393 0.448233
C57   C     C_3   0.186065 0.568457 0.825337 -0.811880
C58   C     C_3   0.721681 0.541212 0.199599 0.127633
C59   C     C_3   0.817299 0.517604 0.184701 -0.784207
C60   C     C_3   0.745141 0.456484 0.778053 -0.190919
C61   C     C_3   0.250926 0.523470 0.205773 -0.375714
C62   C     C_3   0.808041 0.280619 0.559608 0.149751
C63   C     C_3   0.882046 0.333407 0.599908 -0.789724
C64   C     C_3   0.224785 0.722427 0.358048 0.172405
C65   C     C_3   0.153448 0.660567 0.334014 -0.716547
C66   C     C_3   0.134632 0.911924 0.474091 -0.294573
C67   C     C_R   0.307053 0.787042 0.455165 0.350658
C68   C     C_3   0.850357 0.047175 0.600202 -0.348689
C69   C     C_R   0.684781 0.214932 0.569996 0.379049
C70   C     C_R   0.464695 0.813542 0.512250 -0.351130
H1    H     H_    0.360348 0.567956 0.687205 0.170732
H2    H     H_    0.354720 0.551790 0.121644 0.176705
H3    H     H_    0.244440 0.051961 0.431217 0.189581
H4    H     H_    0.715224 0.965411 0.646799 0.181520
H5    H     H_    0.470460 0.211254 0.457357 0.216833
H6    H     H_    0.537853 0.788231 0.532803 0.185527
H7    H     H_    0.357744 0.148688 0.461483 0.175905
H8    H     H_    0.599114 0.872229 0.613312 0.130130
H9    H     H_    0.358367 0.342803 0.290097 0.182828
H10   H     H_    0.235303 0.363161 0.277950 0.115035
H11   H     H_    0.243484 0.205429 0.321811 0.251743
H12   H     H_    0.646268 0.467026 0.312575 0.228022
H13   H     H_    0.282742 0.214936 0.241125 0.227384
H14   H     H_    0.367146 0.189878 0.326715 0.261506
H15   H     H_    0.615413 0.730511 0.654424 0.169420
H16   H     H_    0.715625 0.755157 0.627895 0.108170
H17   H     H_    0.814495 0.694508 0.753451 0.247765
H18   H     H_    0.730998 0.790750 0.753903 0.225258
H19   H     H_    0.705487 0.685664 0.775552 0.255975
H20   H     H_    0.180071 0.629919 0.636641 0.145142
H21   H     H_    0.136477 0.743620 0.607609 0.164139
H22   H     H_    0.242650 0.690163 0.590789 0.208836
H23   H     H_    0.998103 0.695848 0.602294 0.147951
H24   H     H_    0.747320 0.345065 0.371812 0.181001
H25   H     H_    0.829458 0.327934 0.318012 0.208721
H26   H     H_    0.867695 0.311001 0.415623 0.145664
H27   H     H_    0.301919 0.465276 0.837765 0.142060
H28   H     H_    0.253304 0.510703 0.746778 0.128783
H29   H     H_    0.155484 0.629111 0.792397 0.250177
H30   H     H_    0.133510 0.522998 0.815697 0.200882
H31   H     H_    0.203574 0.584276 0.883164 0.265283
H32   H     H_    0.732804 0.558540 0.257137 0.173266
H33   H     H_    0.683453 0.598832 0.164771 0.127276
H34   H     H_    0.975827 0.369882 0.334606 0.153014
H35   H     H_    0.809076 0.501569 0.127292 0.253146
H36   H     H_    0.857126 0.573331 0.196725 0.198518
H37   H     H_    0.857207 0.460557 0.219137 0.262345
H38   H     H_    0.774273 0.420927 0.830695 0.140070
H39   H     H_    0.736647 0.528000 0.785406 0.156305
H40   H     H_    0.797037 0.441336 0.745815 0.197719
H41   H     H_    0.267084 0.459353 0.182086 0.151468
H42   H     H_    0.222246 0.575174 0.163060 0.180191
H43   H     H_    0.195394 0.517412 0.233498 0.186055
H44   H     H_    0.770950 0.314735 0.507439 0.125092
H45   H     H_    0.228287 0.532277 0.532627 0.198988
H46   H     H_    0.844624 0.216592 0.548714 0.119518
H47   H     H_    0.925000 0.296989 0.649541 0.254797
H48   H     H_    0.928428 0.345924 0.565343 0.191148
H49   H     H_    0.848278 0.396479 0.615163 0.259730
H50   H     H_    0.289885 0.695729 0.342294 0.148916
H51   H     H_    0.195189 0.786309 0.329476 0.156858
H52   H     H_    0.132472 0.659679 0.274399 0.184842
H53   H     H_    0.184259 0.593843 0.355718 0.256501
H54   H     H_    0.090223 0.682141 0.353575 0.260665
H55   H     H_    0.163397 0.955200 0.517904 0.143239
H56   H     H_    0.760717 0.472682 0.462246 0.218017
H57   H     H_    0.135923 0.845770 0.496466 0.217999
H58   H     H_    0.060340 0.939227 0.450144 0.185110
H59   H     H_    0.837412 0.069174 0.542951 0.122211
H60   H     H_    0.841011 0.977802 0.602176 0.167371
H61   H     H_    0.924754 0.051252 0.626737 0.198638
H62   H     H_    0.869822 0.677108 0.648965 0.159330
H63   H     H_    0.136016 0.325733 0.342660 0.160251
H64   H     H_    0.644412 0.448479 0.875500 0.180883
N1    N     N_R   0.438162 0.569729 0.953766 -0.110276
N2    N     N_R   0.570415 0.462228 0.047533 -0.110345
N3    N     N_R   0.438733 0.569407 0.022853 -0.190612
N4    N     N_R   0.569705 0.462498 0.978490 -0.187062
N5    N     N_R   0.731690 0.552730 0.540620 -0.152643
N6    N     N_R   0.268310 0.447270 0.459380 -0.155640
O1    O     O_R   0.383120 0.605620 0.479520 -0.571548
O2    O     O_3   0.704946 0.621906 0.644269 -0.590352
O3    O     O_3   0.122600 0.655255 0.525265 -0.586791
O4    O     O_3   0.829681 0.441612 0.375441 -0.639415
O5    O     O_3   0.339973 0.584898 0.817618 -0.596002
O6    O     O_3   0.672116 0.469651 0.184248 -0.593923
O7    O     O_3   0.660930 0.427739 0.740919 -0.575092
O8    O     O_3   0.329177 0.547332 0.256452 -0.603454
O9    O     O_3   0.744802 0.272208 0.601797 -0.539192
O10   O     O_3   0.242800 0.730178 0.433302 -0.558195
O11   O     O_3   0.183009 0.908747 0.419815 -0.615193
O12   O     O_R   0.616880 0.394380 0.520480 -0.599332
O13   O     O_3   0.793715 0.098149 0.638450 -0.572297
O14   O     O_R   0.531890 0.639510 0.505590 -0.620082
O15   O     O_R   0.468110 0.360490 0.494410 -0.573800
O16   O     O_R   0.425590 0.483060 0.588820 -0.648750
O17   O     O_R   0.574410 0.516940 0.411180 -0.641820
O18   O     O_R   0.574360 0.516950 0.614890 -0.523684
O19   O     O_R   0.425640 0.483050 0.385110 -0.554842
O20   O     O_3   0.320986 0.340659 0.385400 -0.601500
Zn1   Zn    Zn3+2 0.400660 0.477370 0.482600 1.005032
Zn2   Zn    Zn3+2 0.599340 0.522630 0.517400 0.995659

loop_
_geom_bond_atom_site_label_1
_geom_bond_atom_site_label_2
_ccdc_geom_bond_type
C25   C31   A    
C7    C10   A    
C54   O4    S    
O1    Zn1   S    
C62   O9    S    
C47   N2    A    
C14   C18   A    
C48   N1    A    
C2    C4    A    
C4    C8    A    
C51   H15   S    
C10   H8    S    
C50   H14   S    
C7    C8    A    
C39   C41   A    
C14   H62   S    
O15   Zn1   S    
C26   C32   A    
C59   H35   S    
C19   O20   S    
C20   N5    A    
C28   C29   A    
C35   C37   A    
C61   O8    S    
C24   C26   A    
C62   H44   S    
C3    C7    A    
C63   H47   S    
C55   O5    S    
C64   H51   S    
C57   H29   S    
C33   C36   A    
C30   O4    S    
C66   H57   S    
C65   H54   S    
C23   C67   A    
C12   O12   A    
C43   O8    S    
C8    C9    A    
C22   C25   A    
C16   O16   A    
C32   H34   S    
C49   O20   S    
C60   H39   S    
C60   O7    S    
C37   O6    S    
C17   O17   A    
C16   C44   S    
C54   H26   S    
C60   H38   S    
C21   H45   S    
C2    C34   A    
C40   C42   A    
C38   C40   A    
C27   C30   A    
C41   C43   A    
C23   C70   A    
C47   N3    A    
C52   H19   S    
C68   H59   S    
C42   C44   A    
C42   O7    S    
C51   H16   S    
C35   H12   S    
C50   H13   S    
N5    Zn2   S    
C59   H36   S    
C16   O18   A    
C51   C52   S    
C52   H18   S    
C3    C70   A    
C1    O1    A    
C17   C46   S    
C4    C6    A    
C68   O13   S    
C11   H3    S    
C56   C69   A    
C63   H48   S    
O18   Zn2   S    
C19   N6    A    
C15   C26   A    
C58   C59   S    
C31   H23   S    
C57   H30   S    
C40   H64   S    
C59   H37   S    
C49   H9    S    
C64   O10   S    
C53   O3    S    
C68   H61   S    
C15   C19   A    
C45   C67   A    
C62   C63   S    
C63   H49   S    
C18   O2    S    
C55   H27   S    
C53   H22   S    
O19   Zn1   S    
C9    H7    S    
C65   H52   S    
C68   H60   S    
C9    C11   A    
C34   C69   A    
C54   H25   S    
C41   H2    S    
C58   H32   S    
C53   H21   S    
N2    N4    A    
C20   C22   A    
O16   Zn1   S    
C1    C23   S    
C22   C27   A    
C55   C57   S    
C70   H6    S    
C12   O15   A    
C12   C34   S    
C61   H41   S    
C53   H20   S    
C39   C47   S    
C51   O2    S    
N1    N3    A    
C33   C44   A    
C38   C48   S    
O14   Zn2   S    
C52   H17   S    
C24   C28   A    
C6    C56   A    
C56   O13   S    
C3    C5    A    
C10   C13   A    
C1    O14   A    
C58   O6    S    
C5    C11   A    
C15   H63   S    
C57   H31   S    
C64   H50   S    
C66   H55   S    
C48   N4    A    
C69   O9    S    
C64   C65   S    
C36   C38   A    
N6    Zn1   S    
C66   O11   S    
C37   C39   A    
C6    C13   A    
C30   C32   A    
C61   H42   S    
C5    C45   A    
C55   H28   S    
C66   H58   S    
C20   H56   S    
C65   H53   S    
C14   C25   A    
C18   N5    A    
C17   O19   A    
C43   C46   A    
C54   H24   S    
C60   H40   S    
C62   H46   S    
C33   H1    S    
C61   H43   S    
C36   O5    S    
C13   H4    S    
C29   C31   A    
C49   C50   S    
C21   C24   A    
C27   C28   A    
C49   H10   S    
C58   H33   S    
C21   N6    A    
C45   O11   S    
C35   C46   A    
O17   Zn2   S    
O12   Zn2   S    
C2    H5    S    
C50   H11   S    
C67   O10   S    
C29   O3    S    
