data_mof_unit_20336.cif
_audit_creation_date              2012-12-10T17:43:22-0500
_audit_creation_method            fapswitch 2.2
_symmetry_space_group_name_H-M    P1
_symmetry_Int_Tables_number       1
_space_group_crystal_system       triclinic
_cell_length_a                    15.076141
_cell_length_b                    13.712201
_cell_length_c                    10.633536
_cell_angle_alpha                 90.186667
_cell_angle_beta                  90.150384
_cell_angle_gamma                 89.472058
_cell_volume                      2198.12741694

loop_
_atom_site_label
_atom_site_type_symbol
_atom_type_description
_atom_site_fract_x
_atom_site_fract_y
_atom_site_fract_z
_atom_type_partial_charge
C1    C     C_R   0.328843 0.500568 0.503524 0.820552
C2    C     C_R   0.671158 0.499432 0.496470 0.820567
C3    C     C_R   0.953268 0.499175 0.497196 -0.019609
C4    C     C_R   0.046734 0.500825 0.502783 -0.019619
C5    C     C_R   0.908892 0.433918 0.414084 0.129055
C6    C     C_R   0.091109 0.566074 0.585904 0.129091
C7    C     C_R   0.947298 0.627075 0.656465 -0.238830
C8    C     C_R   0.052704 0.372917 0.343517 -0.238830
C9    C     C_R   0.039645 0.629489 0.663118 0.159518
C10   C     C_R   0.960357 0.370493 0.336874 0.159574
C11   C     C_R   0.451703 0.793718 0.587575 0.082105
C12   C     C_R   0.548296 0.206281 0.412425 0.082097
C13   C     C_R   0.548541 0.792306 0.412643 0.112675
C14   C     C_R   0.451459 0.207694 0.587357 0.112676
C15   C     C_R   0.549883 0.895547 0.409639 -0.120076
C16   C     C_R   0.450117 0.104453 0.590361 -0.120077
C17   C     C_R   0.450198 0.896985 0.590405 -0.102194
C18   C     C_R   0.549802 0.103015 0.409595 -0.102192
C19   C     C_R   0.500014 0.948193 0.500004 -0.016325
C20   C     C_R   0.499986 0.051807 0.499997 -0.016325
C21   C     C_R   0.599486 0.947053 0.319162 0.335856
C22   C     C_R   0.400514 0.052947 0.680839 0.335859
C23   C     C_R   0.400502 0.949892 0.680801 0.324630
C24   C     C_R   0.599498 0.050108 0.319199 0.324633
C25   C     C_R   0.499855 0.499775 0.259248 0.858478
C26   C     C_R   0.500145 0.500225 0.740752 0.858474
C27   C     C_3   0.427292 0.547924 0.042038 -0.245338
C28   C     C_3   0.572709 0.452076 0.957962 -0.245336
C29   C     C_3   0.500918 0.593210 0.959702 -0.184661
C30   C     C_3   0.499082 0.406790 0.040298 -0.184660
C31   C     C_3   0.427567 0.456174 0.957960 0.424557
C32   C     C_3   0.572433 0.543825 0.042039 0.424562
C33   C     C_3   0.500251 0.500790 0.877323 -0.139046
C34   C     C_3   0.499749 0.499209 0.122677 -0.139047
C35   C     C_R   0.814892 0.434207 0.412149 0.127430
C36   C     C_R   0.185109 0.565785 0.587844 0.127439
C37   C     C_R   0.767691 0.498106 0.492866 -0.116336
C38   C     C_R   0.232310 0.501894 0.507118 -0.116346
C39   C     C_R   0.812315 0.562419 0.571646 -0.217569
C40   C     C_R   0.187687 0.437583 0.428329 -0.217561
C41   C     C_R   0.904268 0.563114 0.574973 0.096473
C42   C     C_R   0.095733 0.436886 0.425004 0.096465
Cu1   Cu    Cu3+1 0.500000 0.597420 0.500000 0.976568
Cu2   Cu    Cu3+1 0.500000 0.402580 0.500000 0.976564
H1    H     H_    0.367561 0.586224 0.078925 0.188551
H2    H     H_    0.632439 0.413776 0.921075 0.188549
H3    H     H_    0.502390 0.669374 0.924700 0.206395
H4    H     H_    0.497610 0.330626 0.075300 0.206395
H5    H     H_    0.774824 0.611146 0.632650 0.168542
H6    H     H_    0.225178 0.388854 0.367324 0.168541
H7    H     H_    0.908953 0.675985 0.716020 0.167811
H8    H     H_    0.091049 0.323998 0.283964 0.167807
H9    H     H_    0.414663 0.752042 0.655158 0.167036
H10   H     H_    0.585335 0.247957 0.344840 0.167039
H11   H     H_    0.586188 0.749529 0.345656 0.203633
H12   H     H_    0.413812 0.250471 0.654345 0.203635
N1    N     N_R   0.500000 0.743810 0.500000 -0.217460
N2    N     N_R   0.500000 0.256190 0.500000 -0.217461
O1    O     O_R   0.370260 0.582280 0.500030 -0.602547
O2    O     O_R   0.629740 0.417720 0.499970 -0.602558
O3    O     O_R   0.629740 0.582280 0.499970 -0.567077
O4    O     O_R   0.370260 0.417720 0.500030 -0.567077
O5    O     O_R   0.499980 0.582260 0.316850 -0.564974
O6    O     O_R   0.500020 0.417740 0.683150 -0.564972
O7    O     O_R   0.500020 0.582260 0.683150 -0.600534
O8    O     O_R   0.499980 0.417740 0.316850 -0.600535
Cl1   Cl    Cl    0.330869 0.398003 0.898653 -0.571162
Cl2   Cl    Cl    0.669133 0.601990 0.101346 -0.571167
N3    N     N_3   0.767804 0.372256 0.326173 -0.507432
H13   H     H_    0.734497 0.318998 0.377153 0.249840
H14   H     H_    0.722161 0.414021 0.274718 0.244333
N4    N     N_3   0.232196 0.627710 0.673853 -0.507405
H15   H     H_    0.277857 0.585924 0.725263 0.244313
H16   H     H_    0.265489 0.681001 0.622910 0.249847
N5    N     N_3   0.079712 0.697316 0.748413 -0.504148
H17   H     H_    0.058227 0.767579 0.724473 0.246175
H18   H     H_    0.057096 0.682310 0.839129 0.244805
N6    N     N_3   0.920291 0.302629 0.251602 -0.504099
H19   H     H_    0.942904 0.317611 0.160862 0.244796
H20   H     H_    0.941780 0.232364 0.275582 0.246167
Cl3   Cl    Cl    0.662147 0.883460 0.204063 -0.466579
Cl4   Cl    Cl    0.337854 0.116540 0.795937 -0.466577
Cl5   Cl    Cl    0.337454 0.888031 0.795411 -0.533187
Cl6   Cl    Cl    0.662546 0.111969 0.204589 -0.533178

loop_
_geom_bond_atom_site_label_1
_geom_bond_atom_site_label_2
_ccdc_geom_bond_type
C14   H12   S    
C27   C29   S    
Cu2   O8    S    
C19   C20   A    
Cu1   Cu2   S    
C1    O4    A    
C6    C9    A    
C10   N6    S    
Cu1   O5    S    
C39   C41   A    
Cu2   O6    S    
C15   C19   A    
C28   H2    S    
C17   C23   A    
C23   Cl5   S    
C29   H3    S    
C18   C24   A    
C22   Cl4   S    
C30   H4    S    
C35   C37   A    
C8    C42   A    
C29   C32   S    
C1    O1    A    
C30   C31   S    
C2    O2    A    
C13   N1    A    
C29   C33   S    
C25   O5    A    
N3    H14   S    
C26   O6    A    
C11   C17   A    
Cu2   N2    S    
C31   C33   S    
C8    H8    S    
C18   C20   A    
C11   H9    S    
C2    O3    A    
Cu1   O1    S    
C25   C34   S    
C32   Cl2   S    
C12   N2    A    
C27   H1    S    
C40   C42   A    
C27   C34   S    
C14   N2    A    
C30   C34   S    
C27   C31   S    
Cu1   O7    S    
C28   C32   S    
C4    C6    A    
N6    H19   S    
Cu2   O4    S    
C32   C34   S    
C31   Cl1   S    
N5    H17   S    
C26   C33   S    
C16   C20   A    
N5    H18   S    
C1    C38   S    
N4    H16   S    
C39   H5    S    
C21   Cl3   S    
C28   C33   S    
C13   C15   A    
C14   C16   A    
C3    C4    A    
Cu1   O3    S    
C7    C9    A    
C3    C41   A    
C16   C22   A    
C26   O7    A    
C25   O8    A    
N4    H15   S    
C3    C5    A    
C28   C30   S    
C24   Cl6   S    
C7    H7    S    
C5    C10   A    
C37   C39   A    
C38   C40   A    
C2    C37   S    
C4    C42   A    
Cu2   O2    S    
C40   H6    S    
C5    C35   A    
C36   C38   A    
C17   C19   A    
C6    C36   A    
N6    H20   S    
C7    C41   A    
N3    H13   S    
Cu1   N1    S    
C15   C21   A    
C35   N3    S    
C8    C10   A    
C21   C24   A    
C12   C18   A    
C22   C23   A    
C9    N5    S    
C11   N1    A    
C12   H10   S    
C36   N4    S    
C13   H11   S    
