data_mof_unit_47933.cif
_audit_creation_date              2012-12-10T17:15:40-0500
_audit_creation_method            fapswitch 2.2
_symmetry_space_group_name_H-M    P1
_symmetry_Int_Tables_number       1
_space_group_crystal_system       triclinic
_cell_length_a                    17.292287
_cell_length_b                    13.005697
_cell_length_c                    11.89474
_cell_angle_alpha                 99.789504
_cell_angle_beta                  89.118266
_cell_angle_gamma                 94.401767
_cell_volume                      2628.37101473

loop_
_atom_site_label
_atom_site_type_symbol
_atom_type_description
_atom_site_fract_x
_atom_site_fract_y
_atom_site_fract_z
_atom_type_partial_charge
C1    C     C_R   0.499323 0.300155 0.479032 0.801521
C2    C     C_R   0.501114 0.699926 0.520932 0.803171
C3    C     C_R   0.506765 0.813016 0.530531 -0.122695
C4    C     C_R   0.494044 0.187170 0.469352 -0.124411
C5    C     C_R   0.417351 0.025095 0.409428 0.179244
C6    C     C_R   0.583722 0.975048 0.590100 0.183587
C7    C     C_R   0.431342 0.131302 0.411097 -0.239323
C8    C     C_R   0.569507 0.868866 0.588779 -0.242159
C9    C     C_R   0.546983 0.137223 0.525930 0.090822
C10   C     C_R   0.454025 0.863084 0.473792 0.095918
C11   C     C_R   0.533750 0.028740 0.529170 0.043291
C12   C     C_R   0.467334 0.971491 0.470436 0.042058
C13   C     C_R   0.458019 0.371562 0.027671 0.068972
C14   C     C_R   0.539173 0.630035 0.972036 0.072534
C15   C     C_R   0.448680 0.392622 0.147495 0.302162
C16   C     C_R   0.549327 0.608454 0.852991 0.338604
C17   C     C_R   0.522033 0.555926 0.154329 0.292946
C18   C     C_R   0.477552 0.444395 0.845720 0.293355
C19   C     C_R   0.514411 0.548089 0.032600 -0.108525
C20   C     C_R   0.484118 0.453105 0.967822 -0.041335
C21   C     C_R   0.350723 0.501428 0.515415 0.788975
C22   C     C_R   0.648519 0.499169 0.484340 0.785303
C23   C     C_R   0.265451 0.499821 0.525240 -0.077786
C24   C     C_R   0.731663 0.491232 0.473750 -0.064013
C25   C     C_R   0.217778 0.518296 0.435569 0.154729
C26   C     C_R   0.784681 0.571062 0.528362 0.163388
C27   C     C_R   0.137515 0.511791 0.450030 -0.193783
C28   C     C_R   0.863061 0.552828 0.528599 -0.177692
C29   C     C_R   0.103272 0.486654 0.550306 0.123770
C30   C     C_R   0.889382 0.457632 0.473182 0.089339
C31   C     C_R   0.149941 0.471694 0.640717 0.187887
C32   C     C_R   0.836438 0.380603 0.413207 0.181285
C33   C     C_R   0.230666 0.478133 0.627305 -0.274895
C34   C     C_R   0.757929 0.397888 0.414670 -0.219805
C35   C     C_2   0.018373 0.481987 0.561338 -0.198742
C36   C     C_2   0.972771 0.442873 0.471708 -0.251267
Cu1   Cu    Cu3+1 0.505800 0.507690 0.615350 0.925746
Cu2   Cu    Cu3+1 0.494200 0.492310 0.384650 0.920315
H1    H     H_    0.716900 0.337018 0.371998 0.157571
H2    H     H_    0.266313 0.464359 0.696555 0.158648
H3    H     H_    0.997965 0.402400 0.393956 0.155522
H4    H     H_    0.993143 0.513975 0.642838 0.179383
H5    H     H_    0.903965 0.614650 0.569647 0.150750
H6    H     H_    0.101101 0.527963 0.382734 0.146501
H7    H     H_    0.609947 0.828709 0.631204 0.163945
H8    H     H_    0.390696 0.171551 0.369069 0.164549
N1    N     N_R   0.514530 0.519260 0.788680 -0.207892
N2    N     N_R   0.485470 0.480740 0.211320 -0.189313
O1    O     O_R   0.504120 0.354440 0.581590 -0.591876
O2    O     O_R   0.495880 0.645560 0.418410 -0.590852
O3    O     O_R   0.494320 0.341440 0.386760 -0.578196
O4    O     O_R   0.505680 0.658560 0.613240 -0.580503
O5    O     O_R   0.391870 0.507230 0.608700 -0.592408
O6    O     O_R   0.608130 0.492770 0.391300 -0.590379
O7    O     O_R   0.382070 0.494240 0.413880 -0.588194
O8    O     O_R   0.617930 0.505760 0.586120 -0.579045
C37   C     C_3   0.249366 0.546635 0.324759 -0.823151
H9    H     H_    0.203125 0.567843 0.270996 0.213622
H10   H     H_    0.292131 0.615300 0.342100 0.240103
H11   H     H_    0.276474 0.479039 0.274039 0.245980
C38   C     C_3   0.760819 0.677048 0.583357 -0.884312
H12   H     H_    0.798978 0.739226 0.552671 0.237074
H13   H     H_    0.700584 0.689622 0.561589 0.211682
H14   H     H_    0.766522 0.685903 0.677399 0.238067
C39   C     C_3   0.598715 0.688934 0.801710 -0.743849
H15   H     H_    0.565858 0.758596 0.799475 0.238720
H16   H     H_    0.651374 0.714209 0.854628 0.191107
H17   H     H_    0.620648 0.658340 0.716991 0.253894
C40   C     C_3   0.397407 0.314211 0.199960 -0.810917
H18   H     H_    0.341946 0.296670 0.152305 0.184634
H19   H     H_    0.426564 0.240605 0.196211 0.223311
H20   H     H_    0.379408 0.342154 0.287502 0.267599
N3    N     N_3   0.446950 0.265383 0.968738 -0.609312
H21   H     H_    0.483045 0.219154 0.005148 0.232425
H22   H     H_    0.389325 0.236886 0.976529 0.224392
N4    N     N_3   0.543733 0.738474 0.024525 -0.603972
H23   H     H_    0.597843 0.761980 0.061734 0.229392
H24   H     H_    0.497803 0.753387 0.081651 0.230601
N5    N     N_3   0.115056 0.448476 0.744891 -0.601548
H25   H     H_    0.086394 0.373831 0.726560 0.217896
H26   H     H_    0.157672 0.444692 0.805174 0.213721
N6    N     N_3   0.860492 0.283113 0.353327 -0.595904
H27   H     H_    0.890091 0.247194 0.410232 0.225153
H28   H     H_    0.898606 0.298479 0.288146 0.213557
N7    N     N_3   0.386035 0.803979 0.423218 -0.630523
H29   H     H_    0.402092 0.750706 0.352410 0.239839
H30   H     H_    0.357915 0.763889 0.483187 0.219214
N8    N     N_3   0.615022 0.196480 0.576387 -0.620274
H31   H     H_    0.599148 0.250359 0.646785 0.250986
H32   H     H_    0.643232 0.236153 0.516189 0.217996
N9    N     N_3   0.351283 0.976134 0.344518 -0.593510
H33   H     H_    0.309787 0.947660 0.398592 0.254488
H34   H     H_    0.368715 0.917160 0.280272 0.242396
N10   N     N_3   0.649987 0.023911 0.654590 -0.588685
H35   H     H_    0.632749 0.082969 0.718891 0.247548
H36   H     H_    0.691303 0.052330 0.600221 0.254758
C41   C     C_3   0.422779 0.358039 0.782930 -0.718280
H37   H     H_    0.398803 0.375474 0.704984 0.249414
H38   H     H_    0.452186 0.284219 0.761731 0.240456
H39   H     H_    0.369968 0.346392 0.834877 0.189071
C42   C     C_3   0.578827 0.640057 0.216035 -0.766667
H40   H     H_    0.601886 0.622483 0.294297 0.271316
H41   H     H_    0.631819 0.647890 0.163489 0.190469
H42   H     H_    0.551863 0.715472 0.238473 0.209327

loop_
_geom_bond_atom_site_label_1
_geom_bond_atom_site_label_2
_ccdc_geom_bond_type
C21   O5    A    
C10   N7    S    
C42   H40   S    
C27   C29   A    
N3    H21   S    
N8    H32   S    
C35   C36   D    
C17   N2    A    
C18   N1    A    
C41   H37   S    
C22   O6    A    
N7    H29   S    
C26   C38   S    
C24   C26   A    
C9    N8    S    
C37   H10   S    
C39   H16   S    
C18   C20   A    
C38   H13   S    
C40   H19   S    
C35   H4    S    
C17   C42   S    
C8    H7    S    
C2    O2    A    
Cu1   O8    S    
C27   H6    S    
Cu2   O7    S    
C19   C20   A    
C23   C33   A    
C31   C33   A    
C18   C41   S    
Cu1   N1    S    
Cu2   N2    S    
Cu1   O5    S    
C42   H41   S    
N3    H22   S    
C36   H3    S    
C40   H18   S    
C25   C37   S    
C15   N2    A    
C4    C7    A    
C10   C12   A    
C16   N1    A    
C41   H38   S    
N7    H30   S    
C15   C40   S    
C33   H2    S    
C34   H1    S    
C7    H8    S    
N4    H23   S    
C5    C12   A    
C3    C8    A    
N9    H33   S    
C5    C7    A    
Cu1   O4    S    
C37   H11   S    
C22   O8    A    
Cu2   O3    S    
C6    N10   S    
C24   C34   A    
C14   N4    S    
C38   H14   S    
Cu1   Cu2   S    
N9    H34   S    
Cu1   O1    S    
Cu2   O6    S    
C39   H17   S    
N10   H35   S    
N10   H36   S    
C9    C11   A    
C5    N9    S    
C2    O4    A    
C13   N3    S    
N6    H27   S    
C42   H42   S    
N6    H28   S    
C21   C23   S    
C14   C16   A    
C6    C11   A    
C41   H39   S    
C21   O7    A    
C13   C20   A    
C14   C19   A    
N4    H24   S    
C6    C8    A    
C11   C12   A    
N5    H26   S    
C31   N5    S    
Cu2   O2    S    
C25   C27   A    
C32   N6    S    
C29   C35   S    
C28   H5    S    
C26   C28   A    
C1    O3    A    
C30   C36   S    
C1    C4    S    
C13   C15   A    
C2    C3    S    
C29   C31   A    
C3    C10   A    
C30   C32   A    
C37   H9    S    
C28   C30   A    
C17   C19   A    
C22   C24   S    
C23   C25   A    
C38   H12   S    
N5    H25   S    
N8    H31   S    
C39   H15   S    
C16   C39   S    
C40   H20   S    
C4    C9    A    
C1    O1    A    
C32   C34   A    
