data_mof_unit_39128.cif
_audit_creation_date              2013-03-05T15:50:32-0500
_audit_creation_method            fapswitch 2.2
_symmetry_space_group_name_H-M    P1
_symmetry_Int_Tables_number       1
_space_group_crystal_system       triclinic
_cell_length_a                    15.040943
_cell_length_b                    15.111268
_cell_length_c                    34.777947
_cell_angle_alpha                 91.362962
_cell_angle_beta                  91.49058
_cell_angle_gamma                 60.197316
_cell_volume                      6856.29688664

loop_
_atom_site_label
_atom_site_type_symbol
_atom_site_description
_atom_site_fract_x
_atom_site_fract_y
_atom_site_fract_z
_atom_type_partial_charge
O1    O     O_R   0.324990 0.503440 0.453910 -0.525957
O2    O     O_R   0.522030 0.339050 0.458320 -0.515196
C1    C     C_R   0.594926 0.340385 0.439492 0.561367
O3    O     O_R   0.676180 0.324490 0.458320 -0.432483
O4    O     O_R   0.643570 0.521510 0.464260 -0.489805
C2    C     C_R   0.592509 0.609840 0.449286 0.534920
O5    O     O_R   0.504630 0.675350 0.460920 -0.520717
O6    O     O_R   0.339850 0.642450 0.459830 -0.503065
C3    C     C_R   0.304949 0.590764 0.442146 0.536800
O7    O     O_R   0.321120 0.501280 0.538470 -0.514207
O8    O     O_R   0.518440 0.337050 0.536710 -0.499741
C4    C     C_R   0.605356 0.300538 0.553613 0.552539
O9    O     O_R   0.672300 0.322330 0.542880 -0.506389
O10   O     O_R   0.639980 0.519500 0.542640 -0.500550
C5    C     C_R   0.587100 0.606163 0.559216 0.539492
O11   O     O_R   0.500750 0.673190 0.545480 -0.513771
O12   O     O_R   0.336260 0.640450 0.538210 -0.490778
C6    C     C_R   0.297946 0.589094 0.551892 0.547092
Cr1   Cr    Cr6+3 0.426010 0.422500 0.497000 1.013236
Cr2   Cr    Cr6+3 0.651300 0.426310 0.501970 1.077500
Cr3   Cr    Cr6+3 0.422670 0.651170 0.501050 1.022566
O13   O     O_3   0.499990 0.499990 0.500010 -0.268377
C7    C     C_R   0.733591 0.707944 0.100071 0.014393
C8    C     C_R   0.638236 0.756695 0.118017 -0.139288
C9    C     C_R   0.630519 0.734108 0.155783 -0.102476
C10   C     C_R   0.717978 0.663146 0.176074 0.031351
C11   C     C_R   0.811227 0.607365 0.157144 -0.085752
C12   C     C_R   0.819124 0.629761 0.119233 -0.091676
C13   C     C_R   0.752334 0.564198 0.236031 -0.170392
C14   C     C_R   0.744571 0.560821 0.275672 -0.171438
C15   C     C_R   0.695135 0.651555 0.297242 -0.009571
C16   C     C_R   0.655854 0.746523 0.279356 0.284286
C17   C     C_R   0.672919 0.749155 0.240118 0.278054
C18   C     C_R   0.714150 0.658251 0.217957 -0.005818
C19   C     C_R   0.569729 0.686210 0.347104 -0.091413
C20   C     C_R   0.544945 0.678537 0.384358 -0.123175
C21   C     C_R   0.725333 0.589959 0.402720 -0.072917
C22   C     C_R   0.750165 0.599651 0.365171 -0.064272
C23   C     C_R   0.672041 0.647100 0.337339 0.068803
C24   C     C_R   0.622439 0.628855 0.412248 0.032067
H1    H     H_    0.570777 0.815703 0.103561 0.129544
H2    H     H_    0.893454 0.590395 0.105850 0.169845
H3    H     H_    0.829727 0.568207 0.357565 0.123535
H4    H     H_    0.772222 0.487772 0.289298 0.156748
H5    H     H_    0.786101 0.493830 0.219373 0.127877
H6    H     H_    0.557456 0.776032 0.169936 0.125672
H7    H     H_    0.509202 0.719534 0.325512 0.092442
H8    H     H_    0.465122 0.706813 0.390816 0.123546
H9    H     H_    0.879230 0.551808 0.172413 0.172095
H10   H     H_    0.785827 0.550365 0.423891 0.137297
C25   C     C_R   0.118802 0.719824 0.081295 0.000977
C26   C     C_R   0.164714 0.623791 0.099737 0.182196
C27   C     C_R   0.181612 0.619644 0.139530 -0.079591
C28   C     C_R   0.160776 0.707488 0.160612 -0.028840
C29   C     C_R   0.136032 0.796983 0.141225 -0.113660
C30   C     C_R   0.117625 0.803364 0.101297 0.154289
C31   C     C_R   0.235336 0.723771 0.222892 -0.161218
C32   C     C_R   0.247239 0.712709 0.262662 -0.106377
C33   C     C_R   0.187601 0.683157 0.283423 -0.000713
C34   C     C_R   0.115101 0.665895 0.263623 -0.130390
C35   C     C_R   0.101245 0.677843 0.223602 0.215597
C36   C     C_R   0.164076 0.704994 0.202975 0.010559
C37   C     C_R   0.201125 0.585558 0.342764 -0.110024
C38   C     C_R   0.227203 0.564433 0.381601 -0.125337
C39   C     C_R   0.249737 0.712098 0.387505 -0.127398
C40   C     C_R   0.224070 0.732950 0.348666 -0.117643
C41   C     C_R   0.202882 0.667958 0.325562 0.046177
C42   C     C_R   0.255229 0.625481 0.404039 0.023803
H11   H     H_    0.223274 0.798643 0.336496 0.103009
H12   H     H_    0.305278 0.724582 0.277026 0.108691
H13   H     H_    0.284102 0.744093 0.207423 0.110576
H14   H     H_    0.209312 0.548201 0.154325 0.157907
H15   H     H_    0.067095 0.645575 0.279560 0.136875
H16   H     H_    0.184278 0.534455 0.325883 0.087196
H17   H     H_    0.230222 0.497437 0.393536 0.118641
H18   H     H_    0.128175 0.862545 0.157425 0.155738
H19   H     H_    0.270217 0.761143 0.404051 0.128154
C43   C     C_R   0.710093 0.116593 0.082625 -0.048273
C44   C     C_R   0.765631 0.160407 0.100243 0.194856
C45   C     C_R   0.742094 0.198009 0.138124 -0.163639
C46   C     C_R   0.659575 0.200799 0.156889 0.018565
C47   C     C_R   0.595497 0.171624 0.137282 0.291756
C48   C     C_R   0.620027 0.131957 0.099985 -0.151676
C49   C     C_R   0.556183 0.310581 0.211527 0.311136
C50   C     C_R   0.533274 0.319942 0.250888 0.291237
C51   C     C_R   0.607445 0.251234 0.277154 0.021477
C52   C     C_R   0.699615 0.170848 0.263309 -0.195710
C53   C     C_R   0.717574 0.156709 0.224079 -0.205427
C54   C     C_R   0.645360 0.225169 0.198066 0.003984
C55   C     C_R   0.672728 0.296238 0.335038 -0.149151
C56   C     C_R   0.679260 0.309409 0.374596 0.194743
C57   C     C_R   0.535590 0.280751 0.382464 -0.159989
C58   C     C_R   0.532819 0.261048 0.342687 0.292294
C59   C     C_R   0.601002 0.272200 0.318897 0.037159
C60   C     C_R   0.606726 0.306115 0.398722 -0.040718
H20   H     H_    0.570578 0.108402 0.085368 0.151397
H21   H     H_    0.787348 0.226122 0.153108 0.151474
H22   H     H_    0.758292 0.119771 0.283221 0.137519
H23   H     H_    0.787787 0.092291 0.213865 0.137086
H24   H     H_    0.727257 0.300871 0.316571 0.149664
H25   H     H_    0.482879 0.275381 0.401337 0.139175
C61   C     C_R   0.694640 0.684142 0.920213 -0.081486
C62   C     C_R   0.775804 0.596312 0.903588 -0.175780
C63   C     C_R   0.769222 0.565819 0.865913 0.160109
C64   C     C_R   0.681013 0.627527 0.843467 -0.008060
C65   C     C_R   0.594871 0.711369 0.860851 0.231961
C66   C     C_R   0.599324 0.734186 0.900303 0.241122
C67   C     C_R   0.610023 0.584468 0.784293 0.367017
C68   C     C_R   0.605721 0.579634 0.743518 -0.095657
C69   C     C_R   0.671300 0.597312 0.720976 -0.016042
C70   C     C_R   0.746208 0.613921 0.738795 -0.126441
C71   C     C_R   0.750526 0.620511 0.778729 -0.102055
C72   C     C_R   0.681475 0.608457 0.801440 0.138444
C73   C     C_R   0.734711 0.550374 0.653406 -0.082757
C74   C     C_R   0.714843 0.555000 0.613728 -0.098809
C75   C     C_R   0.537269 0.681247 0.624709 -0.128020
C76   C     C_R   0.556378 0.674206 0.664216 -0.138333
C77   C     C_R   0.654603 0.607257 0.678925 0.016442
C78   C     C_R   0.615240 0.618825 0.599109 0.019094
H26   H     H_    0.846962 0.552738 0.919530 0.191074
H27   H     H_    0.493952 0.720227 0.683453 0.114222
H28   H     H_    0.550460 0.565276 0.728407 0.086145
H29   H     H_    0.797364 0.627639 0.721769 0.147291
H30   H     H_    0.805502 0.638745 0.792025 0.120548
H31   H     H_    0.811218 0.498954 0.664260 0.150321
H32   H     H_    0.776186 0.505660 0.594627 0.146739
H33   H     H_    0.459671 0.730697 0.614446 0.129544
C79   C     C_R   0.043776 0.706091 0.897712 0.002261
C80   C     C_R   0.078839 0.764833 0.878675 0.203969
C81   C     C_R   0.078990 0.764436 0.838170 -0.104539
C82   C     C_R   0.046328 0.706109 0.816297 -0.019935
C83   C     C_R   0.017295 0.644146 0.835462 -0.131085
C84   C     C_R   0.016475 0.643833 0.875513 -0.157243
C85   C     C_R   0.083566 0.614862 0.752704 -0.140374
C86   C     C_R   0.099720 0.611470 0.713374 -0.119642
C87   C     C_R   0.077257 0.700157 0.693491 0.046994
C88   C     C_R   0.031760 0.795137 0.713488 0.225152
C89   C     C_R   0.018247 0.796824 0.753504 -0.103495
C90   C     C_R   0.047329 0.706460 0.773555 -0.026331
C91   C     C_R   0.188627 0.718900 0.646850 -0.123327
C92   C     C_R   0.243467 0.691428 0.612770 -0.136651
C93   C     C_R   0.155824 0.600855 0.591494 -0.111388
C94   C     C_R   0.097009 0.631294 0.625079 0.224597
C95   C     C_R   0.116750 0.687705 0.653853 0.051752
C96   C     C_R   0.230051 0.629378 0.585404 -0.024291
H34   H     H_    0.988018 0.599207 0.889064 0.175432
H35   H     H_    0.135373 0.537986 0.698773 0.135562
H36   H     H_    0.105829 0.544350 0.767172 0.121337
H37   H     H_    0.106520 0.808531 0.823608 0.155095
H38   H     H_    0.985873 0.868664 0.769173 0.162760
H39   H     H_    0.205976 0.760661 0.668693 0.132727
H40   H     H_    0.300602 0.713935 0.608803 0.129745
H41   H     H_    0.991811 0.598218 0.819474 0.147032
H42   H     H_    0.143477 0.555068 0.569892 0.166144
C97   C     C_R   0.674107 0.076997 0.906760 -0.069373
C98   C     C_R   0.640482 0.027343 0.880959 -0.152929
C99   C     C_R   0.623044 0.054035 0.842475 0.202593
C100  C     C_R   0.642023 0.130856 0.829321 -0.037947
C101  C     C_R   0.669402 0.186458 0.855733 0.213415
C102  C     C_R   0.682282 0.161260 0.894900 0.238612
C103  C     C_R   0.565652 0.244344 0.771753 0.288691
C104  C     C_R   0.566075 0.256462 0.732115 -0.130230
C105  C     C_R   0.632008 0.174782 0.708323 -0.029342
C106  C     C_R   0.699264 0.079089 0.724309 0.273129
C107  C     C_R   0.703183 0.068258 0.764027 -0.069092
C108  C     C_R   0.636211 0.149119 0.787829 0.032060
C109  C     C_R   0.539892 0.224980 0.645836 -0.149675
C110  C     C_R   0.534634 0.251792 0.607594 -0.125421
C111  C     C_R   0.712919 0.209322 0.610996 -0.119147
C112  C     C_R   0.718550 0.180623 0.649212 -0.051971
C113  C     C_R   0.630918 0.191949 0.667032 0.031331
C114  C     C_R   0.619843 0.248249 0.590273 0.015637
H43   H     H_    0.636076 0.961398 0.889945 0.171328
H44   H     H_    0.789513 0.154567 0.665424 0.190284
H45   H     H_    0.515868 0.330779 0.719884 0.123357
H46   H     H_    0.757903 0.995439 0.776352 0.161999
H47   H     H_    0.472153 0.232720 0.659287 0.107390
H48   H     H_    0.461783 0.281366 0.592426 0.143225
H49   H     H_    0.779643 0.205793 0.598329 0.147169
O14   O     O_R   0.834210 0.019400 0.034570 -0.420250
O15   O     O_R   0.002210 0.824620 0.031030 -0.445039
C115  C     C_R   0.049338 0.737200 0.047413 0.585792
O16   O     O_R   0.024400 0.669340 0.039790 -0.460854
O17   O     O_R   0.830490 0.694950 0.045870 -0.497382
C116  C     C_R   0.745942 0.745384 0.063304 0.540183
O18   O     O_R   0.675430 0.831160 0.051290 -0.522206
O19   O     O_R   0.698870 0.998880 0.039560 -0.524267
C117  C     C_R   0.748421 0.044324 0.049546 0.547702
O20   O     O_R   0.811290 0.006780 0.950620 -0.446403
O21   O     O_R   0.980960 0.812920 0.953200 -0.444948
C118  C     C_R   0.013978 0.723495 0.938760 0.572190
O22   O     O_R   0.001480 0.656720 0.955830 -0.512037
O23   O     O_R   0.809240 0.683250 0.968050 -0.512637
C119  C     C_R   0.717547 0.729482 0.954869 0.537863
O24   O     O_R   0.652500 0.818540 0.967340 -0.476999
O25   O     O_R   0.677620 0.987170 0.961730 -0.516073
C120  C     C_R   0.720915 0.025798 0.942794 0.542207
Cr4   Cr    Cr6+3 0.905130 0.911420 0.992650 1.202367
Cr5   Cr    Cr6+3 0.911860 0.682710 0.002320 1.080485
Cr6   Cr    Cr6+3 0.682710 0.906840 0.004710 1.024373
O26   O     O_3   0.833240 0.833660 0.999890 -0.286742
N1    N     N_R   0.192575 0.530884 0.078539 0.096656
O27   O     O_R   0.226061 0.519622 0.043617 -0.320256
O28   O     O_R   0.197473 0.452711 0.095526 -0.322633
N2    N     N_R   0.098548 0.893950 0.081687 0.094399
O29   O     O_R   0.136283 0.886579 0.047740 -0.293941
O30   O     O_R   0.062790 0.980068 0.100445 -0.280334
N3    N     N_R   0.022652 0.663604 0.204706 0.045429
O31   O     O_R   0.988709 0.609618 0.220885 -0.423739
O32   O     O_R   0.974952 0.715141 0.174163 -0.380037
N4    N     N_R   0.841430 0.171911 0.079965 0.125639
O33   O     O_R   0.910042 0.184289 0.099115 -0.280343
O34   O     O_R   0.826919 0.195302 0.043714 -0.321064
O35   O     O_3   0.474176 0.220454 0.326925 -0.592507
C121  C     C_3   0.378402 0.256854 0.345051 -0.012392
H50   H     H_    0.320523 0.267510 0.322479 0.126465
H51   H     H_    0.349057 0.333786 0.358570 0.121350
C122  C     C_3   0.382435 0.178415 0.373419 -0.267571
H52   H     H_    0.384734 0.113170 0.357337 0.159004
H53   H     H_    0.452756 0.147031 0.391735 0.176062
C123  C     C_3   0.288750 0.225610 0.399079 -0.470539
H54   H     H_    0.286730 0.288750 0.416784 0.153492
H55   H     H_    0.292393 0.166805 0.418621 0.160993
H56   H     H_    0.217467 0.255539 0.381275 0.156863
O36   O     O_3   0.441699 0.400240 0.263569 -0.557508
C124  C     C_3   0.365152 0.371464 0.261362 0.029210
H57   H     H_    0.314490 0.407763 0.286263 0.146553
H58   H     H_    0.395784 0.287617 0.263331 0.152385
C125  C     C_3   0.300517 0.408951 0.224416 -0.268800
H59   H     H_    0.279283 0.489314 0.219521 0.195721
H60   H     H_    0.345055 0.361726 0.199595 0.234110
C126  C     C_3   0.204090 0.400102 0.226614 -0.465157
H61   H     H_    0.224889 0.319285 0.230516 0.130237
H62   H     H_    0.158829 0.427787 0.199458 0.212627
H63   H     H_    0.156289 0.446512 0.251042 0.176763
O37   O     O_3   0.490693 0.384488 0.186120 -0.546180
C127  C     C_3   0.524666 0.455613 0.182144 0.012662
H64   H     H_    0.603144 0.418140 0.169978 0.126514
H65   H     H_    0.525027 0.491594 0.210500 0.148651
C128  C     C_3   0.451691 0.538885 0.154768 -0.247407
H66   H     H_    0.450080 0.504490 0.126324 0.195351
H67   H     H_    0.373699 0.576068 0.166757 0.174704
C129  C     C_3   0.483372 0.619208 0.149555 -0.489351
H68   H     H_    0.484398 0.654995 0.177719 0.137819
H69   H     H_    0.427661 0.679482 0.130043 0.159803
H70   H     H_    0.560651 0.583987 0.136732 0.164471
N5    N     N_R   0.761750 0.322982 0.389303 0.090928
O38   O     O_R   0.786161 0.381784 0.371061 -0.382193
O39   O     O_R   0.830154 0.254598 0.412064 -0.301635
O40   O     O_3   0.506284 0.186868 0.154011 -0.542415
C130  C     C_3   0.514467 0.092200 0.162800 0.002135
H71   H     H_    0.561518 0.061823 0.189505 0.142756
H72   H     H_    0.549965 0.034298 0.139310 0.130740
C131  C     C_3   0.406989 0.109237 0.169453 -0.243216
H73   H     H_    0.376724 0.153619 0.196557 0.154521
H74   H     H_    0.355269 0.154191 0.145367 0.211034
C132  C     C_3   0.406885 0.008553 0.171666 -0.480076
H75   H     H_    0.432091 0.965809 0.143998 0.154966
H76   H     H_    0.328150 0.023938 0.177380 0.155493
H77   H     H_    0.458743 0.961087 0.195146 0.181749
O41   O     O_3   0.512949 0.813169 0.917299 -0.517739
C133  C     C_3   0.480369 0.775661 0.947807 0.039729
H78   H     H_    0.426646 0.842221 0.965553 0.178237
H79   H     H_    0.544316 0.725093 0.967505 0.116713
C134  C     C_3   0.423787 0.720233 0.932949 -0.246837
H80   H     H_    0.354243 0.773984 0.916360 0.258241
H81   H     H_    0.474236 0.655602 0.913732 0.177354
C135  C     C_3   0.392031 0.678406 0.966216 -0.438935
H82   H     H_    0.460187 0.626148 0.983753 0.127927
H83   H     H_    0.354973 0.635238 0.954742 0.192214
H84   H     H_    0.336927 0.741841 0.984843 0.208719
O42   O     O_3   0.547632 0.568900 0.809277 -0.527011
C136  C     C_3   0.466471 0.560410 0.791690 0.045670
H85   H     H_    0.435867 0.531203 0.813770 0.192308
H86   H     H_    0.493257 0.501835 0.768344 0.163275
C137  C     C_3   0.378377 0.664754 0.779175 -0.278185
H87   H     H_    0.342309 0.712482 0.805129 0.221584
H88   H     H_    0.406577 0.705538 0.761450 0.186072
C138  C     C_3   0.297742 0.652831 0.755988 -0.500607
H89   H     H_    0.331146 0.607898 0.729235 0.141898
H90   H     H_    0.234162 0.729308 0.748015 0.167875
H91   H     H_    0.267293 0.613610 0.773442 0.161078
N6    N     N_R   0.854139 0.474389 0.850389 0.086879
O43   O     O_R   0.838216 0.416539 0.826166 -0.244871
O44   O     O_R   0.946795 0.442566 0.863545 -0.354059
N7    N     N_R   0.505147 0.776913 0.838160 0.091855
O45   O     O_R   0.514334 0.807745 0.804643 -0.407885
O46   O     O_R   0.413940 0.812688 0.852001 -0.331694
N8    N     N_R   0.114952 0.824299 0.899747 0.085043
O47   O     O_R   0.111519 0.903354 0.884102 -0.297004
O48   O     O_R   0.162331 0.793142 0.932693 -0.346762
N9    N     N_R   0.018536 0.604254 0.629594 0.071186
O49   O     O_R   0.936821 0.662964 0.649219 -0.348734
O50   O     O_R   0.023269 0.526450 0.610879 -0.357813
N10   N     N_R   0.000576 0.889321 0.693903 0.091215
O51   O     O_R   0.971350 0.899633 0.657948 -0.308109
O52   O     O_R   0.991137 0.968714 0.712904 -0.322381
O53   O     O_3   0.716387 0.210779 0.920127 -0.491588
C139  C     C_3   0.638691 0.269326 0.946820 0.036647
H92   H     H_    0.634599 0.218750 0.968575 0.132439
H93   H     H_    0.562184 0.313883 0.932324 0.125195
C140  C     C_3   0.664163 0.344618 0.967429 -0.219128
H94   H     H_    0.744143 0.303311 0.978811 0.239055
H95   H     H_    0.658113 0.402161 0.946613 0.191473
C141  C     C_3   0.591705 0.398924 0.000682 -0.466463
H96   H     H_    0.510993 0.439755 0.990066 0.155635
H97   H     H_    0.610229 0.455124 0.014319 0.155707
H98   H     H_    0.600348 0.343022 0.022730 0.181492
O54   O     O_3   0.508508 0.330734 0.794190 -0.562262
C142  C     C_3   0.425488 0.328807 0.811532 -0.006354
H99   H     H_    0.395145 0.390244 0.833824 0.160816
H100  H     H_    0.448992 0.257216 0.827103 0.115458
C143  C     C_3   0.338771 0.350004 0.782570 -0.301205
H101  H     H_    0.317094 0.421221 0.766796 0.163389
H102  H     H_    0.364935 0.286063 0.761392 0.146560
C144  C     C_3   0.245205 0.361125 0.803112 -0.462163
H103  H     H_    0.267059 0.294759 0.821843 0.163123
H104  H     H_    0.187366 0.365449 0.781612 0.164066
H105  H     H_    0.210638 0.431576 0.821192 0.163057
O55   O     O_3   0.605912 0.991405 0.817265 -0.570971
C145  C     C_3   0.501636 0.038641 0.805612 0.007896
H106  H     H_    0.495888 0.990580 0.782113 0.187671
H107  H     H_    0.474755 0.114530 0.792835 0.099287
C146  C     C_3   0.431759 0.045990 0.838494 -0.243951
H108  H     H_    0.469048 0.974417 0.855236 0.249088
H109  H     H_    0.419248 0.110029 0.858187 0.133324
C147  C     C_3   0.328071 0.063981 0.823204 -0.403580
H110  H     H_    0.290965 0.132535 0.804843 0.133824
H111  H     H_    0.277359 0.075280 0.847677 0.200954
H112  H     H_    0.337756 0.997136 0.805911 0.216029
O56   O     O_3   0.765087 0.996228 0.701890 -0.515581
C148  C     C_3   0.710345 0.953384 0.683101 0.029950
H113  H     H_    0.759253 0.902140 0.659767 0.209562
H114  H     H_    0.638492 0.012029 0.668890 0.121691
C149  C     C_3   0.686876 0.890010 0.710633 -0.281591
H115  H     H_    0.759673 0.825830 0.722004 0.192210
H116  H     H_    0.641724 0.937976 0.735222 0.175271
C150  C     C_3   0.624183 0.848437 0.690297 -0.471065
H117  H     H_    0.553629 0.911204 0.677017 0.145718
H118  H     H_    0.600650 0.810992 0.711638 0.178216
H119  H     H_    0.670423 0.792266 0.667666 0.187752
O57   O     O_3   0.607944 0.835885 0.301068 -0.570866
C151  C     C_3   0.502695 0.894286 0.290571 0.023718
H120  H     H_    0.457040 0.896189 0.315498 0.131658
H121  H     H_    0.478548 0.863118 0.265467 0.115372
C152  C     C_3   0.475761 0.003755 0.282027 -0.240943
H122  H     H_    0.500968 0.034613 0.306581 0.211121
H123  H     H_    0.516749 0.005115 0.256225 0.198473
C153  C     C_3   0.360715 0.071774 0.275003 -0.491732
H124  H     H_    0.334351 0.041793 0.250516 0.148511
H125  H     H_    0.343728 0.150006 0.268130 0.143026
H126  H     H_    0.317421 0.075352 0.300905 0.144713
N11   N     N_R   0.690950 0.263564 0.842829 0.150996
O58   O     O_R   0.750239 0.245827 0.813651 -0.264199
O59   O     O_R   0.656698 0.349467 0.861694 -0.269950
O60   O     O_3   0.646771 0.841457 0.223429 -0.611164
C154  C     C_3   0.736272 0.848314 0.218398 0.016336
H127  H     H_    0.726606 0.890332 0.191421 0.149427
H128  H     H_    0.806647 0.772767 0.214598 0.218778
C155  C     C_3   0.751050 0.907552 0.251944 -0.273437
H129  H     H_    0.692588 0.989459 0.249656 0.162655
H130  H     H_    0.740882 0.879628 0.279754 0.222283
C156  C     C_3   0.858197 0.894592 0.252190 -0.458037
H131  H     H_    0.914669 0.814925 0.259479 0.184491
H132  H     H_    0.864605 0.944757 0.274522 0.141168
H133  H     H_    0.876291 0.912734 0.223691 0.172259

loop_
_geom_bond_atom_site_label_1
_geom_bond_atom_site_label_2
_geom_bond_distance
_ccdc_geom_bond_type
C154  H127  1.110855 S    
C52   C53   1.388511 A    
C19   H7    1.083046 S    
C69   C77   1.475900 S    
C73   C74   1.400253 A    
C4    C114  1.469592 S    
C100  C108  1.467820 S    
C99   C100  1.414162 A    
C71   H30   1.083519 S    
O4    C2    1.279041 A    
C65   C66   1.414755 A    
C94   C95   1.418365 A    
C136  C137  1.535300 S    
C67   C68   1.419670 A    
C69   C70   1.397785 A    
C131  H74   1.111823 S    
C141  H98   1.111263 S    
C30   N2    1.437018 S    
C19   C20   1.380668 A    
C146  H108  1.110576 S    
O23   C119  1.274703 A    
C92   C96   1.400490 A    
C58   O35   1.396956 S    
C33   C34   1.402305 A    
Cr3   O13   1.982459 S    
C8    H1    1.082964 S    
C61   C119  1.488119 S    
C63   C64   1.410733 A    
N11   O59   1.301256 A    
C103  C104  1.395566 A    
C142  H100  1.107380 S    
C98   H43   1.084732 S    
C39   H19   1.082930 S    
N1    O27   1.301713 A    
C25   C26   1.421007 A    
C88   N10   1.440642 S    
C91   C92   1.394481 A    
C149  H116  1.108734 S    
O57   C151  1.419389 S    
C32   H12   1.082853 S    
C109  C113  1.397389 A    
O23   Cr5   1.922284 S    
O12   Cr3   1.921517 S    
C13   H5    1.083257 S    
C144  H103  1.109246 S    
C67   C72   1.409122 A    
C121  H50   1.109572 S    
C21   C22   1.398258 A    
C39   C42   1.405900 A    
C126  H62   1.110253 S    
C66   O41   1.388088 S    
C31   H13   1.083529 S    
C86   H35   1.083464 S    
C37   H16   1.081879 S    
C135  H83   1.110357 S    
C154  C155  1.531804 S    
C100  C101  1.416625 A    
C2    C24   1.456286 S    
O53   C139  1.414167 S    
C57   C60   1.406136 A    
C112  H44   1.083357 S    
O20   C120  1.265147 A    
O9    Cr2   2.045128 S    
O2    Cr1   1.922404 S    
C43   C44   1.419647 A    
O25   C120  1.271587 A    
C2    O5    1.264484 A    
C106  O56   1.384687 S    
O19   Cr6   1.924321 S    
N9    O50   1.301481 A    
C81   C82   1.405671 A    
C22   H3    1.083093 S    
N7    O46   1.300270 A    
C21   H10   1.083016 S    
O7    C6    1.272598 A    
C146  C147  1.526832 S    
C138  H90   1.108982 S    
C53   H23   1.081779 S    
O14   Cr4   2.040434 S    
C35   N3    1.442650 S    
C149  H115  1.111757 S    
O3    Cr2   2.039119 S    
O19   C117  1.277333 A    
C53   C54   1.394594 A    
C125  H60   1.108507 S    
C145  H106  1.110551 S    
C97   C98   1.394812 A    
C1    C60   1.482198 S    
O11   Cr3   2.036444 S    
C45   H21   1.083406 S    
C70   C71   1.392151 A    
C79   C80   1.419819 A    
C55   C56   1.393305 A    
N10   O52   1.301542 A    
O4    Cr2   1.928364 S    
C50   C51   1.413390 A    
C123  H54   1.111120 S    
C144  H105  1.110880 S    
C38   C42   1.404587 A    
C64   C72   1.482523 S    
C125  C126  1.525221 S    
C63   N6    1.441526 S    
C22   C23   1.402887 A    
C143  H102  1.110944 S    
C112  C113  1.401393 A    
O17   C116  1.272928 A    
C132  H75   1.110352 S    
C126  H61   1.110680 S    
C33   C41   1.483011 S    
C115  O16   1.275448 A    
C122  H53   1.109105 S    
C141  H97   1.110384 S    
C7    C8    1.401311 A    
C83   C84   1.393415 A    
C17   O60   1.385059 S    
C129  H70   1.110835 S    
C40   C41   1.404281 A    
C127  H64   1.114959 S    
Cr4   O26   1.976000 S    
C155  H129  1.109357 S    
C17   C18   1.411832 A    
N2    O30   1.300193 A    
C140  H95   1.111911 S    
C148  H113  1.110970 S    
C121  C122  1.537216 S    
C85   C90   1.400605 A    
C147  H111  1.110288 S    
O42   C136  1.412053 S    
C130  C131  1.528405 S    
C104  H45   1.084157 S    
C131  C132  1.526016 S    
C9    C10   1.401367 A    
O21   C118  1.280046 A    
C13   C14   1.390880 A    
C152  H123  1.108143 S    
C15   C16   1.405699 A    
C156  H131  1.105400 S    
C145  C146  1.537902 S    
O12   C6    1.279517 A    
C61   C66   1.415012 A    
C7    C12   1.406053 A    
C93   H42   1.083214 S    
C134  H81   1.111287 S    
C141  H96   1.110722 S    
C153  H126  1.109794 S    
C74   C78   1.407295 A    
C151  H121  1.118022 S    
C156  H133  1.110261 S    
C50   O36   1.381604 S    
C1    O3    1.286135 A    
C26   C27   1.397759 A    
C122  C123  1.525397 S    
C80   C81   1.408624 A    
C28   C29   1.397176 A    
C47   O40   1.385305 S    
C87   C88   1.418763 A    
C27   C28   1.396420 A    
C133  H78   1.110859 S    
C150  H119  1.110626 S    
C150  H118  1.108634 S    
C132  H77   1.108259 S    
C76   C77   1.402650 A    
C31   C32   1.393320 A    
C48   H20   1.083138 S    
C128  H66   1.111789 S    
C136  H86   1.110568 S    
C38   H17   1.082887 S    
C5    C78   1.475786 S    
C20   H8    1.083522 S    
C26   N1    1.439506 S    
C35   C36   1.418004 A    
C139  C140  1.528129 S    
C82   C90   1.487109 S    
C56   C60   1.414334 A    
C37   C38   1.395892 A    
C94   N9    1.441123 S    
C4    O9    1.271467 A    
C146  H109  1.111367 S    
C124  H57   1.108016 S    
C127  C128  1.524581 S    
N6    O43   1.301451 A    
O10   C5    1.277708 A    
C111  H49   1.082952 S    
C155  C156  1.523582 S    
C11   H9    1.082760 S    
C92   H40   1.082665 S    
C29   C30   1.405001 A    
C62   H26   1.082802 S    
C148  C149  1.534845 S    
C6    C96   1.477160 S    
O18   Cr6   2.041067 S    
C133  C134  1.535567 S    
N11   O58   1.301282 A    
C86   C87   1.403633 A    
O15   C115  1.286929 A    
C107  H46   1.084342 S    
C44   N4    1.439454 S    
O8    Cr1   1.925579 S    
C10   C11   1.399130 A    
C153  H124  1.109232 S    
C74   H32   1.083040 S    
N1    O28   1.301682 A    
C152  C153  1.527230 S    
C106  C107  1.391155 A    
C49   O37   1.380735 S    
O36   C124  1.418458 S    
C123  H56   1.110973 S    
C14   C15   1.400804 A    
C129  H68   1.111018 S    
C34   H15   1.082661 S    
C144  H104  1.110024 S    
O14   C117  1.273050 A    
C43   C48   1.405990 A    
N3    O31   1.301356 A    
C75   H33   1.082633 S    
C138  H89   1.111004 S    
C105  C113  1.463557 S    
C97   C120  1.457218 S    
C52   H22   1.081980 S    
C46   C54   1.464482 S    
C119  O24   1.281389 A    
C154  H128  1.113594 S    
C93   C96   1.404295 A    
C14   H4    1.083674 S    
C55   C59   1.399746 A    
N5    O39   1.301029 A    
C56   N5    1.434598 S    
O1    Cr1   2.042505 S    
C70   H29   1.083401 S    
O10   Cr2   1.921481 S    
C67   O42   1.400904 S    
O1    C3    1.274128 A    
C49   C50   1.406969 A    
C130  H71   1.112331 S    
N10   O51   1.301452 A    
C7    C116  1.463188 S    
C51   C52   1.400798 A    
C28   C36   1.473566 S    
C32   C33   1.404478 A    
O54   C142  1.414220 S    
C13   C18   1.399023 A    
C128  C129  1.524159 S    
C89   H38   1.082953 S    
C118  O22   1.276257 A    
C34   C35   1.404551 A    
C19   C23   1.395107 A    
C139  H92   1.112193 S    
C131  H73   1.111019 S    
C101  C102  1.405552 A    
C137  C138  1.520897 S    
O7    Cr1   2.038627 S    
N5    O38   1.300045 A    
C91   H39   1.083475 S    
C85   C86   1.390754 A    
C57   H25   1.076811 S    
C109  H47   1.083670 S    
Cr2   O13   1.974972 S    
C82   C83   1.401053 A    
C109  C110  1.388377 A    
O21   Cr4   1.922357 S    
C104  C105  1.403185 A    
C142  H99   1.110963 S    
N9    O49   1.301721 A    
C65   N7    1.441553 S    
C91   C95   1.405726 A    
C149  C150  1.522191 S    
C21   C24   1.401295 A    
C64   C65   1.421987 A    
C116  O18   1.271099 A    
C16   C17   1.400211 A    
C121  H51   1.114506 S    
O40   C130  1.413820 S    
C147  H110  1.109337 S    
C87   C95   1.485856 S    
O56   C148  1.416280 S    
O5    Cr3   2.040223 S    
C68   C69   1.403919 A    
C143  H101  1.111486 S    
O41   C133  1.420873 S    
C57   C58   1.412034 A    
C130  H72   1.114612 S    
C89   C90   1.406380 A    
C110  C114  1.406661 A    
C135  H82   1.110029 S    
C47   C48   1.394993 A    
C62   C63   1.395963 A    
Cr5   O26   1.982766 S    
C93   C94   1.407872 A    
C84   H34   1.082867 S    
C27   H14   1.082593 S    
C142  C143  1.532996 S    
O20   Cr4   2.043623 S    
C151  H120  1.110879 S    
C107  C108  1.401679 A    
N6    O44   1.301510 A    
C111  C112  1.395269 A    
C105  C106  1.406537 A    
O25   Cr6   1.923969 S    
C25   C115  1.492322 S    
C16   O57   1.387631 S    
C155  H130  1.108225 S    
C46   C47   1.400765 A    
C152  H122  1.109201 S    
C31   C36   1.401237 A    
N2    O29   1.301575 A    
O37   C127  1.411411 S    
C140  C141  1.526458 S    
C125  H59   1.107785 S    
C98   C99   1.387441 A    
C148  H114  1.112937 S    
C101  N11   1.439389 S    
N7    O45   1.301207 A    
C68   H28   1.079454 S    
C138  H91   1.109454 S    
C40   H11   1.082876 S    
C5    O11   1.274386 A    
C75   C76   1.392025 A    
C25   C30   1.419330 A    
O22   Cr5   2.035272 S    
C76   H27   1.083655 S    
C102  O53   1.385546 S    
C51   C59   1.473849 S    
C10   C18   1.464294 S    
N4    O33   1.301445 A    
O6    C3    1.277394 A    
C145  H107  1.109070 S    
C134  H80   1.110438 S    
C103  C108  1.413813 A    
C80   N8    1.439685 S    
C153  H125  1.109060 S    
C156  H132  1.108112 S    
C61   C62   1.405626 A    
O15   Cr4   1.926725 S    
C55   H24   1.084737 S    
C71   C72   1.404732 A    
C37   C41   1.406433 A    
C20   C24   1.403207 A    
Cr1   O13   1.975754 S    
C8    C9    1.386980 A    
C73   H31   1.083061 S    
O35   C121  1.420630 S    
Cr6   O26   1.974670 S    
C143  C144  1.526650 S    
C133  H79   1.112804 S    
C129  H69   1.110589 S    
C126  H63   1.110301 S    
O16   Cr5   2.040111 S    
C132  H76   1.110119 S    
C135  H84   1.110910 S    
O17   Cr5   1.919415 S    
C81   H37   1.083124 S    
C128  H67   1.106704 S    
C83   H41   1.082939 S    
C99   O55   1.386365 S    
C58   C59   1.409699 A    
C137  H87   1.111188 S    
C139  H93   1.116919 S    
C73   C77   1.402907 A    
C29   H18   1.083252 S    
N4    O34   1.300872 A    
C137  H88   1.109629 S    
C39   C40   1.394628 A    
C124  H58   1.115593 S    
C127  H65   1.115941 S    
C103  O54   1.386696 S    
C111  C114  1.405114 A    
C43   C117  1.482355 S    
C49   C54   1.402555 A    
N8    O47   1.301541 A    
O24   Cr6   2.040940 S    
C140  H94   1.110858 S    
C97   C102  1.410630 A    
C45   C46   1.398913 A    
O6    Cr3   1.919747 S    
C147  H112  1.110238 S    
O8    C4    1.271799 A    
C124  C125  1.529453 S    
C85   H36   1.078285 S    
C88   C89   1.409483 A    
C75   C78   1.404474 A    
C79   C118  1.485322 S    
O55   C145  1.414737 S    
O2    C1    1.300498 A    
C3    C42   1.477286 S    
C123  H55   1.110362 S    
C79   C84   1.408098 A    
C122  H52   1.107678 S    
C110  H48   1.083060 S    
C12   H2    1.083148 S    
O60   C154  1.416096 S    
N8    O48   1.300796 A    
C15   C23   1.456955 S    
C134  C135  1.526369 S    
C44   C45   1.404473 A    
N3    O32   1.301496 A    
C150  H117  1.110813 S    
C151  C152  1.529641 S    
C11   C12   1.391515 A    
C9    H6    1.082840 S    
C136  H85   1.110326 S    
