data_mof_unit_63964.cif
_audit_creation_date              2012-12-10T18:03:40-0500
_audit_creation_method            fapswitch 2.2
_symmetry_space_group_name_H-M    P1
_symmetry_Int_Tables_number       1
_space_group_crystal_system       triclinic
_cell_length_a                    21.582263
_cell_length_b                    21.582264
_cell_length_c                    47.15826
_cell_angle_alpha                 89.999982
_cell_angle_beta                  89.999984
_cell_angle_gamma                 90.008218
_cell_volume                      21966.0389438

loop_
_atom_site_label
_atom_site_type_symbol
_atom_type_description
_atom_site_fract_x
_atom_site_fract_y
_atom_site_fract_z
_atom_type_partial_charge
C1    C     C_R   0.000001 0.120234 0.000000 0.857379
C2    C     C_R   0.500000 1.000000 0.764971 -0.018865
C3    C     C_R   0.042141 0.718154 0.982807 -0.169232
C4    C     C_R   0.281957 0.959288 0.017941 -0.168917
C5    C     C_R   0.957875 0.718141 0.017199 -0.167344
C6    C     C_R   0.718043 0.040713 0.017941 -0.168917
C7    C     C_R   0.042123 0.281859 0.017199 -0.167345
C8    C     C_R   0.781859 0.542122 0.482801 -0.168801
C9    C     C_R   0.459283 0.781956 0.482060 -0.167582
C10   C     C_R   0.218141 0.457877 0.482801 -0.168802
C11   C     C_R   0.540718 0.218044 0.482061 -0.167583
C12   C     C_R   0.781846 0.457862 0.517195 -0.167809
C13   C     C_R   1.000000 0.500000 0.235035 -0.018920
C14   C     C_R   0.459167 0.218043 0.517798 -0.167909
C15   C     C_R   0.218154 0.542138 0.517195 -0.167809
C16   C     C_R   0.540833 0.781957 0.517798 -0.167907
C17   C     C_R   0.313600 0.000035 0.000057 -0.012575
C18   C     C_R   0.999990 0.313529 0.000003 -0.019082
C19   C     C_R   0.686400 0.999965 0.000057 -0.012576
C20   C     C_R   0.000010 0.686470 0.000003 -0.019083
C21   C     C_R   0.813530 0.499991 0.499997 -0.019065
C22   C     C_R   0.500035 0.813599 0.499942 -0.012663
C23   C     C_R   0.186470 0.500009 0.499997 -0.019065
C24   C     C_R   0.500000 1.000000 0.235005 -0.018701
C25   C     C_R   0.499965 0.186400 0.499942 -0.012663
C26   C     C_R   0.186353 0.999983 0.000021 -0.014845
C27   C     C_R   0.999998 0.186283 0.000001 -0.013335
C28   C     C_R   0.813647 0.000017 0.000021 -0.014845
C29   C     C_R   0.000002 0.813717 0.000001 -0.013333
C30   C     C_R   0.686283 0.499998 0.500000 -0.013308
C31   C     C_R   0.499983 0.686352 0.499979 -0.014887
C32   C     C_R   0.313717 0.500002 0.500000 -0.013308
C33   C     C_R   0.500017 0.313648 0.499979 -0.014886
C34   C     C_R   0.500000 0.000000 0.055451 0.870166
C35   C     C_R   0.500000 1.000000 0.264889 -0.018861
C36   C     C_R   0.000000 0.500000 0.055476 0.872346
C37   C     C_R   0.500000 0.000000 0.944522 0.871877
C38   C     C_R   1.000000 0.500000 0.944524 0.871553
C39   C     C_R   0.000000 0.500000 0.555476 0.872438
C40   C     C_R   0.500000 0.000000 0.555478 0.871107
C41   C     C_R   0.000000 0.500000 0.444524 0.871481
C42   C     C_R   0.500000 1.000000 0.444549 0.871346
C43   C     C_R   0.379719 0.000005 0.000028 0.861974
C44   C     C_R   0.999996 0.379695 0.000001 0.862285
C45   C     C_R   0.620281 0.999995 0.000028 0.861974
C46   C     C_R   1.000000 0.500000 0.264904 -0.018891
C47   C     C_R   0.000004 0.620305 0.000001 0.862284
C48   C     C_R   0.879695 0.499996 0.499999 0.862290
C49   C     C_R   0.500005 0.879719 0.499972 0.861953
C50   C     C_R   0.120305 0.500004 0.499999 0.862290
C51   C     C_R   0.499995 0.120281 0.499972 0.861953
C52   C     C_R   0.050301 0.476783 0.809487 0.511744
C53   C     C_R   0.550356 0.023113 0.809552 0.512364
C54   C     C_R   0.949699 0.523218 0.809487 0.511744
C55   C     C_R   0.449644 0.976887 0.809552 0.512364
C56   C     C_R   0.023043 0.550388 0.190452 0.512118
C57   C     C_R   0.500000 1.000000 0.735102 -0.018840
C58   C     C_R   0.477044 0.949580 0.190400 0.511803
C59   C     C_R   0.976956 0.449612 0.190452 0.512117
C60   C     C_R   0.522956 0.050420 0.190400 0.511803
C61   C     C_R   0.476684 0.949745 0.309493 0.511538
C62   C     C_R   0.023237 0.550299 0.309487 0.511517
C63   C     C_R   0.523316 0.050255 0.309493 0.511539
C64   C     C_R   0.976763 0.449701 0.309487 0.511517
C65   C     C_R   0.550248 0.023347 0.690521 0.511690
C66   C     C_R   0.050390 0.476976 0.690452 0.512335
C67   C     C_R   0.449752 0.976653 0.690521 0.511689
C68   C     C_R   1.000000 0.500000 0.735035 -0.018847
C69   C     C_R   0.949610 0.523024 0.690452 0.512335
C70   C     C_R   0.948564 0.523546 0.779803 -0.020232
C71   C     C_R   0.448560 0.976430 0.779870 -0.020276
C72   C     C_R   0.051436 0.476454 0.779803 -0.020231
C73   C     C_R   0.551440 0.023570 0.779870 -0.020275
C74   C     C_R   0.976513 0.448523 0.220136 -0.020465
C75   C     C_R   0.523446 0.051486 0.220098 -0.020898
C76   C     C_R   0.023486 0.551477 0.220136 -0.020465
C77   C     C_R   0.476555 0.948513 0.220098 -0.020898
C78   C     C_R   0.523594 0.051406 0.279794 -0.019930
C79   C     C_R   0.897509 0.546892 0.764747 -0.152659
C80   C     C_R   0.976434 0.448567 0.279803 -0.020428
C81   C     C_R   0.476406 0.948594 0.279794 -0.019931
C82   C     C_R   0.023566 0.551433 0.279803 -0.020428
C83   C     C_R   0.448613 0.976334 0.720205 -0.020170
C84   C     C_R   0.948521 0.523466 0.720136 -0.020266
C85   C     C_R   0.551387 0.023666 0.720205 -0.020170
C86   C     C_R   0.051479 0.476534 0.720136 -0.020266
C87   C     C_1   0.587453 0.924106 0.087316 0.197139
C88   C     C_1   0.917042 0.581037 0.087568 0.202309
C89   C     C_1   0.412547 0.075894 0.087316 0.197139
C90   C     C_R   0.397560 0.952955 0.764815 -0.152953
C91   C     C_1   0.082958 0.418963 0.087568 0.202309
C92   C     C_1   0.580510 0.916510 0.912413 0.202205
C93   C     C_1   0.082950 0.581059 0.912434 0.202292
C94   C     C_1   0.419490 0.083490 0.912413 0.202205
C95   C     C_1   0.917050 0.418941 0.912434 0.202292
C96   C     C_1   0.918952 0.417030 0.587567 0.202849
C97   C     C_1   0.416529 0.080518 0.587585 0.201725
C98   C     C_1   0.081048 0.582970 0.587567 0.202849
C99   C     C_1   0.583471 0.919481 0.587585 0.201725
C100  C     C_1   0.081039 0.417053 0.412433 0.201711
C101  C     C_R   0.102491 0.453108 0.764747 -0.152659
C102  C     C_1   0.575818 0.912496 0.412689 0.198467
C103  C     C_1   0.918961 0.582947 0.412433 0.201711
C104  C     C_1   0.424182 0.087504 0.412689 0.198467
C105  C     C_R   0.879742 0.000025 0.000003 0.857286
C106  C     C_R   0.602440 0.047045 0.764815 -0.152952
C107  C     C_R   0.953131 0.397481 0.235191 -0.152997
C108  C     C_R   0.546831 0.102518 0.235164 -0.152967
C109  C     C_R   0.046869 0.602519 0.235191 -0.152996
C110  C     C_R   0.453169 0.897481 0.235164 -0.152966
C111  C     C_R   0.546949 0.102458 0.264727 -0.152865
C112  C     C_R   0.953067 0.397514 0.264746 -0.152754
C113  C     C_R   0.453051 0.897542 0.264727 -0.152866
C114  C     C_R   0.046932 0.602486 0.264746 -0.152754
C115  C     C_R   0.397600 0.952878 0.735260 -0.152674
C116  C     C_R   0.999999 0.879766 0.000000 0.857379
C117  C     C_R   0.897477 0.546828 0.735191 -0.152913
C118  C     C_R   0.602400 0.047122 0.735260 -0.152674
C119  C     C_R   0.102524 0.453172 0.735191 -0.152913
C120  C     C_R   0.541588 0.962292 0.131231 -0.133464
C121  C     C_R   0.959229 0.538554 0.131325 -0.133761
C122  C     C_R   0.458412 0.037708 0.131231 -0.133464
C123  C     C_R   0.040770 0.461446 0.131325 -0.133761
C124  C     C_R   0.538307 0.959000 0.868667 -0.133852
C125  C     C_R   0.040768 0.538566 0.868676 -0.132073
C126  C     C_R   0.461693 0.041000 0.868667 -0.133852
C127  C     C_R   0.120258 0.999974 0.000003 0.857286
C128  C     C_R   0.959232 0.461434 0.868676 -0.132074
C129  C     C_R   0.961441 0.459223 0.631325 -0.133576
C130  C     C_R   0.459008 0.038313 0.631332 -0.132129
C131  C     C_R   0.038559 0.540777 0.631325 -0.133575
C132  C     C_R   0.540992 0.961687 0.631332 -0.132129
C133  C     C_R   0.038556 0.459234 0.368675 -0.132287
C134  C     C_R   0.537670 0.958380 0.368773 -0.131978
C135  C     C_R   0.961444 0.540767 0.368675 -0.132287
C136  C     C_R   0.462330 0.041620 0.368773 -0.131978
C137  C     C_R   0.542018 0.962024 0.101657 -0.051191
C138  C     C_R   0.499974 0.620258 0.499997 0.857287
C139  C     C_R   0.958821 0.538907 0.101766 -0.047230
C140  C     C_R   0.457982 0.037976 0.101657 -0.051191
C141  C     C_R   0.041178 0.461093 0.101766 -0.047230
C142  C     C_R   0.538653 0.958580 0.898225 -0.047258
C143  C     C_R   0.041190 0.538899 0.898235 -0.047504
C144  C     C_R   0.461347 0.041420 0.898225 -0.047258
C145  C     C_R   0.958810 0.461101 0.898235 -0.047504
C146  C     C_R   0.961088 0.458815 0.601766 -0.047336
C147  C     C_R   0.458575 0.038638 0.601774 -0.047608
C148  C     C_R   0.038912 0.541184 0.601766 -0.047336
C149  C     C_R   0.379766 0.500000 0.500000 0.857379
C150  C     C_R   0.541425 0.961362 0.601774 -0.047608
C151  C     C_R   0.038889 0.458812 0.398234 -0.047388
C152  C     C_R   0.537916 0.957942 0.398345 -0.053394
C153  C     C_R   0.961111 0.541188 0.398234 -0.047388
C154  C     C_R   0.462084 0.042058 0.398345 -0.053393
C155  C     C_R   0.500000 1.000000 0.086580 -0.130114
C156  C     C_R   1.000000 0.500000 0.086643 -0.132029
C157  C     C_R   0.500000 0.000000 0.913352 -0.132260
C158  C     C_R   1.000000 0.500000 0.913356 -0.132455
C159  C     C_R   1.000000 0.500000 0.586643 -0.132075
C160  C     C_R   0.500026 0.379742 0.499997 0.857287
C161  C     C_R   0.500000 0.000000 0.586649 -0.132693
C162  C     C_R   1.000000 0.500000 0.413356 -0.132420
C163  C     C_R   0.500000 1.000000 0.413421 -0.130050
C164  C     C_R   0.500000 1.000000 0.145962 0.283112
C165  C     C_R   1.000000 0.500000 0.146040 0.282268
C166  C     C_R   0.500000 0.000000 0.853956 0.282463
C167  C     C_R   1.000000 0.500000 0.853940 0.278093
C168  C     C_R   1.000000 0.500000 0.646040 0.282025
C169  C     C_R   0.500000 1.000000 0.646068 0.277895
C170  C     C_R   1.000000 0.500000 0.353939 0.278351
C171  C     C_R   0.620234 0.500000 0.500000 0.857379
C172  C     C_R   0.500000 1.000000 0.354003 0.278799
C173  C     C_R   0.217983 0.040114 0.981854 -0.173838
C174  C     C_R   0.958536 0.217867 0.982467 -0.175693
C175  C     C_R   0.782017 0.959885 0.981854 -0.173839
C176  C     C_R   0.041465 0.782133 0.982467 -0.175694
C177  C     C_R   0.217966 0.959932 0.018236 -0.173921
C178  C     C_R   0.958545 0.782120 0.017536 -0.174210
C179  C     C_R   0.782034 0.040069 0.018236 -0.173921
C180  C     C_R   0.041454 0.217880 0.017537 -0.174208
C181  C     C_R   0.717880 0.541453 0.482463 -0.174922
C182  C     C_R   1.000000 0.500000 0.764904 -0.018816
C183  C     C_R   0.459926 0.717966 0.481766 -0.173271
C184  C     C_R   0.282120 0.458547 0.482463 -0.174922
C185  C     C_R   0.540074 0.282034 0.481766 -0.173271
C186  C     C_R   0.717867 0.458539 0.517535 -0.175015
C187  C     C_R   0.459879 0.282018 0.518143 -0.174561
C188  C     C_R   0.282133 0.541461 0.517535 -0.175015
C189  C     C_R   0.540121 0.717982 0.518143 -0.174562
C190  C     C_R   0.281958 0.040826 0.982198 -0.166433
C191  C     C_R   0.957859 0.281846 0.982807 -0.169233
C192  C     C_R   0.718042 0.959173 0.982198 -0.166431
H1    H     H_    0.193196 0.071318 0.967871 0.151728
H2    H     H_    0.428733 0.693153 0.467784 0.150262
H3    H     H_    0.306941 0.426311 0.468992 0.150839
H4    H     H_    0.571268 0.306847 0.467784 0.150262
H5    H     H_    0.693036 0.426307 0.531008 0.150366
H6    H     H_    0.428670 0.306805 0.532123 0.151670
H7    H     H_    0.306964 0.573693 0.531008 0.150365
H8    H     H_    0.571329 0.693195 0.532124 0.151670
H9    H     H_    0.306719 0.072242 0.968324 0.163433
H10   H     H_    0.925393 0.306567 0.969436 0.164423
H11   H     H_    0.693281 0.927757 0.968324 0.163433
H12   H     H_    0.926303 0.193035 0.968995 0.150342
H13   H     H_    0.074608 0.693433 0.969437 0.164424
H14   H     H_    0.306738 0.927964 0.031869 0.150973
H15   H     H_    0.925409 0.693411 0.030570 0.164854
H16   H     H_    0.693262 0.072037 0.031869 0.150973
H17   H     H_    0.074589 0.306589 0.030571 0.164853
H18   H     H_    0.806589 0.574586 0.469429 0.164608
H19   H     H_    0.427954 0.806737 0.468135 0.151352
H20   H     H_    0.193411 0.425413 0.469429 0.164608
H21   H     H_    0.572047 0.193263 0.468135 0.151353
H22   H     H_    0.806567 0.425398 0.530567 0.164642
H23   H     H_    0.806804 0.928681 0.967871 0.151728
H24   H     H_    0.427746 0.193282 0.531670 0.163163
H25   H     H_    0.193433 0.574602 0.530567 0.164642
H26   H     H_    0.572254 0.806718 0.531670 0.163162
H27   H     H_    0.857442 0.565246 0.775731 0.194625
H28   H     H_    0.357506 0.934566 0.775801 0.194321
H29   H     H_    0.142558 0.434754 0.775731 0.194625
H30   H     H_    0.642494 0.065434 0.775801 0.194321
H31   H     H_    0.934808 0.357396 0.224205 0.194610
H32   H     H_    0.565133 0.142615 0.224180 0.194731
H33   H     H_    0.065191 0.642604 0.224205 0.194610
H34   H     H_    0.073699 0.806965 0.968995 0.150342
H35   H     H_    0.434867 0.857385 0.224180 0.194731
H36   H     H_    0.565339 0.142516 0.275709 0.194577
H37   H     H_    0.934697 0.357449 0.275731 0.194884
H38   H     H_    0.434661 0.857484 0.275709 0.194577
H39   H     H_    0.065303 0.642551 0.275731 0.194883
H40   H     H_    0.357570 0.934432 0.724275 0.194612
H41   H     H_    0.857389 0.565135 0.724205 0.194345
H42   H     H_    0.642430 0.065568 0.724275 0.194612
H43   H     H_    0.142611 0.434866 0.724205 0.194345
H44   H     H_    0.573904 0.933621 0.142965 0.148329
H45   H     H_    0.193154 0.928743 0.032220 0.150135
H46   H     H_    0.927956 0.568339 0.143073 0.149393
H47   H     H_    0.426096 0.066378 0.142965 0.148329
H48   H     H_    0.072044 0.431661 0.143073 0.149393
H49   H     H_    0.567902 0.927552 0.856915 0.149501
H50   H     H_    0.071829 0.568610 0.856942 0.151243
H51   H     H_    0.432098 0.072448 0.856915 0.149501
H52   H     H_    0.928171 0.431390 0.856942 0.151243
H53   H     H_    0.931652 0.427945 0.643073 0.149745
H54   H     H_    0.427771 0.068165 0.643066 0.151395
H55   H     H_    0.068348 0.572055 0.643073 0.149745
H56   H     H_    0.926307 0.806942 0.031007 0.150928
H57   H     H_    0.572229 0.931835 0.643066 0.151395
H58   H     H_    0.068592 0.428174 0.356941 0.150878
H59   H     H_    0.566591 0.926234 0.357068 0.152092
H60   H     H_    0.931408 0.571826 0.356942 0.150878
H61   H     H_    0.433409 0.073766 0.357068 0.152091
H62   H     H_    0.806846 0.071258 0.032219 0.150134
H63   H     H_    0.073691 0.193058 0.031008 0.150929
H64   H     H_    0.693059 0.573688 0.468992 0.150840
N1    N     N_R   1.000000 0.500000 0.823619 -0.350998
N2    N     N_1   0.883534 0.614783 0.076234 -0.201416
N3    N     N_1   0.376132 0.106192 0.075817 -0.179588
N4    N     N_1   0.116466 0.385217 0.076234 -0.201416
N5    N     N_1   0.614033 0.882763 0.923736 -0.200629
N6    N     N_1   0.116443 0.614827 0.923769 -0.201364
N7    N     N_1   0.385967 0.117237 0.923736 -0.200629
N8    N     N_1   0.883557 0.385173 0.923769 -0.201365
N9    N     N_1   0.885201 0.383518 0.576233 -0.201563
N10   N     N_1   0.382799 0.114058 0.576262 -0.200437
N11   N     N_1   0.114799 0.616481 0.576233 -0.201563
N12   N     N_R   0.500000 0.000000 0.823662 -0.351426
N13   N     N_1   0.617201 0.885942 0.576262 -0.200437
N14   N     N_1   0.114800 0.383561 0.423767 -0.201292
N15   N     N_1   0.606102 0.876071 0.424190 -0.179443
N16   N     N_1   0.885200 0.616439 0.423767 -0.201291
N17   N     N_1   0.393898 0.123929 0.424190 -0.179443
N18   N     N_R   1.000000 0.500000 0.176339 -0.351377
N19   N     N_R   0.500000 1.000000 0.176277 -0.351742
N20   N     N_R   0.500000 1.000000 0.323650 -0.350405
N21   N     N_R   1.000000 0.500000 0.323619 -0.351017
N22   N     N_R   0.500000 1.000000 0.676389 -0.350948
N23   N     N_R   0.000000 0.500000 0.676339 -0.351353
N24   N     N_1   0.623868 0.893808 0.075817 -0.179588
O1    O     O_R   0.999960 0.091640 0.023680 -0.618433
O2    O     O_R   0.408360 0.499960 0.523680 -0.618235
O3    O     O_R   0.500040 0.408360 0.523680 -0.619272
O4    O     O_R   0.591640 0.500040 0.523680 -0.618235
O5    O     O_R   0.499960 0.408360 0.476320 -0.618507
O6    O     O_R   0.408360 0.500040 0.476320 -0.618789
O7    O     O_R   0.500040 0.591640 0.476320 -0.618507
O8    O     O_R   0.591640 0.499960 0.476320 -0.618789
O9    O     O_R   0.499950 0.051720 0.041990 -0.610188
O10   O     O_R   0.948280 0.499950 0.041990 -0.609710
O11   O     O_R   0.500050 0.948280 0.041990 -0.610187
O12   O     O_R   0.908360 0.999960 0.023680 -0.618800
O13   O     O_R   0.051720 0.500050 0.041990 -0.609711
O14   O     O_R   0.499950 0.948280 0.958010 -0.609650
O15   O     O_R   0.948280 0.500050 0.958010 -0.608839
O16   O     O_R   0.500050 0.051720 0.958010 -0.609650
O17   O     O_R   0.051720 0.499950 0.958010 -0.608839
O18   O     O_R   0.999950 0.551720 0.541990 -0.609659
O19   O     O_R   0.448280 0.999950 0.541990 -0.608826
O20   O     O_R   0.000050 0.448280 0.541990 -0.609659
O21   O     O_R   0.551720 0.000050 0.541990 -0.608826
O22   O     O_R   0.999950 0.448280 0.458010 -0.608897
O23   O     O_R   0.000040 0.908360 0.023680 -0.618432
O24   O     O_R   0.448280 0.000050 0.458010 -0.611142
O25   O     O_R   0.000050 0.551720 0.458010 -0.608897
O26   O     O_R   0.551720 0.999950 0.458010 -0.611142
O27   O     O_R   0.408360 0.051710 0.000060 -0.611796
O28   O     O_R   0.948290 0.408360 0.000060 -0.616963
O29   O     O_R   0.591640 0.948290 0.000060 -0.611796
O30   O     O_R   0.051710 0.591640 0.000060 -0.616963
O31   O     O_R   0.408360 0.948290 0.999940 -0.621373
O32   O     O_R   0.948290 0.591640 0.999940 -0.616843
O33   O     O_R   0.591640 0.051710 0.999940 -0.621373
O34   O     O_R   0.091640 0.000040 0.023680 -0.618800
O35   O     O_R   0.051710 0.408360 0.999940 -0.616843
O36   O     O_R   0.908360 0.551710 0.500060 -0.616604
O37   O     O_R   0.448290 0.908360 0.500060 -0.621601
O38   O     O_R   0.091640 0.448290 0.500060 -0.616604
O39   O     O_R   0.551710 0.091640 0.500060 -0.621601
O40   O     O_R   0.908360 0.448290 0.499940 -0.617211
O41   O     O_R   0.448290 0.091640 0.499940 -0.611628
O42   O     O_R   0.091640 0.551710 0.499940 -0.617211
O43   O     O_R   0.551710 0.908360 0.499940 -0.611628
O44   O     O_2   0.098784 0.453710 0.824158 -0.550415
O45   O     O_R   0.999960 0.908360 0.976320 -0.618581
O46   O     O_2   0.598946 0.045895 0.824248 -0.551005
O47   O     O_2   0.901216 0.546291 0.824158 -0.550414
O48   O     O_2   0.401054 0.954105 0.824248 -0.551004
O49   O     O_2   0.045780 0.599004 0.175760 -0.550830
O50   O     O_2   0.454449 0.900900 0.175709 -0.549756
O51   O     O_2   0.954219 0.400996 0.175760 -0.550830
O52   O     O_2   0.545551 0.099100 0.175709 -0.549756
O53   O     O_2   0.453437 0.901315 0.324146 -0.553051
O54   O     O_2   0.046329 0.598779 0.324158 -0.550281
O55   O     O_2   0.546563 0.098685 0.324146 -0.553051
O56   O     O_R   0.908360 0.000040 0.976320 -0.618961
O57   O     O_2   0.953671 0.401221 0.324158 -0.550281
O58   O     O_2   0.598673 0.046559 0.675852 -0.550593
O59   O     O_2   0.099008 0.454258 0.675760 -0.550994
O60   O     O_2   0.401327 0.953441 0.675852 -0.550593
O61   O     O_2   0.900992 0.545742 0.675760 -0.550994
O62   O     O_R   0.000040 0.091640 0.976320 -0.618582
O63   O     O_R   0.091640 0.999960 0.976320 -0.618961
O64   O     O_R   0.499960 0.591640 0.523680 -0.619272
Zn1   Zn    Zn3+2 0.000000 1.000000 0.031620 0.983041
Zn2   Zn    Zn3+2 0.430930 1.000000 0.500000 1.006245
Zn3   Zn    Zn3+2 0.000000 0.430930 0.500000 1.007983
Zn4   Zn    Zn3+2 0.569070 1.000000 0.500000 1.006245
Zn5   Zn    Zn3+2 1.000000 1.000000 0.968380 0.982879
Zn6   Zn    Zn3+2 0.500000 0.500000 0.531620 0.982898
Zn7   Zn    Zn3+2 0.500000 0.500000 0.468380 0.982919
Zn8   Zn    Zn3+2 0.500000 0.069070 0.000000 1.006490
Zn9   Zn    Zn3+2 0.930930 0.500000 0.000000 1.008024
Zn10  Zn    Zn3+2 0.500000 0.930930 0.000000 1.006490
Zn11  Zn    Zn3+2 0.069070 0.500000 0.000000 1.008024
Zn12  Zn    Zn3+2 0.000000 0.569070 0.500000 1.007983

loop_
_geom_bond_atom_site_label_1
_geom_bond_atom_site_label_2
_ccdc_geom_bond_type
O2    Zn6   S    
C60   N19   A    
C6    C179  A    
C10   C184  A    
C107  C112  A    
C133  C151  A    
C12   H22   S    
C4    C177  A    
C113  H38   S    
C129  H53   S    
C34   C155  S    
C68   C182  A    
C87   C137  S    
C108  H32   S    
C128  C145  A    
C72   C101  A    
C69   N23   A    
C132  C150  A    
C91   N4    T    
C179  H62   S    
C62   O54   S    
C84   C117  A    
C89   N3    T    
O39   Zn4   S    
C57   C83   A    
C39   O20   A    
O11   Zn10  S    
C135  H60   S    
C174  C191  A    
C21   C48   S    
C70   C79   A    
C41   C162  S    
C106  C118  A    
O23   Zn1   S    
C43   O27   A    
C64   O57   S    
O19   Zn2   S    
C102  N15   T    
C27   C180  A    
C171  O8    A    
O5    Zn7   S    
C26   C173  A    
C126  C166  A    
C112  H37   S    
C47   O32   A    
C133  C170  A    
C17   C43   S    
C52   C72   A    
C18   C44   S    
C5    H15   S    
C79   H27   S    
C54   C70   A    
C123  C141  A    
C141  C156  A    
C67   N22   A    
O20   Zn3   S    
C22   C49   S    
C10   H20   S    
C56   N18   A    
C128  H52   S    
C48   O40   A    
C2    C71   A    
C175  C192  A    
C177  H45   S    
C150  C161  A    
C66   O59   S    
C54   O47   S    
C28   C175  A    
C184  H3    S    
C176  H34   S    
C35   C78   A    
O1    Zn1   S    
C52   O44   S    
C108  C111  A    
C94   C144  S    
C67   O60   S    
O25   Zn12  S    
C1    O1    A    
C14   C187  A    
C57   C85   A    
C39   O18   A    
C87   N24   T    
C40   O21   A    
C20   C47   S    
C49   O37   A    
C16   C189  A    
C24   C77   A    
C105  O56   A    
C65   N22   A    
O3    Zn6   S    
C167  N1    S    
C55   C71   A    
C8    C181  A    
C67   C83   A    
O35   Zn11  S    
C164  N19   S    
C2    C57   A    
C5    C20   A    
C6    C19   A    
C50   O42   A    
C47   O30   A    
C50   O38   A    
C11   C25   A    
C130  C169  A    
C59   O51   S    
O28   Zn9   S    
C183  H2    S    
C122  C164  A    
C137  C155  A    
C160  O5    A    
C135  C170  A    
C37   C157  S    
C58   C77   A    
C74   C107  A    
C46   C82   A    
C76   C109  A    
C186  H5    S    
C16   H26   S    
C78   C111  A    
C64   N21   A    
C6    H16   S    
C33   C160  S    
O27   Zn8   S    
C134  C172  A    
C97   C147  S    
C8    H18   S    
C27   C174  A    
C28   C179  A    
C180  H63   S    
C132  H57   S    
C187  H6    S    
C3    H13   S    
C83   C115  A    
C136  H61   S    
C66   N23   A    
C114  H39   S    
O22   Zn3   S    
C138  O7    A    
C181  H64   S    
C97   N10   T    
C117  H41   S    
C89   C140  S    
C127  O63   A    
C174  H12   S    
C14   H24   S    
C125  H50   S    
C63   O55   S    
C45   O33   A    
C115  H40   S    
C86   C119  A    
C2    C73   A    
C109  C114  A    
O26   Zn4   S    
C178  H56   S    
C171  O4    A    
C143  C158  A    
C34   O11   A    
C26   C177  A    
C129  C168  A    
C130  C147  A    
C55   N12   A    
O13   Zn11  S    
C66   C86   A    
C41   O22   A    
C19   C45   S    
C17   C190  A    
C121  C165  A    
C15   C188  A    
C55   O48   S    
C121  C139  A    
C122  C140  A    
C69   C84   A    
C61   C81   A    
C46   C80   A    
C71   C90   A    
C125  C143  A    
O31   Zn10  S    
C126  C144  A    
C61   N20   A    
C7    C180  A    
C48   O36   A    
C26   C127  S    
C144  C157  A    
C5    C178  A    
C152  C163  A    
C120  C164  A    
C169  N22   S    
O40   Zn3   S    
O56   Zn5   S    
C60   O52   S    
C102  C152  S    
C91   C141  S    
C63   C78   A    
O12   Zn1   S    
C149  O6    A    
C95   C145  S    
O14   Zn10  S    
C138  O64   A    
C100  N14   T    
C111  H36   S    
C134  H59   S    
C125  C167  A    
C93   N6    T    
O45   Zn5   S    
C121  H46   S    
C59   N18   A    
C173  C190  A    
O4    Zn6   S    
O42   Zn12  S    
C49   O43   A    
C172  N20   S    
C70   C182  A    
C136  C172  A    
C128  C167  A    
C62   N21   A    
C165  N18   S    
C15   H25   S    
C92   N5    T    
C88   N2    T    
C34   O9    A    
C94   N7    T    
C62   C82   A    
C75   C108  A    
O24   Zn2   S    
C64   C80   A    
O32   Zn9   S    
C7    H17   S    
C130  H54   S    
C99   C150  S    
O64   Zn6   S    
C18   C191  A    
C68   C84   A    
C38   C158  S    
C147  C161  A    
C23   C50   S    
C99   N13   T    
C148  C159  A    
C175  H23   S    
C9    C183  A    
C29   C176  A    
C136  C154  A    
C28   C105  S    
C151  C162  A    
C134  C152  A    
O38   Zn3   S    
C188  H7    S    
C3    C20   A    
C90   C115  A    
C31   C138  S    
C4    H14   S    
C116  O45   A    
C59   C74   A    
C129  C146  A    
C131  H55   S    
C11   H21   S    
C4    C17   A    
C95   N8    T    
C29   C178  A    
C173  H1    S    
O29   Zn10  S    
C30   C181  A    
O30   Zn11  S    
C132  C169  A    
C185  H4    S    
C96   C146  S    
C36   C156  S    
C101  H29   S    
C96   N9    T    
C16   C22   A    
C39   C159  S    
C40   O19   A    
C61   O53   S    
O36   Zn12  S    
C24   C75   A    
C31   C189  A    
C60   C75   A    
C153  C162  A    
C44   O28   A    
C45   O29   A    
C40   C161  S    
C145  C158  A    
C98   C148  S    
C52   N1    A    
C79   C117  A    
C41   O25   A    
O43   Zn4   S    
C192  H11   S    
C14   C25   A    
C85   C118  A    
O34   Zn1   S    
C140  C155  A    
C63   N20   A    
O8    Zn7   S    
C13   C74   A    
C81   C113  A    
C126  H51   S    
C54   N1    A    
C33   C185  A    
C120  C137  A    
C104  C154  S    
C104  N17   T    
C168  N23   S    
C37   O14   A    
C56   C76   A    
C160  O3    A    
C68   C86   A    
C35   C81   A    
C42   O24   A    
C36   O10   A    
C42   O26   A    
C30   C186  A    
C43   O31   A    
C110  H35   S    
C13   C46   A    
C9    C22   A    
O15   Zn9   S    
O10   Zn9   S    
C69   O61   S    
C58   O50   S    
C1    O62   A    
O21   Zn4   S    
C170  N21   S    
C56   O49   S    
C103  C153  S    
C32   C149  S    
O33   Zn8   S    
C149  O2    A    
O17   Zn11  S    
C191  H10   S    
C92   C142  S    
C93   C143  S    
C19   C192  A    
C15   C23   A    
C12   C186  A    
C124  C142  A    
C65   O58   S    
O16   Zn8   S    
C107  H31   S    
C100  C151  S    
O41   Zn2   S    
C44   O35   A    
C24   C35   A    
C32   C188  A    
C101  C119  A    
C154  C163  A    
C82   C114  A    
C109  H33   S    
C42   C163  S    
C146  C159  A    
C116  O23   A    
C12   C21   A    
C25   C51   S    
C88   C139  S    
O6    Zn7   S    
O62   Zn5   S    
O18   Zn12  S    
C118  H42   S    
C122  H47   S    
C13   C76   A    
C98   N11   T    
C7    C18   A    
C8    C21   A    
C131  C148  A    
C33   C187  A    
C110  C113  A    
C124  C166  A    
C189  H8    S    
C29   C116  S    
C131  C168  A    
C37   O16   A    
C38   O15   A    
O9    Zn8   S    
O37   Zn2   S    
C123  H48   S    
C51   O41   A    
C119  H43   S    
C58   N19   A    
C36   O13   A    
C31   C183  A    
C11   C185  A    
C90   H28   S    
C32   C184  A    
C53   C73   A    
C190  H9    S    
C65   C85   A    
C10   C23   A    
C53   N12   A    
C135  C153  A    
C103  N16   T    
C124  H49   S    
C105  O12   A    
C72   C182  A    
C3    C176  A    
C120  H44   S    
C73   C106  A    
C106  H30   S    
C139  C156  A    
C9    H19   S    
O7    Zn7   S    
C53   O46   S    
C77   C110  A    
C30   C171  S    
C80   C112  A    
C123  C165  A    
C127  O34   A    
C51   O39   A    
C38   O17   A    
O63   Zn5   S    
C1    C27   S    
C166  N12   S    
C142  C157  A    
C133  H58   S    
