data_mof_unit_9779.cif
_audit_creation_date              2012-12-10T17:08:10-0500
_audit_creation_method            fapswitch 2.2
_symmetry_space_group_name_H-M    P1
_symmetry_Int_Tables_number       1
_space_group_crystal_system       triclinic
_cell_length_a                    23.429517
_cell_length_b                    11.155345
_cell_length_c                    9.846408
_cell_angle_alpha                 111.461767
_cell_angle_beta                  98.868148
_cell_angle_gamma                 90.498342
_cell_volume                      2360.48896434

loop_
_atom_site_label
_atom_site_type_symbol
_atom_type_description
_atom_site_fract_x
_atom_site_fract_y
_atom_site_fract_z
_atom_type_partial_charge
C1    C     C_R   0.496610 0.254549 0.441427 0.861457
C2    C     C_R   0.502917 0.744909 0.558909 0.857540
C3    C     C_R   0.233059 0.516393 0.363227 0.218711
C4    C     C_R   0.745244 0.407146 0.338135 0.229032
C5    C     C_R   0.293032 0.520606 0.377692 -0.334611
C6    C     C_R   0.687358 0.415063 0.355265 -0.347088
C7    C     C_R   0.327470 0.508912 0.501197 -0.161007
C8    C     C_R   0.671606 0.488938 0.491379 -0.149543
C9    C     C_R   0.300878 0.499670 0.617553 0.120455
C10   C     C_R   0.715097 0.551029 0.615495 0.120143
C11   C     C_R   0.239343 0.488640 0.600437 0.392141
C12   C     C_R   0.774112 0.530130 0.603750 0.384551
C13   C     C_R   0.205954 0.497964 0.472193 0.174538
C14   C     C_R   0.788999 0.465516 0.461781 0.171685
C15   C     C_2   0.492093 0.116815 0.412984 -0.362084
C16   C     C_2   0.507734 0.881995 0.590919 -0.398950
C17   C     C_2   0.501642 0.071751 0.524366 0.253648
C18   C     C_2   0.485737 0.935120 0.492660 0.216558
C19   C     C_2   0.503298 0.512012 0.081394 0.016088
C20   C     C_2   0.500283 0.480670 0.916420 0.060690
C21   C     C_R   0.390714 0.502904 0.501334 0.846550
C22   C     C_R   0.609211 0.499173 0.498882 0.852991
C23   C     C_R   0.874881 0.586043 0.460602 0.629103
C24   C     C_R   0.113012 0.377701 0.379428 0.659713
C25   C     C_R   0.875733 0.358436 0.393426 0.733023
C26   C     C_R   0.117669 0.606513 0.501724 0.708682
C27   C     C_R   0.931855 0.359758 0.358104 -0.174396
C28   C     C_R   0.056608 0.607742 0.473565 -0.164572
C29   C     C_R   0.963458 0.481159 0.407178 -0.094725
C30   C     C_R   0.023899 0.486645 0.411443 -0.088900
C31   C     C_R   0.934737 0.596587 0.456640 -0.078889
C32   C     C_R   0.051853 0.370480 0.357505 -0.076961
C33   C     C_R   0.957559 0.245581 0.278582 0.402869
C34   C     C_R   0.027166 0.723941 0.507431 0.341382
C35   C     C_R   0.018264 0.251435 0.281038 0.119693
C36   C     C_R   0.966566 0.717632 0.501939 0.131486
Cu1   Cu    Cu3+1 0.509980 0.521810 0.644910 0.960095
Cu2   Cu    Cu3+1 0.490020 0.478190 0.355090 0.932556
H1    H     H_    0.312645 0.532718 0.290339 0.187799
H2    H     H_    0.654375 0.366829 0.259306 0.178878
H3    H     H_    0.533679 0.939228 0.696701 0.128339
H4    H     H_    0.477025 0.051931 0.299448 0.143959
H5    H     H_    0.477237 0.391402 0.838856 0.171605
H6    H     H_    0.530746 0.595305 0.158420 0.150634
N1    N     N_R   0.848167 0.469825 0.439226 -0.431141
N2    N     N_R   0.143852 0.493612 0.452132 -0.427593
N3    N     N_2   0.475010 0.445410 0.137370 -0.091676
N4    N     N_2   0.524990 0.554590 0.862630 -0.091711
O1    O     O_R   0.505330 0.332340 0.577400 -0.545224
O2    O     O_R   0.494670 0.667660 0.422600 -0.582914
O3    O     O_R   0.488470 0.295500 0.332650 -0.593690
O4    O     O_R   0.511530 0.704500 0.667350 -0.595606
O5    O     O_R   0.426310 0.518390 0.622390 -0.556435
O6    O     O_R   0.573690 0.481610 0.377610 -0.597194
O7    O     O_R   0.409450 0.481550 0.377650 -0.584073
O8    O     O_R   0.590550 0.518450 0.622350 -0.546571
O9    O     O_2   0.843269 0.690089 0.488574 -0.550986
O10   O     O_2   0.142113 0.270187 0.334134 -0.512008
O11   O     O_2   0.849713 0.248894 0.389829 -0.431191
O12   O     O_2   0.151213 0.715043 0.584469 -0.424770
S1    S     S_3+6 0.913177 0.100503 0.166699 0.032373
O13   O     O_2   0.856228 0.134312 0.101056 -0.251009
O14   O     O_2   0.940720 0.013840 0.041766 -0.346222
O15   O     O_3   0.901161 0.018884 0.274530 -0.478281
H7    H     H_    0.875516 0.942160 0.208155 0.390240
S2    S     S_3+6 0.064081 0.877741 0.546653 0.050133
O16   O     O_2   0.106917 0.862241 0.443376 -0.242530
O17   O     O_2   0.023495 0.976255 0.528029 -0.291448
O18   O     O_3   0.099628 0.934542 0.722246 -0.433854
H8    H     H_    0.069379 0.939210 0.783710 0.333007
N5    N     N_2   0.538691 0.680232 0.959585 -0.373047
H9    H     H_    0.509771 0.743015 0.938714 0.263875
C37   C     C_3   0.598026 0.723529 0.972329 -0.574951
H10   H     H_    0.607821 0.819792 0.062823 0.190632
H11   H     H_    0.604831 0.731908 0.867457 0.261889
H12   H     H_    0.627655 0.654745 0.998388 0.225870
N6    N     N_2   0.447865 0.329296 0.038954 -0.368437
H13   H     H_    0.465785 0.251072 0.056405 0.266056
C38   C     C_3   0.385699 0.323803 0.028925 -0.563553
H14   H     H_    0.365954 0.242257 0.926860 0.210430
H15   H     H_    0.368419 0.414680 0.023623 0.221269
H16   H     H_    0.373433 0.307721 0.125686 0.237096
N7    N     N_2   0.045980 0.140719 0.200968 -0.414488
H17   H     H_    0.035751 0.107096 0.087279 0.280775
C39   C     C_3   0.056633 0.045020 0.267067 -0.313808
H18   H     H_    0.085873 0.974915 0.206325 0.215087
H19   H     H_    0.015691 0.991655 0.261283 0.260360
H20   H     H_    0.078010 0.091992 0.384376 0.270481
N8    N     N_2   0.938674 0.835217 0.548243 -0.383539
H21   H     H_    0.906773 0.851209 0.473372 0.311614
C40   C     C_3   0.934921 0.894458 0.703904 -0.372740
H22   H     H_    0.888933 0.895220 0.718898 0.271233
H23   H     H_    0.953602 0.995737 0.747351 0.233828
H24   H     H_    0.958990 0.842272 0.769178 0.209520
N9    N     N_2   0.199422 0.532899 0.238956 -0.428707
H25   H     H_    0.214749 0.610826 0.219005 0.288452
C41   C     C_3   0.189595 0.417508 0.106079 -0.506895
H26   H     H_    0.159101 0.436145 0.019149 0.255467
H27   H     H_    0.170029 0.336524 0.127123 0.245719
H28   H     H_    0.231016 0.389427 0.065129 0.240783
N10   N     N_2   0.759472 0.339608 0.195523 -0.394067
H29   H     H_    0.731838 0.259306 0.132820 0.264346
C42   C     C_3   0.767993 0.420497 0.113303 -0.546811
H30   H     H_    0.781316 0.361027 0.006798 0.260100
H31   H     H_    0.802618 0.498097 0.176156 0.245854
H32   H     H_    0.727085 0.464369 0.089452 0.205222
N11   N     N_2   0.336195 0.499751 0.749263 -0.395500
H33   H     H_    0.321950 0.436769 0.793425 0.296446
C43   C     C_3   0.355614 0.626913 0.859176 -0.580132
H34   H     H_    0.318512 0.679775 0.903008 0.255965
H35   H     H_    0.378441 0.685247 0.811013 0.223574
H36   H     H_    0.386020 0.617308 0.952375 0.202213
N12   N     N_2   0.699581 0.645906 0.744385 -0.414403
H37   H     H_    0.721441 0.647848 0.844126 0.309297
C44   C     C_3   0.696145 0.773003 0.736846 -0.619160
H38   H     H_    0.737952 0.806381 0.717843 0.276036
H39   H     H_    0.686343 0.843398 0.842595 0.212731
H40   H     H_    0.661167 0.771100 0.645824 0.206198
S3    S     S_3+6 0.205044 0.457980 0.735795 -0.006154
O19   O     O_2   0.219128 0.325834 0.732694 -0.305931
O20   O     O_2   0.228246 0.555648 0.887099 -0.318834
O21   O     O_3   0.132614 0.463278 0.706504 -0.532531
H41   H     H_    0.117598 0.405248 0.750538 0.376356
S4    S     S_3+6 0.828661 0.584776 0.765406 0.006749
O22   O     O_2   0.836621 0.729593 0.822786 -0.280729
O23   O     O_2   0.809930 0.544428 0.882528 -0.321997
O24   O     O_3   0.892472 0.522558 0.731664 -0.529982
H42   H     H_    0.921357 0.576696 0.817595 0.378964
N13   N     N_2   0.447332 0.863725 0.358020 -0.440821
H43   H     H_    0.464948 0.792659 0.278654 0.267961
C45   C     C_3   0.389103 0.833293 0.373399 -0.613239
H44   H     H_    0.389122 0.764302 0.430917 0.219243
H45   H     H_    0.362051 0.788668 0.262007 0.221499
H46   H     H_    0.369635 0.922818 0.436774 0.238921
N14   N     N_2   0.525494 0.155164 0.672562 -0.415216
H47   H     H_    0.507908 0.139919 0.755142 0.237745
C46   C     C_3   0.588020 0.176058 0.703273 -0.640424
H48   H     H_    0.601768 0.248715 0.816904 0.220055
H49   H     H_    0.603477 0.213254 0.623986 0.238702
H50   H     H_    0.608392 0.084743 0.695299 0.206989

loop_
_geom_bond_atom_site_label_1
_geom_bond_atom_site_label_2
_ccdc_geom_bond_type
C36   N8    S    
S2    O17   D    
N10   H29   S    
C23   N1    A    
C27   C29   A    
C37   H11   S    
C37   H10   S    
N9    H25   S    
C45   H46   S    
C11   S3    S    
C34   S2    S    
C41   H26   S    
C21   O7    A    
N14   H47   S    
C22   O6    A    
N6    H13   S    
C27   C33   A    
C46   H49   S    
Cu1   Cu2   S    
N12   H37   S    
C43   H35   S    
C39   H18   S    
C13   N2    S    
C19   N3    D    
C39   H20   S    
S2    O18   S    
C44   H38   S    
C23   O9    S    
S1    O14   D    
C2    O2    A    
Cu1   O8    S    
Cu2   O7    S    
C19   C20   S    
C44   H39   S    
Cu2   O6    S    
C17   N14   S    
C8    C22   S    
N11   H33   S    
C1    C15   S    
N8    C40   S    
C2    C16   S    
C3    C13   A    
Cu1   O5    S    
S3    O20   D    
S2    O16   D    
C28   C34   A    
N10   C42   S    
N11   C43   S    
O18   H8    S    
C10   C12   A    
C41   H27   S    
C14   N1    S    
C5    C7    A    
N6    C38   S    
C46   H50   S    
C39   H19   S    
C32   C35   A    
C4    C6    A    
C43   H36   S    
C40   H22   S    
C38   H15   S    
Cu1   O4    S    
C35   N7    S    
C22   O8    A    
Cu2   O3    S    
C3    C5    A    
C7    C21   S    
C23   C31   A    
S1    O15   S    
C24   C32   A    
C29   C30   A    
C40   H23   S    
Cu1   O1    S    
N7    H17   S    
C12   S4    S    
C44   H40   S    
C4    N10   S    
C17   C18   S    
C42   H31   S    
C16   C18   D    
Cu1   N4    S    
C9    C11   A    
Cu2   N3    S    
C20   N4    D    
C10   N12   S    
C2    O4    A    
S4    O24   S    
C33   S1    S    
N7    C39   S    
C12   C14   A    
C5    H1    S    
C37   H12   S    
C6    H2    S    
C9    N11   S    
N3    N6    S    
N4    N5    S    
C45   H44   S    
C25   N1    A    
C20   H5    S    
C19   H6    S    
S4    O23   D    
N13   H43   S    
S3    O21   S    
N14   C46   S    
C41   H28   S    
C8    C10   A    
C15   H4    S    
C45   H45   S    
C38   H16   S    
C6    C8    A    
S3    O19   D    
N9    C41   S    
C15   C17   D    
Cu2   O2    S    
C25   C27   A    
C46   H48   S    
C26   C28   A    
C1    O3    A    
C24   N2    A    
O15   H7    S    
C28   C30   A    
N8    H21   S    
N5    H9    S    
C29   C31   A    
C43   H34   S    
C40   H24   S    
C30   C32   A    
C11   C13   A    
C1    O1    A    
C21   O5    A    
C33   C35   A    
C42   H32   S    
C34   C36   A    
C4    C14   A    
S1    O13   D    
C26   N2    A    
C38   H14   S    
C7    C9    A    
C24   O10   S    
N5    C37   S    
C42   H30   S    
C31   C36   A    
C18   N13   S    
C3    N9    S    
C25   O11   S    
N13   C45   S    
O21   H41   S    
C26   O12   S    
C16   H3    S    
O24   H42   S    
S4    O22   D    
N12   C44   S    
