data_mof_unit_35699.cif
_audit_creation_date              2012-12-10T18:56:33-0500
_audit_creation_method            fapswitch 2.2
_symmetry_space_group_name_H-M    P1
_symmetry_Int_Tables_number       1
_space_group_crystal_system       triclinic
_cell_length_a                    10.918178
_cell_length_b                    19.411153
_cell_length_c                    18.143591
_cell_angle_alpha                 89.291966
_cell_angle_beta                  91.148219
_cell_angle_gamma                 89.926861
_cell_volume                      3844.18137608

loop_
_atom_site_label
_atom_site_type_symbol
_atom_type_description
_atom_site_fract_x
_atom_site_fract_y
_atom_site_fract_z
_atom_type_partial_charge
C1    C     C_R   0.500617 0.367484 0.500504 0.820723
C2    C     C_R   0.499689 0.632584 0.499450 0.750238
C3    C     C_R   0.871738 0.516813 0.502153 -0.264686
C4    C     C_R   0.128367 0.516669 0.497008 -0.263858
C5    C     C_R   0.942161 0.522058 0.568483 -0.126238
C6    C     C_R   0.057994 0.519302 0.430451 -0.124335
C7    C     C_R   0.524685 0.744031 0.431944 -0.323421
C8    C     C_R   0.482082 0.255651 0.567991 -0.194729
C9    C     C_R   0.527601 0.816331 0.429901 0.443296
C10   C     C_R   0.481338 0.183752 0.570025 0.472242
C11   C     C_R   0.501915 0.852689 0.494231 0.153432
C12   C     C_R   0.505446 0.147393 0.504522 0.080299
C13   C     C_R   0.475272 0.817107 0.559554 -0.265057
C14   C     C_R   0.526370 0.183844 0.438810 -0.210615
C15   C     C_R   0.474418 0.745474 0.561362 -0.210859
C16   C     C_R   0.524388 0.255424 0.437366 -0.203618
C17   C     C_R   0.499491 0.708320 0.497690 -0.062971
C18   C     C_R   0.502391 0.291872 0.501906 -0.123223
C19   C     C_R   0.593285 0.961194 0.538597 -0.402627
C20   C     C_R   0.420563 0.038613 0.457867 -0.387016
C21   C     C_R   0.596639 0.033844 0.543103 0.498198
C22   C     C_R   0.420222 0.966784 0.451782 0.526046
C23   C     C_R   0.262004 0.505173 0.498948 0.858836
C24   C     C_R   0.738024 0.505263 0.500857 0.857803
C25   C     C_R   0.507947 0.071750 0.502248 -0.060475
C26   C     C_R   0.504853 0.928258 0.494542 0.016321
C27   C     C_R   0.566701 0.451777 0.721709 0.069683
C28   C     C_R   0.572097 0.544932 0.279396 0.113804
C29   C     C_R   0.569717 0.450958 0.798832 -0.356116
C30   C     C_R   0.577848 0.543145 0.202712 -0.346112
C31   C     C_R   0.505654 0.500837 0.838559 0.043780
C32   C     C_R   0.508418 0.494897 0.162513 0.059100
C33   C     C_R   0.432318 0.548489 0.797420 0.365808
C34   C     C_R   0.432438 0.448351 0.201482 0.373260
C35   C     C_R   0.433194 0.547673 0.719881 0.034878
C36   C     C_R   0.430687 0.452750 0.279781 -0.060642
C37   C     C_R   0.519562 0.562148 0.964007 0.450961
C38   C     C_R   0.525739 0.434106 0.037922 0.473486
C39   C     C_R   0.510595 0.558511 0.040996 -0.272452
C40   C     C_R   0.517205 0.437446 0.960696 -0.274131
C41   C     C_R   0.514123 0.495198 0.079597 -0.033442
C42   C     C_R   0.513768 0.500796 0.921860 -0.078725
C43   C     C_R   0.217896 0.579645 0.256512 0.447243
C44   C     C_R   0.900866 0.485107 0.771421 0.390368
C45   C     C_R   0.184314 0.573419 0.331496 -0.257972
C46   C     C_R   0.933498 0.477867 0.697982 -0.166841
C47   C     C_R   0.111004 0.518627 0.355516 0.063802
C48   C     C_R   0.889080 0.523693 0.643401 0.062841
C49   C     C_R   0.070097 0.469692 0.304672 -0.188159
C50   C     C_R   0.811974 0.578079 0.663296 -0.250203
C51   C     C_R   0.097786 0.475847 0.230125 0.421028
C52   C     C_R   0.778015 0.586747 0.737741 0.459977
C53   C     C_R   0.174825 0.529975 0.207024 -0.262409
C54   C     C_R   0.822970 0.539450 0.790639 -0.285641
C55   C     C_R   0.930688 0.527891 0.434538 0.424845
C56   C     C_R   0.069541 0.530463 0.563711 0.423873
Cu1   Cu    Cu3+1 0.499960 0.500000 0.573360 0.949606
Cu2   Cu    Cu3+1 0.500040 0.500000 0.426640 0.943936
H1    H     H_    0.203482 0.533983 0.150477 0.171907
H2    H     H_    0.801396 0.547286 0.847922 0.165616
H3    H     H_    0.452449 0.719262 0.612398 0.154221
H4    H     H_    0.541184 0.282201 0.385860 0.170945
H5    H     H_    0.657961 0.928789 0.568502 0.161852
H6    H     H_    0.351902 0.069102 0.428437 0.166352
H7    H     H_    0.619055 0.414080 0.692196 0.134906
H8    H     H_    0.625818 0.582195 0.309639 0.139631
H9    H     H_    0.624152 0.412070 0.827015 0.138556
H10   H     H_    0.637345 0.579235 0.175019 0.150163
H11   H     H_    0.380615 0.585595 0.688616 0.142122
H12   H     H_    0.374173 0.419630 0.312767 0.132837
H13   H     H_    0.506639 0.606257 0.071144 0.190208
H14   H     H_    0.516796 0.389422 0.931009 0.183503
H15   H     H_    0.209109 0.611509 0.371959 0.138706
H16   H     H_    0.998210 0.438004 0.683864 0.167747
H17   H     H_    0.011030 0.428150 0.322537 0.167298
H18   H     H_    0.785287 0.614205 0.620181 0.130017
H19   H     H_    0.544679 0.715843 0.382491 0.136245
H20   H     H_    0.463963 0.283172 0.618227 0.173213
H21   H     H_    0.455108 0.845004 0.609236 0.151647
H22   H     H_    0.544841 0.156561 0.388482 0.154771
N1    N     N_R   0.499990 0.500020 0.683620 -0.196485
N2    N     N_R   0.500010 0.499980 0.316380 -0.190095
O1    O     O_R   0.499950 0.400180 0.561980 -0.592011
O2    O     O_R   0.500050 0.599820 0.438020 -0.606640
O3    O     O_R   0.500010 0.400190 0.438070 -0.589466
O4    O     O_R   0.499990 0.599810 0.561930 -0.605956
O5    O     O_R   0.319610 0.500000 0.561950 -0.529787
O6    O     O_R   0.680390 0.500000 0.438050 -0.530614
O7    O     O_R   0.319670 0.500010 0.438050 -0.588534
O8    O     O_R   0.680330 0.499990 0.561950 -0.587392
O9    O     O_3   0.683824 0.071496 0.583394 -0.602741
C57   C     C_3   0.752374 0.033789 0.637268 0.082354
H23   H     H_    0.826001 0.068569 0.657632 0.174179
H24   H     H_    0.801952 0.989532 0.613612 0.128127
C58   C     C_3   0.674320 0.013615 0.703714 -0.374281
H25   H     H_    0.633285 0.060803 0.727066 0.251863
H26   H     H_    0.598526 0.978856 0.686733 0.208453
C59   C     C_3   0.751604 0.977220 0.763425 -0.910061
H27   H     H_    0.793157 0.929657 0.741417 0.260310
H28   H     H_    0.692802 0.962815 0.810387 0.263760
H29   H     H_    0.825494 0.011803 0.783812 0.258972
O10   O     O_3   0.330560 0.932817 0.410801 -0.617363
C60   C     C_3   0.322126 0.958207 0.337193 0.086867
H30   H     H_    0.336235 0.914222 0.299716 0.176978
H31   H     H_    0.393199 0.997070 0.322508 0.137224
C61   C     C_3   0.193921 0.987655 0.322109 -0.360327
H32   H     H_    0.124736 0.946531 0.330783 0.229963
H33   H     H_    0.175464 0.029870 0.361145 0.220399
C62   C     C_3   0.180699 0.015630 0.243389 -0.913259
H34   H     H_    0.247065 0.058053 0.234101 0.256813
H35   H     H_    0.086561 0.036073 0.234060 0.262303
H36   H     H_    0.196967 0.974011 0.203243 0.257191
O11   O     O_3   0.367013 0.599240 0.831867 -0.603864
C63   C     C_3   0.247519 0.575380 0.844900 0.064314
H37   H     H_    0.248610 0.524669 0.874575 0.153286
H38   H     H_    0.195956 0.570070 0.791735 0.161872
C64   C     C_3   0.183467 0.627856 0.893064 -0.302722
H39   H     H_    0.224588 0.625632 0.949615 0.230645
H40   H     H_    0.197196 0.680634 0.870189 0.232783
C65   C     C_3   0.046580 0.613980 0.896853 -0.924527
H41   H     H_    0.002910 0.624764 0.842175 0.266524
H42   H     H_    0.004949 0.648436 0.937859 0.257942
H43   H     H_    0.029758 0.559582 0.913304 0.275846
O12   O     O_3   0.357189 0.404599 0.159828 -0.599050
C66   C     C_3   0.312098 0.345889 0.197684 0.123624
H44   H     H_    0.245912 0.320461 0.159539 0.192441
H45   H     H_    0.256943 0.359477 0.246032 0.134394
C67   C     C_3   0.413471 0.293266 0.216761 -0.398463
H46   H     H_    0.456523 0.276035 0.165183 0.261889
H47   H     H_    0.485564 0.316775 0.252300 0.202254
C68   C     C_3   0.361678 0.230508 0.256852 -0.925487
H48   H     H_    0.321576 0.246020 0.309950 0.262632
H49   H     H_    0.436161 0.192695 0.268436 0.255243
H50   H     H_    0.290002 0.205339 0.222253 0.260581
O13   O     O_3   0.539375 0.626343 0.933234 -0.690359
H51   H     H_    0.582157 0.620326 0.886183 0.367163
O14   O     O_3   0.549340 0.370469 0.069733 -0.727402
H52   H     H_    0.588224 0.377316 0.118861 0.316481
O15   O     O_3   0.289766 0.632278 0.226591 -0.609007
C69   C     C_3   0.318194 0.686647 0.275146 0.076202
H53   H     H_    0.392333 0.717623 0.250016 0.145678
H54   H     H_    0.359409 0.667322 0.327879 0.151904
C70   C     C_3   0.207408 0.734698 0.284850 -0.401272
H55   H     H_    0.201800 0.771820 0.237755 0.218267
H56   H     H_    0.120417 0.705232 0.284858 0.217024
C71   C     C_3   0.217749 0.774273 0.356675 -0.882939
H57   H     H_    0.216785 0.738118 0.404565 0.250808
H58   H     H_    0.139493 0.810487 0.360761 0.259232
H59   H     H_    0.303972 0.804073 0.358167 0.292135
O16   O     O_3   0.961500 0.445484 0.824591 -0.610215
C72   C     C_3   0.876841 0.404554 0.863087 0.042150
H60   H     H_    0.825167 0.370868 0.824121 0.140231
H61   H     H_    0.812334 0.437198 0.894080 0.142578
C73   C     C_3   0.946592 0.358628 0.918445 -0.328539
H62   H     H_    0.007380 0.323085 0.888430 0.230240
H63   H     H_    0.004770 0.391221 0.954828 0.216497
C74   C     C_3   0.858986 0.316479 0.965508 -0.909700
H64   H     H_    0.798498 0.351039 0.996908 0.268319
H65   H     H_    0.912378 0.283853 0.005286 0.259091
H66   H     H_    0.801614 0.282571 0.930090 0.264123
O17   O     O_3   0.051989 0.425550 0.183171 -0.619046
C75   C     C_3   0.002286 0.453015 0.116312 0.074777
H67   H     H_    0.969741 0.408599 0.083459 0.176535
H68   H     H_    0.072832 0.478591 0.082369 0.139015
C76   C     C_3   0.891483 0.500357 0.128319 -0.373148
H69   H     H_    0.820647 0.471901 0.159569 0.234304
H70   H     H_    0.919625 0.546152 0.160607 0.213722
C77   C     C_3   0.836441 0.525336 0.054832 -0.917867
H71   H     H_    0.907481 0.550813 0.021329 0.260960
H72   H     H_    0.763338 0.563536 0.064776 0.264121
H73   H     H_    0.796726 0.481494 0.023823 0.254576
O18   O     O_3   0.705017 0.639871 0.764250 -0.627466
C78   C     C_3   0.678922 0.694215 0.713766 0.078086
H74   H     H_    0.603166 0.724865 0.736963 0.173289
H75   H     H_    0.641685 0.675399 0.660486 0.144872
C79   C     C_3   0.789381 0.742461 0.705321 -0.368249
H76   H     H_    0.810779 0.766753 0.759209 0.230716
H77   H     H_    0.871442 0.713267 0.688777 0.203121
C80   C     C_3   0.763415 0.798698 0.647679 -0.939624
H78   H     H_    0.744113 0.775480 0.593008 0.268780
H79   H     H_    0.844564 0.832771 0.642990 0.251960
H80   H     H_    0.683875 0.830320 0.664061 0.261246
O19   O     O_3   0.862874 0.548258 0.372432 -0.593662
C81   C     C_3   0.878689 0.620003 0.359035 0.044718
H81   H     H_    0.833023 0.632645 0.305306 0.149734
H82   H     H_    0.976134 0.634044 0.352918 0.140886
C82   C     C_3   0.822687 0.665012 0.418833 -0.407782
H83   H     H_    0.725554 0.650660 0.425586 0.229210
H84   H     H_    0.871856 0.656694 0.472400 0.204084
C83   C     C_3   0.831859 0.741343 0.398740 -0.883865
H85   H     H_    0.929205 0.756225 0.391964 0.258561
H86   H     H_    0.793103 0.772618 0.443508 0.266740
H87   H     H_    0.779989 0.752583 0.346695 0.252730
O20   O     O_3   0.137711 0.553446 0.623996 -0.599293
C84   C     C_3   0.120493 0.625511 0.632577 0.046053
H88   H     H_    0.168811 0.640607 0.684264 0.159552
H89   H     H_    0.023019 0.638939 0.639805 0.136302
C85   C     C_3   0.172132 0.668708 0.568782 -0.400774
H90   H     H_    0.268867 0.654177 0.560624 0.226904
H91   H     H_    0.119621 0.658791 0.516924 0.201085
C86   C     C_3   0.163740 0.745584 0.584636 -0.891119
H92   H     H_    0.066660 0.760912 0.591817 0.257238
H93   H     H_    0.201184 0.775598 0.537757 0.276114
H94   H     H_    0.217456 0.758108 0.635341 0.253630
O21   O     O_3   0.556739 0.852277 0.366467 -0.757224
H95   H     H_    0.569870 0.819105 0.326245 0.306033
O22   O     O_3   0.454601 0.151933 0.636312 -0.738367
H96   H     H_    0.438917 0.102384 0.628504 0.320644

loop_
_geom_bond_atom_site_label_1
_geom_bond_atom_site_label_2
_ccdc_geom_bond_type
C70   C71   S    
C38   C40   A    
C13   H21   S    
C83   H85   S    
C31   C42   S    
C27   C29   A    
C86   H92   S    
C5    C56   A    
C2    O2    A    
C58   H25   S    
C69   C70   S    
C6    C55   A    
O19   C81   S    
C68   H50   S    
C67   H46   S    
C52   O18   S    
O17   C75   S    
C53   H1    S    
C58   C59   S    
O13   H51   S    
C39   C41   A    
C54   H2    S    
O21   H95   S    
C81   H81   S    
C1    C18   S    
C76   H69   S    
C19   C21   A    
C69   H54   S    
O11   C63   S    
Cu2   O2    S    
C64   H40   S    
O18   C78   S    
C20   C25   A    
C51   O17   S    
C70   H55   S    
C75   C76   S    
Cu1   O4    S    
C45   H15   S    
C72   C73   S    
C37   C42   A    
C19   C26   A    
C82   C83   S    
C83   H87   S    
C29   H9    S    
C3    C55   A    
C43   C53   A    
C77   H73   S    
C44   C46   A    
C28   C30   A    
C7    C17   A    
C66   C67   S    
C50   C52   A    
C32   C41   S    
C23   O7    A    
Cu1   O5    S    
C43   O15   S    
C85   H90   S    
C14   C16   A    
C14   H22   S    
C73   H63   S    
C65   H43   S    
C7    H19   S    
C80   H80   S    
C48   C50   A    
O20   C84   S    
C76   H70   S    
C23   O5    A    
C4    C56   A    
C2    C17   S    
C8    H20   S    
C86   H93   S    
C3    C24   S    
C16   H4    S    
C22   O10   S    
C10   C12   A    
C52   C54   A    
C63   H37   S    
C71   H58   S    
C78   H75   S    
C1    O3    A    
C5    C48   S    
C46   C48   A    
C6    C47   S    
C71   H57   S    
C28   N2    A    
O22   H96   S    
C80   H79   S    
C27   N1    A    
C69   H53   S    
C73   C74   S    
C47   C49   A    
C37   O13   S    
Cu1   O8    S    
C62   H36   S    
C36   N2    A    
O9    C57   S    
C4    C23   S    
C11   C26   S    
C49   C51   A    
C39   H13   S    
C78   H74   S    
C57   C58   S    
C44   O16   S    
C80   H78   S    
C74   H64   S    
C67   H47   S    
C51   C53   A    
C32   C34   A    
C20   H6    S    
C28   H8    S    
C10   O22   S    
C27   H7    S    
C50   H18   S    
C71   H59   S    
C43   C45   A    
C72   H60   S    
C85   C86   S    
C57   H24   S    
C15   H3    S    
C60   H31   S    
C16   C18   A    
C61   H32   S    
Cu1   O1    S    
C9    C11   A    
C73   H62   S    
C19   H5    S    
C38   C41   A    
C56   O20   S    
C44   C54   A    
C4    C6    A    
C77   H71   S    
C36   H12   S    
C12   C14   A    
C76   C77   S    
C59   H28   S    
C13   C15   A    
C66   H44   S    
C86   H94   S    
Cu1   N1    S    
C64   C65   S    
C1    O1    A    
C74   H65   S    
C68   H48   S    
C67   C68   S    
C46   H16   S    
C34   O12   S    
C65   H41   S    
C65   H42   S    
C75   H67   S    
C21   O9    S    
C78   C79   S    
C70   H56   S    
C21   C25   A    
C79   H76   S    
C31   C33   A    
C83   H86   S    
C40   H14   S    
C29   C31   A    
C24   O6    A    
C20   C22   A    
C40   C42   A    
C3    C5    A    
C24   O8    A    
C63   H38   S    
O15   C69   S    
C58   H26   S    
C15   C17   A    
C74   H66   S    
C59   H29   S    
O14   H52   S    
C33   O11   S    
Cu2   O3    S    
C35   N1    A    
C81   C82   S    
C12   C25   S    
C79   C80   S    
Cu2   N2    S    
C82   H83   S    
C37   C39   A    
C75   H68   S    
C9    O21   S    
C64   H39   S    
C30   C32   A    
C11   C13   A    
Cu1   Cu2   S    
C61   H33   S    
C62   H35   S    
C77   H72   S    
C57   H23   S    
C33   C35   A    
C38   O14   S    
C81   H82   S    
C2    O4    A    
C60   C61   S    
C34   C36   A    
C72   H61   S    
O10   C60   S    
Cu2   O7    S    
C8    C18   A    
C82   H84   S    
C63   C64   S    
C84   H88   S    
C84   C85   S    
C7    C9    A    
C45   C47   A    
C35   H11   S    
C8    C10   A    
C59   H27   S    
C22   C26   A    
C60   H30   S    
C66   H45   S    
C55   O19   S    
O16   C72   S    
O12   C66   S    
C85   H91   S    
C68   H49   S    
C84   H89   S    
C62   H34   S    
Cu2   O6    S    
C30   H10   S    
C79   H77   S    
C49   H17   S    
C61   C62   S    
