data_mof_unit_36914.cif
_audit_creation_date              2012-10-26T19:42:15-0400
_audit_creation_method            fapswitch 2.2
_symmetry_space_group_name_H-M    P1
_symmetry_Int_Tables_number       1
_space_group_crystal_system       triclinic
_cell_length_a                    9.630016
_cell_length_b                    10.863999
_cell_length_c                    17.356641
_cell_angle_alpha                 96.284963
_cell_angle_beta                  86.382481
_cell_angle_gamma                 88.60623
_cell_volume                      1800.45705651

loop_
_atom_site_label
_atom_site_type_symbol
_atom_type_description
_atom_site_fract_x
_atom_site_fract_y
_atom_site_fract_z
_atom_type_partial_charge
C1    C     C_R   0.496720 0.738437 0.507409 0.537739
C2    C     C_R   0.524022 0.514083 0.266139 -0.025122
C3    C     C_R   0.234819 0.899200 0.494338 0.305083
C4    C     C_R   0.482054 0.504801 0.649309 0.584664
C5    C     C_R   0.146425 0.938533 0.438597 0.317204
C6    C     C_R   0.199957 0.019712 0.387408 0.018914
C7    C     C_R   0.318937 0.086340 0.406086 -0.160955
C8    C     C_R   0.397862 0.054648 0.466554 -0.093934
C9    C     C_R   0.373115 0.941067 0.494506 -0.023363
C10   C     C_R   0.489179 0.874572 0.517125 -0.046975
C11   C     C_R   0.609487 0.938608 0.535559 -0.143224
C12   C     C_R   0.427932 0.422005 0.773278 0.226238
C13   C     C_R   0.614661 0.066234 0.531246 0.270962
C14   C     C_R   0.508247 0.125439 0.494933 0.015013
C15   C     C_R   0.881998 0.357257 0.373680 0.333020
C16   C     C_R   0.502519 0.261336 0.496581 0.580584
C17   C     C_R   0.968700 0.329734 0.304684 -0.114735
C18   C     C_R   0.112750 0.336441 0.306436 0.166537
C19   C     C_R   0.164412 0.368509 0.378106 -0.077409
C20   C     C_R   0.084019 0.434769 0.439442 0.050925
C21   C     C_R   0.935323 0.432655 0.438437 0.154807
C22   C     C_R   0.917728 0.559281 0.559310 -0.039650
C23   C     C_R   0.397973 0.522318 0.149018 0.289547
C24   C     C_R   0.065374 0.559259 0.559249 0.009428
C25   C     C_R   0.517613 0.504716 0.350407 0.565101
C26   C     C_R   0.472777 0.521052 0.733526 -0.044514
C27   C     C_R   0.508196 0.634972 0.774000 -0.041445
C28   C     C_R   0.504345 0.646117 0.855492 0.232840
C29   C     C_R   0.463072 0.545670 0.895169 -0.019056
C30   C     C_R   0.429823 0.431922 0.854639 0.251164
C31   C     C_3   0.541694 0.747103 0.731554 -0.260428
C32   C     C_3   0.408502 0.813736 0.713391 -0.427302
C33   C     C_3   0.125436 0.916864 0.614603 -0.164402
C34   C     C_R   0.398725 0.523999 0.229712 -0.133105
C35   C     C_3   0.981838 0.785396 0.442862 -0.083314
C36   C     C_3   0.132073 0.032994 0.312843 -0.248991
C37   C     C_3   0.130014 0.909609 0.261468 -0.454808
C38   C     C_3   0.728963 0.141622 0.636268 -0.113096
C39   C     C_3   0.718747 0.214192 0.321315 -0.103666
C40   C     C_3   0.150850 0.280003 0.171439 -0.098908
C41   C     C_3   0.833991 0.629804 0.254880 -0.126842
C42   C     C_3   0.484005 0.234504 0.880691 -0.101150
C43   C     C_3   0.192166 0.627477 0.137399 -0.154750
C44   C     C_3   0.243779 0.309730 0.734189 -0.103628
C45   C     C_R   0.651332 0.512515 0.221096 0.244052
C46   C     C_3   0.675196 0.754615 0.913813 -0.147290
C47   C     C_R   0.650615 0.501895 0.140216 -0.165401
C48   C     C_R   0.525257 0.505356 0.104210 -0.009290
C49   C     C_2   0.454085 0.561479 0.980004 -0.019190
C50   C     C_2   0.530311 0.488869 0.019291 -0.083474
Cu1   Cu    Cu3+1 0.359340 0.500010 0.500010 0.947035
Cu2   Cu    Cu3+1 0.640660 0.499990 0.499990 1.008035
H1    H     H_    0.748610 0.491718 0.105445 0.113093
H2    H     H_    0.394129 0.640372 0.009911 0.162889
H3    H     H_    0.348043 0.752360 0.673514 0.182797
H4    H     H_    0.343216 0.842623 0.767726 0.163403
H5    H     H_    0.435181 0.897823 0.685274 0.132877
H6    H     H_    0.603494 0.814393 0.766708 0.170411
H7    H     H_    0.607107 0.720263 0.677136 0.134409
H8    H     H_    0.034823 0.969859 0.596653 0.156899
H9    H     H_    0.204295 0.981615 0.638061 0.115348
H10   H     H_    0.087152 0.863728 0.662277 0.108806
H11   H     H_    0.888746 0.758916 0.411270 0.129038
H12   H     H_    0.698965 0.890224 0.554233 0.136270
H13   H     H_    0.955334 0.774397 0.504558 0.168323
H14   H     H_    0.069732 0.721754 0.417800 0.123318
H15   H     H_    0.236584 0.866841 0.252411 0.140062
H16   H     H_    0.059173 0.844556 0.287801 0.165475
H17   H     H_    0.092415 0.925566 0.204089 0.119113
H18   H     H_    0.024685 0.071799 0.325810 0.175236
H19   H     H_    0.192650 0.095395 0.278847 0.187646
H20   H     H_    0.747147 0.050394 0.657995 0.078446
H21   H     H_    0.629934 0.186455 0.663511 0.155194
H22   H     H_    0.814917 0.201947 0.654673 0.132906
H23   H     H_    0.357330 0.154122 0.369707 0.115265
H24   H     H_    0.798641 0.138040 0.309163 0.096380
H25   H     H_    0.698100 0.259091 0.268518 0.127814
H26   H     H_    0.620503 0.171352 0.339469 0.119207
H27   H     H_    0.085107 0.360759 0.159900 0.168814
H28   H     H_    0.091602 0.193262 0.167303 0.082935
H29   H     H_    0.236737 0.267329 0.125333 0.184561
H30   H     H_    0.762306 0.703186 0.286334 0.122520
H31   H     H_    0.861399 0.651381 0.194705 0.096707
H32   H     H_    0.931476 0.629911 0.285610 0.116071
H33   H     H_    0.476524 0.178913 0.930642 0.134869
H34   H     H_    0.856149 0.609608 0.607427 0.097184
H35   H     H_    0.594025 0.263458 0.873872 0.078742
H36   H     H_    0.457803 0.173055 0.828611 0.165218
H37   H     H_    0.253436 0.712661 0.134527 0.102702
H38   H     H_    0.143364 0.624309 0.196736 0.108841
H39   H     H_    0.106610 0.632973 0.097905 0.135210
H40   H     H_    0.214317 0.228086 0.695168 0.124904
H41   H     H_    0.196621 0.393485 0.713207 0.126380
H42   H     H_    0.199514 0.298830 0.793675 0.148104
H43   H     H_    0.745701 0.733328 0.860392 0.099220
H44   H     H_    0.695332 0.686738 0.955593 0.114790
H45   H     H_    0.925041 0.292387 0.251855 0.114093
H46   H     H_    0.701303 0.847375 0.941428 0.132026
H47   H     H_    0.300419 0.529180 0.263720 0.168640
H48   H     H_    0.268472 0.339703 0.384363 0.198778
H49   H     H_    0.113209 0.609002 0.607572 0.135543
H50   H     H_    0.604354 0.420995 0.988310 0.107424
N1    N     N_R   0.852190 0.498790 0.499250 -0.234432
N2    N     N_R   0.148060 0.498710 0.499220 -0.241045
O1    O     O_R   0.381190 0.680360 0.500010 -0.454356
O2    O     O_3   0.006319 0.910911 0.435726 -0.571764
O3    O     O_3   0.730386 0.129855 0.554491 -0.515483
O4    O     O_3   0.754010 0.302710 0.382344 -0.493868
O5    O     O_3   0.209486 0.300613 0.244027 -0.595303
O6    O     O_3   0.776745 0.511727 0.255188 -0.563787
O7    O     O_3   0.387387 0.335613 0.895981 -0.552931
O8    O     O_3   0.273808 0.519135 0.112539 -0.561677
O9    O     O_3   0.390312 0.313228 0.731627 -0.585530
O10   O     O_3   0.533784 0.757844 0.896779 -0.574249
O11   O     O_R   0.618760 0.680340 0.500000 -0.538413
O12   O     O_R   0.367440 0.500030 0.613600 -0.502890
O13   O     O_R   0.605010 0.500010 0.613590 -0.521608
O14   O     O_R   0.381240 0.319660 0.500000 -0.526433
O15   O     O_R   0.618810 0.319640 0.499990 -0.380916
O16   O     O_R   0.394990 0.499990 0.386410 -0.553432
O17   O     O_R   0.632560 0.499970 0.386400 -0.410988
O18   O     O_3   0.183854 0.832585 0.552781 -0.575263

loop_
_geom_bond_atom_site_label_1
_geom_bond_atom_site_label_2
_ccdc_geom_bond_type
Cu2   N1    S    
C37   H17   S    
C19   C20   A    
C18   O5    S    
C13   O3    S    
C7    C8    A    
C29   C49   S    
C23   O8    S    
C26   C27   A    
C43   H37   S    
C39   H25   S    
C31   H6    S    
C36   C37   S    
C18   C19   A    
C5    C6    A    
C35   H13   S    
C49   H2    S    
C41   H31   S    
C37   H16   S    
Cu1   O14   S    
C17   C18   A    
C24   H49   S    
C31   H7    S    
C38   O3    S    
C44   H41   S    
C46   H43   S    
C31   C32   S    
C33   H10   S    
C40   H28   S    
C9    C10   A    
C32   H3    S    
C44   H40   S    
C3    O18   S    
C47   H1    S    
Cu2   O13   S    
C2    C34   A    
C48   C50   S    
C46   H46   S    
C13   C14   A    
C32   H5    S    
C36   H18   S    
Cu1   O16   S    
C5    O2    S    
C45   C47   A    
C2    C45   A    
C39   O4    S    
C38   H20   S    
C43   H38   S    
C46   O10   S    
C27   C31   S    
Cu1   Cu2   S    
C39   H26   S    
C11   H12   S    
C16   O15   A    
C45   O6    S    
C8    C9    A    
C7    H23   S    
C35   H14   S    
Cu1   N2    S    
C41   H32   S    
C43   H39   S    
C22   N1    A    
C12   C26   A    
C24   N2    A    
C15   O4    S    
C42   O7    S    
C29   C30   A    
C3    C9    A    
C16   O14   A    
Cu2   O17   S    
C47   C48   A    
Cu1   O1    S    
C23   C34   A    
C34   H47   S    
C40   H27   S    
C42   H33   S    
C39   H24   S    
C40   O5    S    
C28   O10   S    
C44   O9    S    
C50   H50   S    
C33   H8    S    
C41   O6    S    
C33   O18   S    
C14   C16   S    
C4    O13   A    
C42   H36   S    
C43   O8    S    
C25   O16   A    
C12   O9    S    
C38   H22   S    
Cu2   O11   S    
C15   C17   A    
C28   C29   A    
C8    C14   A    
C23   C48   A    
C12   C30   A    
C40   H29   S    
C4    O12   A    
C1    C10   S    
C3    C5    A    
C4    C26   S    
C19   H48   S    
C36   H19   S    
C6    C7    A    
C20   N2    A    
Cu1   O12   S    
C30   O7    S    
C35   O2    S    
C11   C13   A    
C25   O17   A    
C41   H30   S    
C37   H15   S    
C6    C36   S    
C2    C25   S    
C22   C24   A    
C22   H34   S    
C44   H42   S    
C10   C11   A    
C21   N1    A    
Cu2   O15   S    
C15   C21   A    
C46   H44   S    
C20   C21   A    
C33   H9    S    
C49   C50   D    
C27   C28   A    
C35   H11   S    
C42   H35   S    
C1    O11   A    
C17   H45   S    
C32   H4    S    
C1    O1    A    
C38   H21   S    
