data_mof_unit_41400.cif
_audit_creation_date              2013-03-05T15:40:04-0500
_audit_creation_method            fapswitch 2.2
_symmetry_space_group_name_H-M    P1
_symmetry_Int_Tables_number       1
_space_group_crystal_system       triclinic
_cell_length_a                    7.523904
_cell_length_b                    8.674369
_cell_length_c                    11.076826
_cell_angle_alpha                 88.163625
_cell_angle_beta                  71.758698
_cell_angle_gamma                 101.806474
_cell_volume                      668.475381579

loop_
_atom_site_label
_atom_site_type_symbol
_atom_site_description
_atom_site_fract_x
_atom_site_fract_y
_atom_site_fract_z
_atom_type_partial_charge
O1    O     O_R   0.622710 0.286400 0.490790 -0.573168
O2    O     O_R   0.377290 0.713600 0.509210 -0.573183
O3    O     O_R   0.303660 0.256330 0.514730 -0.518562
O4    O     O_R   0.696340 0.743670 0.485270 -0.518556
C1    C     C_R   0.452572 0.200524 0.509852 0.826512
C2    C     C_R   0.547428 0.799476 0.490147 0.826513
O5    O     O_R   0.600900 0.509520 0.671740 -0.546361
O6    O     O_R   0.399100 0.490480 0.328260 -0.546349
O7    O     O_R   0.281840 0.479450 0.695690 -0.548982
O8    O     O_R   0.718160 0.520550 0.304310 -0.548976
C3    C     C_R   0.422923 0.494662 0.742040 0.876269
C4    C     C_R   0.577076 0.505337 0.257960 0.876275
Cu1   Cu    Cu3+1 0.688910 0.517800 0.485820 1.217599
Cu2   Cu    Cu3+1 0.311090 0.482200 0.514180 1.217595
C5    C     C_2   0.379536 0.478759 0.879511 -0.269647
C6    C     C_2   0.620461 0.521234 0.120488 -0.269646
C7    C     C_2   0.516479 0.528178 0.932944 0.241185
C8    C     C_2   0.483512 0.471825 0.067058 0.241184
H1    H     H_    0.761605 0.590827 0.065198 0.196554
H2    H     H_    0.238399 0.409153 0.934799 0.196548
C9    C     C_2   0.430545 0.034096 0.535436 0.088830
C10   C     C_2   0.569455 0.965902 0.464560 0.088846
N1    N     N_2   0.027170 0.455360 0.535550 0.031012
N2    N     N_2   0.972830 0.544640 0.464450 0.031012
N3    N     N_R   0.306314 0.362524 0.139173 0.139329
O9    O     O_R   0.144216 0.406938 0.168054 -0.282825
O10   O     O_R   0.310191 0.225031 0.187585 -0.235995
N4    N     N_R   0.693664 0.637495 0.860834 0.139327
O11   O     O_R   0.855770 0.593098 0.831944 -0.282840
O12   O     O_R   0.689764 0.774981 0.812426 -0.235995
N5    N     N_R   0.283791 0.955014 0.651905 0.137681
O13   O     O_R   0.326888 0.867348 0.731393 -0.304516
O14   O     O_R   0.119266 0.995442 0.690434 -0.202535
N6    N     N_R   0.716204 0.044981 0.348088 0.137701
O15   O     O_R   0.673118 0.132664 0.268609 -0.304521
O16   O     O_R   0.880709 0.004545 0.309555 -0.202548
N7    N     N_R   0.904514 0.309010 0.583986 0.259961
O17   O     O_R   0.803983 0.284832 0.704836 -0.290682
O18   O     O_R   0.932881 0.187117 0.521442 -0.241657
N8    N     N_R   0.095512 0.690991 0.415991 0.259943
O19   O     O_R   0.196068 0.715131 0.295131 -0.290678
O20   O     O_R   0.067125 0.812918 0.478504 -0.241656

loop_
_geom_bond_atom_site_label_1
_geom_bond_atom_site_label_2
_geom_bond_distance
_ccdc_geom_bond_type
Cu2   N1    2.037135 S    
O7    Cu2   1.951693 S    
N5    O14   1.301516 A    
N7    O17   1.300481 A    
O3    Cu2   1.948369 S    
N3    O10   1.301502 A    
O7    C3    1.302298 A    
N5    O13   1.302063 A    
O6    C4    1.298562 A    
N1    N2    1.295855 D    
N4    O12   1.301488 A    
C7    C8    1.476666 S    
N7    O18   1.300082 A    
C6    C8    1.346470 D    
N1    N7    1.384945 S    
Cu1   Cu2   2.711160 S    
C10   N6    1.447643 S    
O5    C3    1.298562 A    
C9    N5    1.447649 S    
O2    C2    1.291758 A    
C8    N3    1.442904 S    
O8    C4    1.302300 A    
C6    H1    1.083540 S    
O1    C1    1.291760 A    
N8    O20   1.300178 A    
N4    O11   1.301570 A    
N2    N8    1.385064 S    
N6    O16   1.301413 A    
C5    H2    1.083535 S    
O2    Cu2   1.961324 S    
O1    Cu1   1.961324 S    
C2    C10   1.427715 S    
O5    Cu1   1.949901 S    
C1    C9    1.427716 S    
O4    C2    1.295483 A    
N6    O15   1.302039 A    
O4    Cu1   1.948369 S    
C5    C7    1.346462 D    
N8    O19   1.300622 A    
O6    Cu2   1.949900 S    
N3    O9    1.301592 A    
C9    C10   1.351913 D    
C7    N4    1.442889 S    
C3    C5    1.449574 S    
C4    C6    1.449579 S    
Cu1   N2    2.037135 S    
O3    C1    1.295482 A    
O8    Cu1   1.951693 S    
