data_mof_unit_52149.cif
_audit_creation_date              2012-12-10T17:54:20-0500
_audit_creation_method            fapswitch 2.2
_symmetry_space_group_name_H-M    P1
_symmetry_Int_Tables_number       1
_space_group_crystal_system       triclinic
_cell_length_a                    27.737557
_cell_length_b                    10.716416
_cell_length_c                    9.906833
_cell_angle_alpha                 87.965783
_cell_angle_beta                  89.375754
_cell_angle_gamma                 92.428576
_cell_volume                      2940.05259971

loop_
_atom_site_label
_atom_site_type_symbol
_atom_type_description
_atom_site_fract_x
_atom_site_fract_y
_atom_site_fract_z
_atom_type_partial_charge
C1    C     C_R   0.501417 0.259370 0.503325 0.866973
C2    C     C_R   0.277740 0.483363 0.384068 -0.104969
C3    C     C_R   0.252980 0.493521 0.506486 0.324792
C4    C     C_R   0.101832 0.496087 0.505460 -0.051830
C5    C     C_R   0.125335 0.382880 0.494189 -0.020514
C6    C     C_R   0.098193 0.271353 0.482339 -0.137789
C7    C     C_R   0.129506 0.608148 0.518653 -0.022277
C8    C     C_R   0.353422 0.497208 0.502689 -0.031495
C9    C     C_R   0.646612 0.501222 0.497617 -0.044073
C10   C     C_R   0.972639 0.386563 0.475621 0.045501
C11   C     C_R   0.976572 0.611643 0.523245 0.046562
C12   C     C_R   0.406095 0.499283 0.500736 0.835760
C13   C     C_R   0.949399 0.499685 0.498214 0.071154
C14   C     C_R   0.943990 0.279697 0.442962 -0.215776
C15   C     C_R   0.894110 0.282407 0.439085 -0.133404
C16   C     C_R   0.870900 0.391710 0.466808 -0.022423
C17   C     C_R   0.898352 0.500815 0.495924 -0.051313
C18   C     C_R   0.874627 0.610983 0.523003 -0.021887
C19   C     C_R   0.824196 0.609779 0.521205 0.505541
C20   C     C_R   0.820542 0.394669 0.465948 0.505244
C21   C     C_R   0.722162 0.508558 0.617357 -0.097963
C22   C     C_R   0.672078 0.507755 0.619094 -0.214664
C23   C     C_R   0.494999 0.738332 0.498252 0.912408
C24   C     C_R   0.671935 0.495655 0.374552 -0.194008
C25   C     C_R   0.722032 0.496374 0.373211 -0.099758
C26   C     C_R   0.747099 0.502771 0.494542 0.318012
C27   C     C_R   0.023516 0.384041 0.485167 0.047105
C28   C     C_R   0.050788 0.497274 0.503251 0.070659
C29   C     C_R   0.027647 0.611705 0.518944 0.046222
C30   C     C_R   0.048260 0.271580 0.478341 -0.215196
C31   C     C_R   0.106552 0.720751 0.528991 -0.134913
C32   C     C_R   0.951496 0.719857 0.552884 -0.215961
C33   C     C_R   0.901523 0.719335 0.552344 -0.136723
C34   C     C_R   0.593915 0.500411 0.499307 0.907044
C35   C     C_R   0.056628 0.722840 0.528745 -0.214806
C36   C     C_R   0.487463 0.098234 0.762925 -0.177535
C37   C     C_R   0.465647 0.028274 0.870158 -0.152732
C38   C     C_R   0.443349 0.912667 0.847545 -0.134409
C39   C     C_R   0.447121 0.861839 0.720797 -0.139764
C40   C     C_R   0.473151 0.927430 0.614712 0.097201
C41   C     C_R   0.487362 0.052952 0.629813 0.103213
C42   C     C_R   0.501319 0.124768 0.510637 -0.116439
C43   C     C_R   0.508944 0.066791 0.388287 -0.215868
C44   C     C_R   0.503557 0.939857 0.382016 -0.180647
C45   C     C_R   0.175771 0.383986 0.495743 0.503491
C46   C     C_R   0.487532 0.869750 0.495844 -0.144635
C47   C     C_R   0.432652 0.344580 0.147387 -0.160815
C48   C     C_R   0.398616 0.271287 0.080458 -0.213315
C49   C     C_R   0.398444 0.272620 0.940680 -0.188479
C50   C     C_R   0.432588 0.346416 0.867178 -0.177385
C51   C     C_R   0.466319 0.425423 0.931453 0.150232
C52   C     C_R   0.466302 0.425160 0.076076 0.141311
C53   C     C_R   0.533969 0.567351 0.065662 0.016310
C54   C     C_R   0.533365 0.567112 0.922997 -0.192080
C55   C     C_R   0.179852 0.604993 0.519518 0.504682
C56   C     C_R   0.278133 0.504943 0.627123 -0.101741
C57   C     C_R   0.328236 0.506514 0.625477 -0.225554
C58   C     C_R   0.327838 0.485358 0.381937 -0.220595
H1    H     H_    0.346422 0.477558 0.286089 0.167190
H2    H     H_    0.258786 0.512777 0.721772 0.138604
H3    H     H_    0.127126 0.808367 0.536943 0.192432
H4    H     H_    0.969293 0.806438 0.580023 0.140927
H5    H     H_    0.653145 0.490418 0.279553 0.154180
H6    H     H_    0.884031 0.804658 0.575520 0.191090
H7    H     H_    0.741446 0.492009 0.278178 0.140266
H8    H     H_    0.042001 0.814055 0.533453 0.139204
H9    H     H_    0.520340 0.119302 0.297107 0.175585
H10   H     H_    0.506308 0.183410 0.789696 0.179041
H11   H     H_    0.465699 0.064509 0.970798 0.155406
H12   H     H_    0.258084 0.474714 0.290779 0.138401
H13   H     H_    0.424808 0.860234 0.929398 0.143166
H14   H     H_    0.430030 0.770598 0.706743 0.154350
H15   H     H_    0.513400 0.896635 0.289027 0.206172
H16   H     H_    0.432183 0.332836 0.254493 0.206483
H17   H     H_    0.372996 0.210735 0.137574 0.163658
H18   H     H_    0.372867 0.212681 0.888849 0.167953
H19   H     H_    0.432977 0.335117 0.760754 0.210061
H20   H     H_    0.560353 0.621702 0.863980 0.153090
H21   H     H_    0.115452 0.182865 0.476069 0.188870
H22   H     H_    0.653405 0.512300 0.715270 0.158346
H23   H     H_    0.741680 0.513204 0.711254 0.140086
H24   H     H_    0.873775 0.197935 0.414163 0.193736
H25   H     H_    0.958947 0.192523 0.416940 0.142148
H26   H     H_    0.030136 0.181121 0.472593 0.138586
H27   H     H_    0.347150 0.515579 0.719942 0.166472
N1    N     N_R   0.201683 0.494051 0.507870 -0.358677
N2    N     N_R   0.798452 0.502553 0.493306 -0.358108
N3    N     N_R   0.499540 0.498800 0.142780 -0.133039
N4    N     N_R   0.499520 0.498720 0.857170 -0.123725
O1    O     O_R   0.500000 0.316780 0.614690 -0.653765
O2    O     O_2   0.793752 0.290484 0.439388 -0.549817
O3    O     O_2   0.206890 0.711764 0.530956 -0.551913
O4    O     O_2   0.800967 0.714814 0.546477 -0.549054
O5    O     O_R   0.500000 0.316750 0.385360 -0.643852
O6    O     O_R   0.428760 0.500030 0.614650 -0.651712
O7    O     O_R   0.428750 0.500010 0.385320 -0.643933
O8    O     O_R   0.500000 0.683250 0.614640 -0.621231
O9    O     O_R   0.500000 0.683220 0.385310 -0.555529
O10   O     O_R   0.571250 0.499990 0.614680 -0.625354
O11   O     O_R   0.571240 0.499970 0.385350 -0.589672
O12   O     O_2   0.198843 0.276249 0.485410 -0.554001
Zn1   Zn    Zn3+2 0.500000 0.500020 0.653130 0.932689
Zn2   Zn    Zn3+2 0.500000 0.499980 0.346870 0.978043
C59   C     C_2   0.574909 0.637998 0.124481 0.436177
H28   H     H_    0.610199 0.637070 0.076109 0.019164
O13   O     O_2   0.569752 0.704788 0.219723 -0.543879

loop_
_geom_bond_atom_site_label_1
_geom_bond_atom_site_label_2
_ccdc_geom_bond_type
C10   C27   A    
C21   C26   A    
C1    O1    A    
C37   H11   S    
N4    Zn1   S    
C41   C42   A    
C31   H3    S    
C7    C55   A    
C59   O13   D    
C53   C54   A    
C40   C46   A    
C37   C38   A    
C28   C29   A    
C19   N2    A    
C5    C6    A    
C9    C22   A    
C53   C59   S    
O9    Zn2   S    
C20   N2    A    
C56   C57   A    
C18   C19   A    
O1    Zn1   S    
C8    C58   A    
C16   C17   A    
C34   O11   A    
C39   H14   S    
C12   O6    A    
O8    Zn1   S    
C19   O4    S    
O6    Zn1   S    
C8    C12   S    
C23   C46   S    
C21   C22   A    
C3    N1    S    
C48   H17   S    
C36   C41   A    
C14   H25   S    
C4    C7    A    
C59   H28   S    
C4    C28   A    
C44   C46   A    
C50   C51   A    
C15   H24   S    
C20   O2    S    
C7    C31   A    
C51   C52   A    
C52   N3    A    
C25   H7    S    
C24   C25   A    
C54   N4    A    
C10   C14   A    
C39   C40   A    
C26   N2    S    
C35   H8    S    
C58   H1    S    
C5    C45   A    
O11   Zn2   S    
C56   H2    S    
C43   C44   A    
C55   O3    S    
C8    C57   A    
C3    C56   A    
C47   C48   A    
C16   C20   A    
C23   O9    A    
C36   H10   S    
C17   C18   A    
C49   H18   S    
C45   O12   S    
C40   C41   A    
C23   O8    A    
C21   H23   S    
O5    Zn2   S    
C24   H5    S    
C9    C34   S    
C31   C35   A    
C42   C43   A    
C50   H19   S    
N3    Zn2   S    
C38   H13   S    
C36   C37   A    
C6    C30   A    
C47   H16   S    
C4    C5    A    
C10   C13   A    
C1    O5    A    
C11   C32   A    
C2    C58   A    
C9    C24   A    
C47   C52   A    
C34   O10   A    
C29   C35   A    
C13   C17   A    
C32   C33   A    
C55   N1    A    
C45   N1    A    
C25   C26   A    
C22   H22   S    
C51   N4    A    
C11   C13   A    
C6    H21   S    
C38   C39   A    
C33   H6    S    
C48   C49   A    
C57   H27   S    
C2    C3    A    
C53   N3    A    
C30   H26   S    
C44   H15   S    
C18   C33   A    
C32   H4    S    
C1    C42   S    
O10   Zn1   S    
C11   C29   A    
C43   H9    S    
C49   C50   A    
O7    Zn2   S    
C27   C28   A    
C14   C15   A    
C12   O7    A    
C54   H20   S    
C2    H12   S    
C15   C16   A    
C27   C30   A    
