data_mof_unit_30425.cif
_audit_creation_date              2012-12-10T17:22:39-0500
_audit_creation_method            fapswitch 2.2
_symmetry_space_group_name_H-M    P1
_symmetry_Int_Tables_number       1
_space_group_crystal_system       triclinic
_cell_length_a                    10.681539
_cell_length_b                    10.830389
_cell_length_c                    9.609135
_cell_angle_alpha                 88.615514
_cell_angle_beta                  90.56233
_cell_angle_gamma                 93.495635
_cell_volume                      1109.20399167

loop_
_atom_site_label
_atom_site_type_symbol
_atom_type_description
_atom_site_fract_x
_atom_site_fract_y
_atom_site_fract_z
_atom_type_partial_charge
C1    C     C_R   0.489508 0.262044 0.501591 0.808512
C2    C     C_3   0.959091 0.522511 0.369394 -0.134844
C3    C     C_3   0.034245 0.411185 0.417966 -0.203619
C4    C     C_3   0.122359 0.500195 0.500302 -0.077668
C5    C     C_R   0.348842 0.110606 0.723311 -0.232569
C6    C     C_R   0.291130 0.038439 0.829249 -0.202078
C7    C     C_R   0.287910 0.909933 0.824092 0.494723
C8    C     C_R   0.341226 0.854153 0.712391 -0.184252
C9    C     C_R   0.407477 0.924909 0.608436 0.009447
C10   C     C_R   0.411146 0.055985 0.613467 0.114561
C11   C     C_R   0.469243 0.126834 0.502691 -0.156391
C12   C     C_R   0.259358 0.499166 0.499767 0.804472
C13   C     C_R   0.497998 0.067962 0.380531 -0.201673
C14   C     C_R   0.485165 0.941275 0.371806 0.283196
C15   C     C_R   0.459902 0.868292 0.492752 -0.147348
C16   C     C_R   0.667382 0.664858 0.141737 -0.233030
C17   C     C_R   0.742572 0.753498 0.069423 0.422572
C18   C     C_R   0.744743 0.751964 0.925515 -0.225666
C19   C     C_R   0.668754 0.665444 0.854184 -0.227793
C20   C     C_R   0.583860 0.580206 0.924119 0.248559
C21   C     C_R   0.583788 0.579857 0.073469 0.197138
C22   C     C_R   0.419432 0.424605 0.075192 -0.029954
C23   C     C_R   0.486752 0.736314 0.497793 0.799769
C24   C     C_R   0.418947 0.425279 0.927471 -0.002821
C25   C     C_R   0.740729 0.501885 0.500346 0.809439
C26   C     C_3   0.041038 0.481191 0.631138 -0.159547
C27   C     C_3   0.951016 0.391970 0.548689 -0.142252
C28   C     C_3   0.877909 0.503050 0.500419 -0.048122
C29   C     C_3   0.965676 0.592406 0.583018 -0.165836
C30   C     C_3   0.048700 0.610353 0.452870 0.317853
Cu1   Cu    Cu3+1 0.499990 0.499990 0.640660 0.954059
Cu2   Cu    Cu3+1 0.500010 0.500010 0.359340 0.980415
H1    H     H_    0.908102 0.302146 0.588294 0.161503
H2    H     H_    0.322315 0.755580 0.704524 0.202317
H3    H     H_    0.353006 0.363054 0.131233 0.133936
H4    H     H_    0.671385 0.671728 0.251247 0.219955
H5    H     H_    0.803659 0.819717 0.867738 0.201639
H6    H     H_    0.677958 0.671937 0.744242 0.213937
H7    H     H_    0.350875 0.365649 0.873970 0.111363
H8    H     H_    0.076768 0.464077 0.738345 0.174804
H9    H     H_    0.935192 0.666990 0.649901 0.176301
H10   H     H_    0.923782 0.540766 0.262238 0.173055
H11   H     H_    0.064852 0.336937 0.350711 0.171888
H12   H     H_    0.527653 0.120812 0.288172 0.209490
H13   H     H_    0.336808 0.208215 0.725198 0.165488
H14   H     H_    0.244617 0.083096 0.912237 0.180644
N1    N     N_R   0.501210 0.501210 0.147910 -0.185168
N2    N     N_R   0.501250 0.501290 0.852040 -0.187680
O1    O     O_R   0.499990 0.319640 0.618810 -0.584267
O2    O     O_R   0.500000 0.319660 0.381240 -0.582110
O3    O     O_R   0.316850 0.499960 0.618770 -0.593280
O4    O     O_R   0.316860 0.499980 0.381190 -0.569706
O5    O     O_R   0.500000 0.680340 0.618760 -0.608507
O6    O     O_R   0.500010 0.680360 0.381190 -0.551911
O7    O     O_R   0.683140 0.500020 0.618810 -0.596418
O8    O     O_R   0.683150 0.500040 0.381230 -0.599618
S1    S     S_3+6 0.209931 0.816600 0.951649 0.047347
O9    O     O_2   0.200454 0.888301 0.082528 -0.186015
O10   O     O_2   0.081181 0.777541 0.898431 -0.303765
O11   O     O_3   0.289725 0.689900 0.984434 -0.533624
H15   H     H_    0.245842 0.646960 0.063835 0.384947
Br1   Br    Br    0.481327 0.881093 0.186145 -0.396963
S2    S     S_3+6 0.823085 0.874732 0.159517 0.054351
O12   O     O_2   0.953868 0.894102 0.105743 -0.147667
O13   O     O_2   0.758092 0.992534 0.134149 -0.279865
O14   O     O_3   0.828703 0.842530 0.331638 -0.522298
H16   H     H_    0.748637 0.868845 0.368745 0.337812
Br2   Br    Br    0.124768 0.767839 0.388483 -0.361170

loop_
_geom_bond_atom_site_label_1
_geom_bond_atom_site_label_2
_ccdc_geom_bond_type
Cu1   O5    S    
C8    C9    A    
C17   S2    S    
C4    C26   S    
S2    O13   D    
C16   C21   A    
C19   H6    S    
C26   C29   S    
C4    C12   S    
C9    C10   A    
Cu1   Cu2   S    
C1    C11   S    
C25   O8    A    
C2    C30   S    
C26   H8    S    
C24   H7    S    
C15   C23   S    
C22   N1    A    
S1    O9    D    
S2    O14   S    
C4    C30   S    
C5    C10   A    
C20   N2    A    
C13   C14   A    
C27   H1    S    
C25   C28   S    
C7    S1    S    
C22   H3    S    
C11   C13   A    
Cu2   O2    S    
C26   C27   S    
C29   C30   S    
C29   H9    S    
C5    H13   S    
C2    H10   S    
C16   H4    S    
C3    H11   S    
C3    C27   S    
C28   C29   S    
C12   O4    A    
C18   H5    S    
Cu1   O1    S    
C23   O5    A    
C6    C7    A    
C2    C3    S    
Cu1   N2    S    
C13   H12   S    
C9    C15   A    
C5    C6    A    
Cu2   N1    S    
C22   C24   A    
S1    O10   D    
C10   C11   A    
S2    O12   D    
C3    C4    S    
C24   N2    A    
C25   O7    A    
C7    C8    A    
C12   O3    A    
O14   H16   S    
C20   C21   A    
C23   O6    A    
C17   C18   A    
C18   C19   A    
C1    O2    A    
Cu2   O6    S    
C27   C28   S    
C14   C15   A    
Cu2   O4    S    
S1    O11   S    
C2    C28   S    
C6    H14   S    
Cu1   O7    S    
C8    H2    S    
C1    O1    A    
Cu2   O8    S    
O11   H15   S    
C30   Br2   S    
C19   C20   A    
Cu1   O3    S    
C16   C17   A    
C21   N1    A    
C14   Br1   S    
