data_mof_unit_12378.cif
_audit_creation_date              2012-12-10T20:36:38-0500
_audit_creation_method            fapswitch 2.2
_symmetry_space_group_name_H-M    P1
_symmetry_Int_Tables_number       1
_space_group_crystal_system       triclinic
_cell_length_a                    10.546975
_cell_length_b                    10.720495
_cell_length_c                    9.917146
_cell_angle_alpha                 89.245944
_cell_angle_beta                  91.550947
_cell_angle_gamma                 90.931602
_cell_volume                      1120.67000151

loop_
_atom_site_label
_atom_site_type_symbol
_atom_type_description
_atom_site_fract_x
_atom_site_fract_y
_atom_site_fract_z
_atom_type_partial_charge
C1    C     C_R   0.509133 0.259996 0.500387 0.913779
C2    C     C_3   0.953742 0.599173 0.424781 -0.206555
C3    C     C_3   0.035667 0.491831 0.374721 -0.135770
C4    C     C_3   0.122840 0.510875 0.498015 -0.036907
C5    C     C_R   0.529204 0.060646 0.622078 0.122377
C6    C     C_R   0.536165 0.128477 0.501072 -0.171561
C7    C     C_R   0.571768 0.064194 0.383296 0.194279
C8    C     C_R   0.565475 0.934553 0.383917 -0.235941
C9    C     C_R   0.528201 0.870554 0.500114 -0.152106
C10   C     C_R   0.523968 0.933542 0.620572 0.179563
C11   C     C_3   0.431417 0.922604 0.730706 -0.437311
C12   C     C_R   0.257728 0.505582 0.498665 0.892072
C13   C     C_3   0.439033 0.063263 0.735927 -0.486522
C14   C     C_R   0.397262 0.453465 0.068233 0.173835
C15   C     C_R   0.591003 0.562143 0.074804 -0.125272
C16   C     C_R   0.589956 0.564831 0.931633 0.190244
C17   C     C_R   0.397117 0.456124 0.925665 0.138722
C18   C     C_3   0.342240 0.330355 0.911356 -0.519176
C19   C     C_3   0.348308 0.320721 0.063475 -0.026336
C20   C     C_R   0.504747 0.739681 0.499398 0.891083
C21   C     C_R   0.742793 0.500133 0.502091 0.904517
C22   C     C_3   0.047802 0.416463 0.581647 -0.200150
C23   C     C_3   0.958711 0.396733 0.458353 0.211832
C24   C     C_3   0.878277 0.503033 0.507093 -0.046413
C25   C     C_3   0.965633 0.523110 0.631090 -0.131513
C26   C     C_3   0.044032 0.618484 0.548333 -0.150783
H1    H     H_    0.472151 0.875981 0.822447 0.231674
H2    H     H_    0.347828 0.109028 0.708527 0.211360
H3    H     H_    0.488247 0.093259 0.830697 0.224511
H4    H     H_    0.664726 0.611637 0.131263 0.170191
H5    H     H_    0.245203 0.332439 0.864961 0.222920
H6    H     H_    0.409344 0.270552 0.861849 0.207911
H7    H     H_    0.418341 0.252913 0.099965 0.189886
H8    H     H_    0.090246 0.341709 0.646134 0.162417
H9    H     H_    0.936531 0.532624 0.736902 0.191541
H10   H     H_    0.083227 0.709309 0.584055 0.154260
H11   H     H_    0.911247 0.674241 0.360850 0.168432
H12   H     H_    0.063621 0.489337 0.268358 0.191899
H13   H     H_    0.584217 0.884737 0.292388 0.193131
H14   H     H_    0.337076 0.886153 0.695376 0.198878
N1    N     N_R   0.499140 0.499140 0.142800 -0.127886
N2    N     N_R   0.499140 0.499180 0.857150 -0.122862
O1    O     O_R   0.500020 0.316790 0.614690 -0.621250
O2    O     O_R   0.500000 0.316760 0.385350 -0.584474
O3    O     O_R   0.313960 0.499990 0.614650 -0.623979
O4    O     O_R   0.313940 0.499950 0.385310 -0.603961
O5    O     O_R   0.500000 0.683240 0.614650 -0.601491
O6    O     O_R   0.499980 0.683210 0.385310 -0.630099
O7    O     O_R   0.686060 0.500050 0.614690 -0.597023
O8    O     O_R   0.686040 0.500010 0.385350 -0.614081
Zn1   Zn    Zn3+2 0.500010 0.500020 0.653130 0.980680
Zn2   Zn    Zn3+2 0.499990 0.499980 0.346870 0.990987
I1    I     I_    0.910435 0.207357 0.419221 -0.299568
I2    I     I_    0.725074 0.686535 0.844218 -0.366952
I3    I     I_    0.166328 0.281598 0.141697 -0.326639
I4    I     I_    0.635179 0.143963 0.198847 -0.320402

loop_
_geom_bond_atom_site_label_1
_geom_bond_atom_site_label_2
_ccdc_geom_bond_type
C4    C26   S    
C23   C24   S    
C13   H2    S    
C6    C7    A    
C8    H13   S    
O4    Zn2   S    
C4    C12   S    
C4    C22   S    
C9    C10   A    
N1    Zn2   S    
C5    C13   S    
C14   C17   A    
C11   H1    S    
N2    Zn1   S    
O2    Zn2   S    
C21   O7    A    
C17   C18   S    
C7    C8    A    
C2    C26   S    
C11   C13   S    
C2    H11   S    
O1    Zn1   S    
C20   O6    A    
C7    I4    S    
C25   H9    S    
C14   N1    A    
C5    C6    A    
C13   H3    S    
C21   O8    A    
C23   I1    S    
O6    Zn2   S    
C2    C3    S    
C2    C24   S    
C11   H14   S    
C22   H8    S    
C9    C20   S    
C16   I2    S    
C20   O5    A    
C18   H6    S    
C10   C11   S    
O3    Zn1   S    
C19   I3    S    
C1    C6    S    
C16   N2    A    
C5    C10   A    
C24   C25   S    
C15   N1    A    
C15   H4    S    
C12   O4    A    
C18   C19   S    
C19   H7    S    
C21   C24   S    
C26   H10   S    
O8    Zn2   S    
C22   C23   S    
C12   O3    A    
O5    Zn1   S    
C18   H5    S    
C1    O2    A    
C25   C26   S    
C17   N2    A    
C3    C23   S    
C14   C19   S    
C1    O1    A    
C3    C4    S    
C15   C16   A    
C3    H12   S    
C8    C9    A    
O7    Zn1   S    
C22   C25   S    
