data_mof_unit_36479.cif
_audit_creation_date              2012-12-10T16:54:53-0500
_audit_creation_method            fapswitch 2.2
_symmetry_space_group_name_H-M    P1
_symmetry_Int_Tables_number       1
_space_group_crystal_system       triclinic
_cell_length_a                    7.97354
_cell_length_b                    8.619512
_cell_length_c                    15.674621
_cell_angle_alpha                 92.981369
_cell_angle_beta                  83.373923
_cell_angle_gamma                 93.689646
_cell_volume                      1066.79107352

loop_
_atom_site_label
_atom_site_type_symbol
_atom_type_description
_atom_site_fract_x
_atom_site_fract_y
_atom_site_fract_z
_atom_type_partial_charge
C1    C     C_R   0.544500 0.794005 0.502597 0.920281
C2    C     C_2   0.435734 0.042049 0.501912 -0.372560
C3    C     C_R   0.497598 0.497797 0.661286 0.869801
C4    C     C_R   0.455309 0.206391 0.503941 0.908463
C5    C     C_R   0.502651 0.504740 0.339053 0.886877
C6    C     C_3   0.334419 0.595772 0.962668 -0.433634
C7    C     C_3   0.656391 0.640153 0.939409 0.219571
C8    C     C_3   0.660736 0.650818 0.040050 0.238891
C9    C     C_1   0.510251 0.525742 0.251127 -0.006036
C10   C     C_3   0.500405 0.529958 0.918029 0.024551
C11   C     C_1   0.192116 0.471284 0.090471 0.235239
C12   C     C_3   0.327020 0.590828 0.062675 0.328700
C13   C     C_1   0.701547 0.019344 0.565914 0.364251
C14   C     C_1   0.441522 0.253319 0.096061 0.350281
C15   C     C_3   0.508308 0.545440 0.084787 -0.098721
C16   C     C_3   0.542510 0.375890 0.047006 -0.345286
C17   C     C_3   0.516236 0.364930 0.950915 -0.498570
C18   C     C_1   0.513378 0.541974 0.176463 0.116832
C19   C     C_1   0.493370 0.512430 0.826496 0.053698
C20   C     C_1   0.493243 0.502044 0.750788 -0.059830
C21   C     C_2   0.563132 0.957316 0.518891 -0.234983
H1    H     H_    0.224228 0.528281 0.938207 0.158332
H2    H     H_    0.852978 0.158252 0.374914 0.357671
H3    H     H_    0.128149 0.901902 0.640986 0.370317
H4    H     H_    0.531834 0.020018 0.868670 0.367759
H5    H     H_    0.721587 0.941542 0.218764 0.384641
H6    H     H_    0.676186 0.350786 0.052153 0.194232
H7    H     H_    0.322492 0.990271 0.476706 0.232598
H8    H     H_    0.324174 0.714162 0.941368 0.282269
H9    H     H_    0.770796 0.579105 0.911869 0.081206
H10   H     H_    0.777388 0.593064 0.050386 0.093463
H11   H     H_    0.400492 0.290370 0.939917 0.226640
H12   H     H_    0.625443 0.308340 0.913898 0.210041
H13   H     H_    0.036563 0.816106 0.211863 0.408875
N1    N     N_2   0.950340 0.457950 0.477370 0.081738
N2    N     N_2   0.049660 0.542050 0.522630 0.109789
N3    N     N_1   0.084763 0.379719 0.111770 -0.104690
N4    N     N_1   0.810267 0.070534 0.603769 -0.137132
N5    N     N_1   0.361114 0.162491 0.137428 -0.017066
O1    O     O_R   0.389240 0.738570 0.505550 -0.575708
O2    O     O_2   0.244867 0.894301 0.055158 -0.208340
O3    O     O_3   0.052886 0.732983 0.166119 -0.492174
O4    O     O_2   0.073091 0.487210 0.314592 -0.232004
O5    O     O_2   0.159152 0.260761 0.384120 -0.306209
O6    O     O_3   0.857173 0.256413 0.344336 -0.510013
O7    O     O_2   0.995382 0.831478 0.495380 -0.323969
O8    O     O_2   0.836070 0.719271 0.624232 -0.255404
O9    O     O_3   0.149356 0.790578 0.628476 -0.510696
O10   O     O_2   0.839254 0.913299 0.900158 -0.211824
O11   O     O_2   0.691159 0.787221 0.787602 -0.285760
O12   O     O_R   0.678400 0.711630 0.491050 -0.556870
O13   O     O_3   0.514558 0.935030 0.909507 -0.505957
O14   O     O_2   0.887996 0.893533 0.059470 -0.193035
O15   O     O_2   0.594829 0.958284 0.067393 -0.196454
O16   O     O_3   0.695355 0.833223 0.197882 -0.537695
O17   O     O_R   0.355360 0.513470 0.630110 -0.597746
O18   O     O_R   0.644510 0.486530 0.615610 -0.589731
O19   O     O_R   0.321600 0.288370 0.508950 -0.585145
O20   O     O_R   0.610760 0.261430 0.494450 -0.635010
O21   O     O_R   0.355490 0.513470 0.384390 -0.551518
O22   O     O_R   0.644640 0.486530 0.369890 -0.557629
O23   O     O_2   0.356355 0.827795 0.186877 -0.254019
S1    S     S_3+6 0.250262 0.768897 0.117612 0.094757
S2    S     S_3+6 0.019088 0.366561 0.379646 0.165284
S3    S     S_3+6 0.999166 0.722664 0.566922 0.156209
S4    S     S_3+6 0.678830 0.822584 0.882723 0.078039
S5    S     S_3+6 0.709435 0.840441 0.090255 0.132574
Zn1   Zn    Zn3+2 0.306930 0.517990 0.509680 1.145348
Zn2   Zn    Zn3+2 0.693070 0.482010 0.490320 1.132195

loop_
_geom_bond_atom_site_label_1
_geom_bond_atom_site_label_2
_ccdc_geom_bond_type
C6    C10   S    
C7    C10   S    
O16   S5    S    
C11   C12   S    
N2    Zn1   S    
C1    C21   S    
N1    S2    S    
H2    O6    S    
O9    S3    S    
C15   C18   S    
O11   S4    D    
C3    O17   A    
O6    S2    S    
C2    C4    S    
N1    N2    D    
H13   O3    S    
C12   C15   S    
C10   C19   S    
O18   Zn2   S    
H5    O16   S    
C1    O1    A    
C16   H6    S    
H4    O13   S    
C13   C21   S    
C7    C8    S    
C7    H9    S    
O17   Zn1   S    
O5    S2    D    
C7    S4    S    
C5    C9    S    
C1    O12   A    
N1    Zn2   S    
C13   N4    T    
O23   S1    D    
C17   H12   S    
C2    C21   D    
C3    O18   A    
C4    O20   A    
O19   Zn1   S    
O20   Zn2   S    
O4    S2    D    
C8    C15   S    
C6    C12   S    
O14   S5    D    
C14   C16   S    
O10   S4    D    
O2    S1    D    
C10   C17   S    
C5    O22   A    
C15   C16   S    
H3    O9    S    
C9    C18   T    
C3    C20   S    
C6    H8    S    
O13   S4    S    
O7    S3    D    
O21   Zn1   S    
C8    S5    S    
O1    Zn1   S    
O22   Zn2   S    
C11   N3    T    
C17   H11   S    
N2    S3    S    
C2    H7    S    
O15   S5    D    
O12   Zn2   S    
C5    O21   A    
C4    O19   A    
C14   N5    T    
C12   S1    S    
C8    H10   S    
O3    S1    S    
O8    S3    D    
C19   C20   T    
C16   C17   S    
C6    H1    S    
