data_mof_unit_30554.cif
_audit_creation_date              2012-12-10T17:07:16-0500
_audit_creation_method            fapswitch 2.2
_symmetry_space_group_name_H-M    P1
_symmetry_Int_Tables_number       1
_space_group_crystal_system       triclinic
_cell_length_a                    18.401709
_cell_length_b                    18.28633
_cell_length_c                    18.311012
_cell_angle_alpha                 120.069306
_cell_angle_beta                  120.027021
_cell_angle_gamma                 59.64517
_cell_volume                      4341.99098818

loop_
_atom_site_label
_atom_site_type_symbol
_atom_type_description
_atom_site_fract_x
_atom_site_fract_y
_atom_site_fract_z
_atom_type_partial_charge
C1    C     C_R   0.139846 0.858957 0.638817 0.484771
C2    C     C_R   0.519290 0.263255 0.580549 -0.148696
C3    C     C_R   0.570099 0.210094 0.524466 -0.094835
C4    C     C_R   0.858533 0.140028 0.359750 0.479297
C5    C     C_R   0.663116 0.188681 0.559110 0.279652
C6    C     C_R   0.687190 0.118298 0.227762 -0.171100
C7    C     C_R   0.602935 0.113206 0.171747 -0.097921
C8    C     C_R   0.541173 0.176089 0.128712 0.306691
C9    C     C_R   0.564761 0.243097 0.137791 0.233786
C10   C     C_R   0.653975 0.244793 0.189582 -0.006639
C11   C     C_R   0.713550 0.184924 0.239648 -0.020142
C12   C     C_R   0.830872 0.308302 0.937107 -0.079537
C13   C     C_R   0.796672 0.195643 0.302951 0.035457
C14   C     C_R   0.821429 0.262037 0.314327 -0.130203
C15   C     C_R   0.767647 0.314990 0.260530 -0.153044
C16   C     C_R   0.139458 0.140764 0.641370 0.534240
C17   C     C_R   0.686066 0.305481 0.196970 0.040916
C18   C     C_R   0.685583 0.922370 0.375427 -0.127766
C19   C     C_R   0.602513 0.952253 0.382765 -0.069232
C20   C     C_R   0.548572 0.899230 0.328425 0.255665
C21   C     C_R   0.577877 0.815759 0.266845 -0.050715
C22   C     C_R   0.662927 0.783007 0.259560 -0.068283
C23   C     C_R   0.789181 0.279965 0.843083 0.016894
C24   C     C_R   0.717431 0.837418 0.314359 -0.053348
C25   C     C_R   0.800712 0.807100 0.304451 -0.016775
C26   C     C_R   0.829776 0.723547 0.241312 0.272165
C27   C     C_R   0.776680 0.669190 0.188199 0.281237
C28   C     C_R   0.858710 0.861338 0.360028 0.512375
C29   C     C_R   0.693411 0.698725 0.196911 -0.013749
C30   C     C_R   0.122381 0.685028 0.577272 -0.089461
C31   C     C_R   0.111558 0.603444 0.549890 0.285835
C32   C     C_R   0.167164 0.548868 0.603290 -0.079450
C33   C     C_R   0.230410 0.576635 0.685022 -0.151838
C34   C     C_R   0.842610 0.226506 0.787613 -0.003705
C35   C     C_R   0.239332 0.660593 0.715617 0.014919
C36   C     C_R   0.184594 0.715499 0.660868 -0.011714
C37   C     C_R   0.195614 0.798251 0.690269 0.031124
C38   C     C_R   0.260579 0.824707 0.770885 -0.154113
C39   C     C_R   0.314672 0.770734 0.823953 -0.141869
C40   C     C_R   0.139908 0.861487 0.359929 0.495585
C41   C     C_R   0.303676 0.690010 0.797941 0.040343
C42   C     C_R   0.116742 0.921290 0.225434 -0.077282
C43   C     C_R   0.105589 0.948427 0.160564 -0.099512
C44   C     C_R   0.159641 0.894913 0.107182 -0.093999
C45   C     C_R   0.695668 0.303206 0.803891 0.022169
C46   C     C_R   0.225180 0.813831 0.118221 -0.071048
C47   C     C_R   0.236822 0.783985 0.182490 0.038586
C48   C     C_R   0.181801 0.838613 0.237023 0.038819
C49   C     C_R   0.195842 0.810394 0.303771 0.034838
C50   C     C_R   0.265558 0.732233 0.318654 -0.133733
C51   C     C_R   0.319139 0.678875 0.265356 -0.121735
C52   C     C_R   0.858936 0.140107 0.638746 0.559009
C53   C     C_R   0.304059 0.702699 0.196199 0.034951
C54   C     C_R   0.296950 0.095803 0.789429 -0.114146
C55   C     C_R   0.383755 0.052161 0.834643 0.320922
C56   C     C_R   0.654305 0.272388 0.710302 -0.025161
C57   C     C_R   0.453105 0.078262 0.855217 0.283934
C58   C     C_R   0.433909 0.153952 0.835387 0.296290
C59   C     C_R   0.342074 0.206786 0.801987 0.020255
C60   C     C_R   0.277154 0.167047 0.764887 -0.102896
C61   C     C_R   0.194093 0.198397 0.702423 0.041919
C62   C     C_R   0.167927 0.281259 0.693639 0.224795
C63   C     C_R   0.223889 0.331461 0.746786 -0.115737
C64   C     C_R   0.936648 0.203515 0.827819 -0.086145
C65   C     C_R   0.310331 0.296357 0.800834 0.009473
C66   C     C_R   0.639081 0.640873 0.140065 0.503949
C67   C     C_R   0.707188 0.218223 0.653718 0.022236
C68   C     C_R   0.361280 0.358093 0.859324 0.555429
C69   C     C_R   0.638263 0.360067 0.140022 0.553353
C70   C     C_R   0.359997 0.638487 0.858575 0.483883
C71   C     C_R   0.360017 0.641537 0.139998 0.514478
C72   C     C_R   0.640603 0.359930 0.860959 0.485057
C73   C     C_R   0.976160 0.232199 0.920448 -0.098604
C74   C     C_R   0.923424 0.284171 0.974975 -0.105623
C75   C     C_3   0.980285 0.652974 0.288003 -0.070426
C76   C     C_3   0.835849 0.516168 0.154380 -0.095387
C77   C     C_3   0.964374 0.626662 0.467123 -0.123566
C78   C     C_R   0.801612 0.196401 0.693676 0.017416
C79   C     C_3   0.408260 0.902565 0.779365 -0.084958
C80   C     C_3   0.579511 0.153553 0.887858 -0.004640
C81   C     C_3   0.694540 0.181000 0.449575 -0.112217
C82   C     C_R   0.560390 0.294688 0.672255 -0.099960
Cl1   Cl    Cl    0.432476 0.171170 0.066671 -0.503315
Cl2   Cl    Cl    0.476417 0.329119 0.093772 -0.555034
Cl3   Cl    Cl    0.443106 0.937915 0.336424 -0.592122
Cl4   Cl    Cl    0.066696 0.325367 0.616122 -0.568779
Cl5   Cl    Cl    0.562009 0.008869 0.900475 -0.578793
H1    H     H_    0.536968 0.184927 0.453196 0.130162
H2    H     H_    0.083016 0.722773 0.531591 0.122323
H3    H     H_    0.161614 0.484203 0.581086 0.153183
H4    H     H_    0.272932 0.530885 0.722857 0.131491
H5    H     H_    0.363977 0.793152 0.886880 0.146150
H6    H     H_    0.277264 0.711332 0.370649 0.132753
H7    H     H_    0.075133 0.966703 0.267202 0.135381
H8    H     H_    0.055558 0.011899 0.152522 0.122326
H9    H     H_    0.048051 0.213651 0.950014 0.133908
H10   H     H_    0.151551 0.916881 0.057748 0.124969
H11   H     H_    0.267418 0.776199 0.077185 0.129805
H12   H     H_    0.730303 0.069880 0.262330 0.148360
H13   H     H_    0.371483 0.617392 0.276786 0.152109
H14   H     H_    0.245206 0.072608 0.773097 0.142333
H15   H     H_    0.200813 0.397342 0.742850 0.163817
H16   H     H_    0.954436 0.305564 0.046907 0.108498
H17   H     H_    0.792549 0.348585 0.982206 0.099956
H18   H     H_    0.517511 0.335998 0.712974 0.126407
H19   H     H_    0.447516 0.279921 0.552817 0.138604
H20   H     H_    0.884504 0.270678 0.363023 0.159291
H21   H     H_    0.042282 0.630347 0.274795 0.155548
H22   H     H_    0.972693 0.592411 0.279579 0.137378
H23   H     H_    0.584376 0.061844 0.164653 0.170496
H24   H     H_    0.989294 0.698998 0.358287 0.097826
H25   H     H_    0.894460 0.463530 0.133697 0.140882
H26   H     H_    0.782880 0.486297 0.121267 0.113519
H27   H     H_    0.857004 0.534645 0.228297 0.073709
H28   H     H_    0.947965 0.695298 0.470001 0.117769
H29   H     H_    0.952431 0.630240 0.522949 0.148118
H30   H     H_    0.917852 0.596313 0.403621 0.133642
H31   H     H_    0.461001 0.888629 0.756242 0.166834
H32   H     H_    0.343313 0.907771 0.723834 0.123235
H33   H     H_    0.427255 0.844205 0.797375 0.155706
H34   H     H_    0.790578 0.363144 0.267626 0.122798
H35   H     H_    0.606669 0.198144 0.892761 0.181016
H36   H     H_    0.628700 0.085141 0.870737 0.163924
H37   H     H_    0.574723 0.175093 0.954425 0.175113
H38   H     H_    0.704127 0.247324 0.492476 0.145023
H39   H     H_    0.626976 0.189335 0.398267 0.116278
H40   H     H_    0.743666 0.140911 0.414116 0.134759
H41   H     H_    0.723745 0.967075 0.417341 0.189782
H42   H     H_    0.579724 0.017290 0.430258 0.156857
H43   H     H_    0.532654 0.778028 0.224375 0.154051
H44   H     H_    0.980746 0.162810 0.788398 0.107699
H45   H     H_    0.267883 0.888680 0.793845 0.143716
O1    O     O_3   0.000000 1.000000 0.500000 -0.454480
O2    O     O_R   0.323460 0.615830 0.884170 -0.554957
O3    O     O_R   0.444880 0.615840 0.176480 -0.521743
O4    O     O_R   0.055060 0.884200 0.615800 -0.549717
O5    O     O_R   0.615800 0.444940 0.884180 -0.525665
O6    O     O_R   0.323440 0.615840 0.055040 -0.533208
O7    O     O_R   0.615780 0.323500 0.884180 -0.576710
O8    O     O_R   0.615760 0.323500 0.055050 -0.553143
O9    O     O_R   0.444910 0.615830 0.884180 -0.537963
O10   O     O_R   0.615780 0.615830 0.176490 -0.567152
O11   O     O_R   0.323430 0.444950 0.884170 -0.538058
O12   O     O_R   0.055100 0.176520 0.615800 -0.478799
O13   O     O_R   0.884210 0.176520 0.444920 -0.525041
O14   O     O_R   0.176540 0.055080 0.615800 -0.559330
O15   O     O_R   0.884190 0.884200 0.323480 -0.495582
O16   O     O_R   0.176540 0.884190 0.444930 -0.534191
O17   O     O_R   0.884180 0.055090 0.615790 -0.514985
O18   O     O_R   0.055100 0.884190 0.323490 -0.535246
O19   O     O_R   0.884190 0.176530 0.615790 -0.535484
O20   O     O_3   0.908038 0.696705 0.226947 -0.506603
O21   O     O_3   0.806282 0.588174 0.125302 -0.503584
O22   O     O_3   0.052562 0.572149 0.467202 -0.577977
O23   O     O_R   0.884180 0.884200 0.444920 -0.563221
O24   O     O_3   0.401500 0.980507 0.855489 -0.504922
O25   O     O_3   0.496667 0.158714 0.817872 -0.548572
O26   O     O_3   0.710695 0.133320 0.500300 -0.599909
O27   O     O_R   0.176510 0.884190 0.615800 -0.559727
O28   O     O_R   0.884210 0.055080 0.323480 -0.550280
O29   O     O_3   0.499970 0.500030 0.999970 -0.450396
O30   O     O_R   0.615800 0.615830 0.055050 -0.498475
O31   O     O_R   0.444880 0.323510 0.884180 -0.487736
O32   O     O_R   0.615760 0.444950 0.176490 -0.518932
Zn1   Zn    Zn3+2 0.956630 0.130130 0.543370 0.986500
Zn2   Zn    Zn3+2 0.130140 0.956620 0.543380 0.924820
Zn3   Zn    Zn3+2 0.956630 0.956620 0.369870 0.962719
Zn4   Zn    Zn3+2 0.956610 0.956630 0.543370 0.935883
Zn5   Zn    Zn3+2 0.543340 0.369890 0.956600 0.945979
Zn6   Zn    Zn3+2 0.543340 0.543410 0.130100 0.967887
Zn7   Zn    Zn3+2 0.369830 0.543410 0.956590 0.962505
Zn8   Zn    Zn3+2 0.543370 0.543400 0.956600 0.954231

loop_
_geom_bond_atom_site_label_1
_geom_bond_atom_site_label_2
_ccdc_geom_bond_type
C19   H42   S    
O31   Zn5   S    
C63   C65   A    
C17   C69   S    
O8    Zn5   S    
C23   C45   A    
C22   C29   A    
C12   C74   A    
C81   H39   S    
C27   C29   A    
C8    Cl1   S    
O16   Zn2   S    
C73   C74   A    
C54   H14   S    
O32   Zn6   S    
C35   C36   A    
C69   O32   A    
C47   C53   A    
C5    C67   A    
C80   O25   S    
C7    C8    A    
C39   C41   A    
C54   C60   A    
C25   C28   S    
C62   Cl4   S    
C12   C23   A    
C26   C27   A    
C62   C63   A    
C18   C24   A    
C36   C37   A    
C16   O12   A    
C12   H17   S    
C77   H30   S    
C33   H4    S    
C71   O3    A    
C30   C31   A    
C6    H12   S    
O28   Zn3   S    
O18   Zn3   S    
C10   C17   A    
C40   C49   S    
C79   H31   S    
C76   O21   S    
C66   O30   A    
C68   O11   A    
C16   O14   A    
C18   C19   A    
C82   H18   S    
C4    C13   S    
O5    Zn8   S    
C18   H41   S    
C79   O24   S    
C46   C47   A    
O29   Zn8   S    
C72   O7    A    
C32   H3    S    
C47   C48   A    
C45   C56   A    
C52   O17   A    
C28   O15   A    
C79   H32   S    
C28   O23   A    
C43   H8    S    
C64   C73   A    
C77   H29   S    
C9    C10   A    
C75   O20   S    
C1    C37   S    
O10   Zn6   S    
O29   Zn5   S    
C23   C34   A    
C69   O8    A    
C46   H11   S    
C59   C60   A    
C21   C22   A    
C79   H33   S    
C45   C72   S    
C67   C78   A    
C63   H15   S    
C52   C78   S    
C44   C46   A    
C76   H26   S    
C71   O6    A    
C72   O5    A    
C55   O24   S    
C75   H22   S    
C30   H2    S    
C40   O16   A    
C1    O27   A    
C24   C25   A    
O1    Zn4   S    
C6    C11   A    
O6    Zn7   S    
C8    C9    A    
C80   H35   S    
O4    Zn4   S    
C25   C26   A    
O19   Zn1   S    
C2    H19   S    
O9    Zn8   S    
C57   Cl5   S    
C60   C61   A    
C51   C53   A    
C38   H45   S    
C43   C44   A    
C37   C38   A    
O1    Zn1   S    
C77   O22   S    
C44   H10   S    
C76   H27   S    
C31   C32   A    
C64   H44   S    
O23   Zn4   S    
C76   H25   S    
C65   C68   S    
C20   Cl3   S    
C34   C64   A    
C50   C51   A    
C40   O18   A    
C42   C48   A    
O15   Zn3   S    
O29   Zn6   S    
O13   Zn1   S    
C27   O21   S    
C49   C50   A    
O2    Zn7   S    
C55   C57   A    
C22   C24   A    
C2    C82   A    
C16   C61   S    
C1    O4    A    
C14   H20   S    
C39   H5    S    
C31   O22   S    
C80   H37   S    
C68   O31   A    
C51   H13   S    
C15   C17   A    
C54   C55   A    
C48   C49   A    
C70   O9    A    
C81   O26   S    
C15   H34   S    
C81   H38   S    
C3    H1    S    
C42   H7    S    
C3    C5    A    
C58   O25   S    
C4    O28   A    
C7    H23   S    
C50   H6    S    
C56   C82   A    
C6    C7    A    
C66   O10   A    
C56   C67   A    
C75   H24   S    
O27   Zn2   S    
C30   C36   A    
O12   Zn1   S    
C32   C33   A    
C19   C20   A    
O1    Zn3   S    
C2    C3    A    
C58   C59   A    
O11   Zn7   S    
C77   H28   S    
O1    Zn2   S    
C59   C65   A    
C11   C13   A    
C57   C58   A    
C38   C39   A    
C52   O19   A    
C4    O13   A    
C26   O20   S    
C33   C35   A    
O7    Zn5   S    
O14   Zn2   S    
C61   C62   A    
C35   C41   A    
C21   H43   S    
C10   C11   A    
C9    Cl2   S    
C29   C66   S    
O3    Zn6   S    
C75   H21   S    
O29   Zn7   S    
O30   Zn8   S    
C20   C21   A    
C5    O26   S    
C42   C43   A    
C70   O2    A    
O17   Zn4   S    
C14   C15   A    
C74   H16   S    
C73   H9    S    
C13   C14   A    
C34   C78   A    
C81   H40   S    
C41   C70   S    
C80   H36   S    
C53   C71   S    
