data_mof_unit_41811.cif
_audit_creation_date              2012-12-11T16:09:00-0500
_audit_creation_method            fapswitch 2.2
_symmetry_space_group_name_H-M    P1
_symmetry_Int_Tables_number       1
_space_group_crystal_system       triclinic
_cell_length_a                    12.974452
_cell_length_b                    13.279107
_cell_length_c                    27.705292
_cell_angle_alpha                 94.728738
_cell_angle_beta                  90.392347
_cell_angle_gamma                 119.314993
_cell_volume                      4141.7620051

loop_
_atom_site_label
_atom_site_type_symbol
_atom_type_description
_atom_site_fract_x
_atom_site_fract_y
_atom_site_fract_z
_atom_type_partial_charge
Br1   Br    Br    0.145110 0.604271 0.798919 -0.568487
Br2   Br    Br    0.132791 0.503686 0.299920 -0.624753
C1    C     C_R   0.627959 0.895098 0.427588 0.547377
C2    C     C_R   0.154723 0.735507 0.301980 0.021527
C3    C     C_R   0.144328 0.728390 0.201043 -0.025887
C4    C     C_R   0.600957 0.222025 0.440562 0.546474
C5    C     C_R   0.140792 0.635858 0.223070 -0.110580
C6    C     C_R   0.143113 0.637359 0.273264 0.138918
C7    C     C_R   0.135506 0.722908 0.151027 -0.127295
C8    C     C_R   0.119466 0.805508 0.128563 -0.000768
C9    C     C_R   0.195353 0.939899 0.358106 -0.136105
C10   C     C_R   0.171959 0.928964 0.308138 0.012082
C11   C     C_R   0.157872 0.829156 0.279799 0.035486
C12   C     C_R   0.580608 0.259128 0.220255 -0.102890
C13   C     C_R   0.170124 0.019008 0.285644 -0.132705
C14   C     C_R   0.156040 0.011086 0.235211 -0.133380
C15   C     C_R   0.147129 0.914616 0.206695 0.018358
C16   C     C_R   0.267535 0.875568 0.426083 0.545663
C17   C     C_R   0.149885 0.824195 0.229190 0.053117
C18   C     C_R   0.130143 0.903934 0.156226 -0.134441
C19   C     C_R   0.202737 0.851324 0.379434 -0.018046
C20   C     C_R   0.755387 0.933466 0.358681 -0.126596
C21   C     C_R   0.762387 0.923097 0.308825 0.010287
C22   C     C_R   0.766621 0.912280 0.208112 0.009545
C23   C     C_R   0.569081 0.243776 0.269618 -0.102366
C24   C     C_R   0.859415 0.004808 0.236613 -0.120376
C25   C     C_R   0.858152 0.009306 0.286826 -0.118495
C26   C     C_R   0.770585 0.905085 0.158184 -0.124926
C27   C     C_R   0.687700 0.804599 0.129595 -0.004358
C28   C     C_R   0.627529 0.898443 0.564854 0.546767
C29   C     C_R   0.562511 0.758698 0.352530 -0.128925
C30   C     C_R   0.570515 0.744215 0.302455 0.008571
C31   C     C_R   0.668566 0.829488 0.280392 0.061461
C32   C     C_R   0.479367 0.650130 0.273729 -0.116510
C33   C     C_R   0.485025 0.641067 0.223306 -0.122933
C34   C     C_R   0.664115 0.313837 0.303144 0.032910
C35   C     C_R   0.580591 0.727415 0.201033 0.010610
C36   C     C_R   0.671726 0.823008 0.229825 0.062173
C37   C     C_R   0.589948 0.717862 0.150764 -0.134327
C38   C     C_R   0.651904 0.857031 0.380144 -0.006877
C39   C     C_R   0.742060 0.296244 0.650823 -0.132466
C40   C     C_R   0.604187 0.228418 0.577985 0.546821
C41   C     C_R   0.757863 0.323917 0.700988 0.009302
C42   C     C_R   0.770852 0.354867 0.802786 0.019689
C43   C     C_R   0.852935 0.332769 0.778232 -0.093612
C44   C     C_R   0.845932 0.316491 0.727592 -0.113441
C45   C     C_R   0.687499 0.344279 0.204066 0.033228
C46   C     C_R   0.776030 0.370487 0.853500 -0.120344
C47   C     C_R   0.692314 0.391648 0.877204 -0.004501
C48   C     C_R   0.577770 0.335692 0.649003 -0.128045
C49   C     C_R   0.590483 0.360847 0.698989 0.014768
C50   C     C_R   0.678344 0.351258 0.725324 0.063799
C51   C     C_R   0.510691 0.386505 0.723275 -0.127266
C52   C     C_R   0.271680 0.879248 0.563349 0.546665
C53   C     C_R   0.513965 0.396876 0.773628 -0.130855
C54   C     C_R   0.598509 0.383867 0.800008 0.008197
C55   C     C_R   0.683096 0.363977 0.776061 0.062252
C56   C     C_1   0.696127 0.367348 0.153956 -0.056473
C57   C     C_R   0.601215 0.393317 0.850117 -0.129269
C58   C     C_R   0.646870 0.294439 0.625456 -0.004605
C59   C     C_1   0.220711 0.861291 0.609774 -0.008593
C60   C     C_R   0.162031 0.743009 0.722339 -0.072757
C61   C     C_R   0.150147 0.735370 0.772248 0.183648
C62   C     C_R   0.144925 0.916366 0.780348 -0.147787
C63   C     C_R   0.156927 0.923596 0.730396 -0.118826
C64   C     C_1   0.632522 0.268623 0.394663 -0.005561
C65   C     C_R   0.165628 0.836930 0.701310 0.007408
C66   C     C_R   0.142514 0.822973 0.801561 0.051412
C67   C     C_1   0.650757 0.294560 0.353656 -0.048972
C68   C     C_1   0.124022 0.813190 0.852591 -0.003324
C69   C     C_1   0.190375 0.849366 0.650907 -0.053899
C70   C     C_1   0.100097 0.797219 0.894239 0.017483
C71   C     C_1   0.648997 0.858587 0.608509 -0.015054
C72   C     C_R   0.790618 0.858706 0.719275 -0.101382
C73   C     C_R   0.802732 0.843412 0.767953 -0.099337
C74   C     C_R   0.591212 0.713024 0.768111 -0.094354
C75   C     C_R   0.579079 0.728310 0.719406 -0.100130
C76   C     C_R   0.771494 0.398457 0.286976 -0.085504
C77   C     C_R   0.678518 0.802488 0.695040 0.035976
C78   C     C_1   0.704233 0.394725 0.113146 -0.012415
C79   C     C_R   0.702810 0.772172 0.792743 0.039386
C80   C     C_1   0.714839 0.763826 0.843811 -0.053218
C81   C     C_1   0.663714 0.830283 0.647152 -0.057133
C82   C     C_1   0.728058 0.759049 0.886567 -0.010288
C83   C     C_R   0.064150 0.772022 0.079522 0.548179
C84   C     C_R   0.717163 0.441381 0.067304 0.549128
C85   C     C_R   0.721007 0.782551 0.081225 0.559127
C86   C     C_R   0.056322 0.766247 0.941208 0.540934
C87   C     C_R   0.710960 0.436757 0.928302 0.537718
C88   C     C_R   0.783010 0.413867 0.237521 -0.089660
C89   C     C_R   0.171389 0.745901 0.352096 -0.109224
C90   C     C_R   0.749301 0.753903 0.937030 0.564129
Cr1   Cr    Cr6+3 0.416430 0.829200 0.492370 1.036767
Cr2   Cr    Cr6+3 0.674630 0.087020 0.504170 1.029454
Cr3   Cr    Cr6+3 0.408920 0.083740 0.503490 1.025776
Cr4   Cr    Cr6+3 0.914010 0.832750 0.013970 1.019433
Cr5   Cr    Cr6+3 0.922310 0.578600 0.003000 1.033122
Cr6   Cr    Cr6+3 0.656280 0.574630 0.003870 1.027986
H1    H     H_    0.845779 0.452619 0.312490 0.148394
H2    H     H_    0.414489 0.567118 0.201757 0.122432
H3    H     H_    0.403758 0.583896 0.290245 0.163582
H4    H     H_    0.865662 0.481004 0.225460 0.131001
H5    H     H_    0.483148 0.698467 0.369253 0.143142
H6    H     H_    0.846954 0.370205 0.874305 0.138877
H7    H     H_    0.797187 0.266523 0.632416 0.131830
H8    H     H_    0.921169 0.326180 0.798181 0.144230
H9    H     H_    0.907843 0.295942 0.709294 0.118898
H10   H     H_    0.536417 0.410522 0.867867 0.142588
H11   H     H_    0.450021 0.414383 0.791937 0.115561
H12   H     H_    0.153406 0.080809 0.218503 0.109230
H13   H     H_    0.443265 0.394496 0.703366 0.112074
H14   H     H_    0.506222 0.337231 0.629196 0.132282
H15   H     H_    0.170229 0.676501 0.700084 0.138998
H16   H     H_    0.505778 0.205805 0.194864 0.115840
H17   H     H_    0.137512 0.983546 0.802420 0.110923
H18   H     H_    0.161018 0.997361 0.714605 0.118358
H19   H     H_    0.868044 0.916965 0.701015 0.110414
H20   H     H_    0.889518 0.889377 0.786585 0.111102
H21   H     H_    0.513377 0.657463 0.786833 0.130024
H22   H     H_    0.491800 0.685091 0.701210 0.119635
H23   H     H_    0.180242 0.095713 0.307026 0.116672
H24   H     H_    0.485838 0.177529 0.281685 0.120874
H25   H     H_    0.128923 0.647231 0.129955 0.137586
H26   H     H_    0.173018 0.676720 0.369509 0.190281
H27   H     H_    0.133711 0.560951 0.201198 0.140915
H28   H     H_    0.118456 0.968261 0.138929 0.120797
H29   H     H_    0.216866 0.020484 0.379522 0.130243
H30   H     H_    0.845495 0.973626 0.142155 0.135581
H31   H     H_    0.825707 0.008224 0.380030 0.138349
H32   H     H_    0.933565 0.072845 0.220076 0.115583
H33   H     H_    0.930404 0.081668 0.308400 0.125851
H34   H     H_    0.525413 0.640609 0.128710 0.126595
O1    O     O_R   0.296680 0.802170 0.437540 -0.514507
O2    O     O_R   0.637200 0.461990 0.052510 -0.507178
O3    O     O_R   0.664790 0.681920 0.057970 -0.493843
O4    O     O_R   0.525380 0.838530 0.443500 -0.499616
O5    O     O_R   0.815840 0.852920 0.961840 -0.500949
O6    O     O_R   0.012100 0.822630 0.963670 -0.520597
O7    O     O_R   0.037010 0.668460 0.953040 -0.486407
O8    O     O_R   0.813390 0.478970 0.949660 -0.498276
O9    O     O_R   0.632250 0.456930 0.945520 -0.528182
O10   O     O_R   0.660200 0.677230 0.958780 -0.489297
O11   O     O_3   0.830870 0.661990 0.006950 -0.270942
O12   O     O_R   0.662610 0.183990 0.557860 -0.503893
O13   O     O_R   0.702130 0.995190 0.446810 -0.517116
O14   O     O_R   0.661770 0.181390 0.458760 -0.490434
O15   O     O_R   0.499820 0.198480 0.455280 -0.510586
O16   O     O_R   0.311660 0.976250 0.449080 -0.501319
O17   O     O_R   0.297580 0.804960 0.544440 -0.506452
O18   O     O_R   0.526220 0.841130 0.542590 -0.494026
O19   O     O_R   0.703030 0.997990 0.553710 -0.511487
O20   O     O_R   0.500730 0.201280 0.562180 -0.516868
O21   O     O_R   0.312500 0.978850 0.548170 -0.494659
O22   O     O_3   0.499990 0.999990 0.500010 -0.245685
O23   O     O_R   0.820790 0.857990 0.068830 -0.518300
O24   O     O_R   0.016700 0.827330 0.062850 -0.500854
O25   O     O_R   0.041970 0.673520 0.060040 -0.517807
O26   O     O_R   0.817980 0.483660 0.048840 -0.492253

loop_
_geom_bond_atom_site_label_1
_geom_bond_atom_site_label_2
_ccdc_geom_bond_type
Cr2   O14   S    
C53   C54   A    
C8    C83   S    
Cr6   O11   S    
C16   C19   S    
C25   H33   S    
Cr1   O17   S    
C2    C6    A    
Cr1   O4    S    
C52   O21   A    
C79   C80   S    
C14   H12   S    
C5    C6    A    
C43   C44   A    
C29   C38   A    
C18   H28   S    
C24   C25   A    
C60   C61   A    
C39   H7    S    
C60   C65   A    
C62   C66   A    
Cr1   O22   S    
C33   C35   A    
C22   C24   A    
C1    O4    A    
Cr1   O1    S    
Cr4   O6    S    
C4    O14   A    
C41   C50   A    
C28   O18   A    
Cr4   O23   S    
C37   H34   S    
C13   C14   A    
C46   H6    S    
C15   C18   A    
C54   C55   A    
C16   O1    A    
C32   C33   A    
C2    C11   A    
Cr5   O11   S    
C78   C84   S    
C7    H25   S    
Cr5   O25   S    
C84   O2    A    
C88   H4    S    
C8    C18   A    
C14   C15   A    
C63   C65   A    
C22   C36   A    
C21   C25   A    
C90   O10   A    
C23   H24   S    
Cr5   O8    S    
C24   H32   S    
C56   C78   T    
C2    C89   A    
C75   H22   S    
Cr2   O13   S    
C51   C53   A    
C19   C89   A    
C62   H17   S    
C53   H11   S    
C39   C41   A    
Cr1   O18   S    
C73   H20   S    
C83   O25   A    
C90   O5    A    
Br1   C61   S    
C70   C86   S    
C52   O17   A    
C75   C77   A    
C74   H21   S    
C72   C73   A    
C11   C17   A    
C49   C50   A    
C32   H3    S    
C85   O3    A    
Cr3   O15   S    
C74   C75   A    
C60   H15   S    
C40   C58   S    
Cr4   O5    S    
C3    C5    A    
C28   C71   S    
C73   C79   A    
C21   C31   A    
Cr2   O19   S    
C12   H16   S    
Cr6   O3    S    
C9    C19   A    
C76   C88   A    
C49   C51   A    
C83   O24   A    
C30   C32   A    
C51   H13   S    
C9    H29   S    
C86   O7    A    
C3    C7    A    
C35   C36   A    
C29   C30   A    
C10   C13   A    
C42   C55   A    
Cr2   O22   S    
C87   O8    A    
C20   C38   A    
C44   H9    S    
C27   C37   A    
C48   H14   S    
C48   C49   A    
C5    H27   S    
C84   O26   A    
C86   O6    A    
C46   C47   A    
C1    C38   S    
C1    O13   A    
C80   C82   T    
C72   C77   A    
C20   H31   S    
C40   O12   A    
C63   H18   S    
C85   O23   A    
C33   H2    S    
C40   O20   A    
C43   H8    S    
C7    C8    A    
C72   H19   S    
C61   C66   A    
C26   C27   A    
C13   H23   S    
Br2   C6    S    
C42   C43   A    
C22   C26   A    
C39   C58   A    
C47   C87   S    
C74   C79   A    
C9    C10   A    
C12   C45   A    
C3    C17   A    
C52   C59   S    
Cr6   O2    S    
C16   O16   A    
C57   H10   S    
C47   C57   A    
C54   C57   A    
C89   H26   S    
Cr3   O22   S    
Cr2   O12   S    
C30   C31   A    
C48   C58   A    
C35   C37   A    
C34   C76   A    
Cr5   O26   S    
Cr4   O11   S    
C77   C81   S    
C4    O15   A    
C59   C69   T    
C28   O19   A    
Cr4   O24   S    
Cr6   O9    S    
C87   O9    A    
C62   C63   A    
C15   C17   A    
Cr5   O7    S    
C65   C69   S    
C12   C23   A    
C34   C67   S    
C41   C44   A    
C45   C88   A    
C27   C85   S    
C50   C55   A    
C23   C34   A    
C64   C67   T    
C42   C46   A    
C4    C64   S    
Cr3   O16   S    
C10   C11   A    
C66   C68   S    
C76   H1    S    
C20   C21   A    
C31   C36   A    
C68   C70   T    
Cr3   O20   S    
C82   C90   S    
Cr3   O21   S    
C71   C81   T    
Cr6   O10   S    
C26   H30   S    
C29   H5    S    
C45   C56   S    
