data_mof_unit_11098.cif
_audit_creation_date              2012-12-11T17:41:42-0500
_audit_creation_method            fapswitch 2.2
_symmetry_space_group_name_H-M    P1
_symmetry_Int_Tables_number       1
_space_group_crystal_system       triclinic
_cell_length_a                    15.460746
_cell_length_b                    14.891981
_cell_length_c                    15.096164
_cell_angle_alpha                 109.642874
_cell_angle_beta                  121.406329
_cell_angle_gamma                 59.30475
_cell_volume                      2539.22946016

loop_
_atom_site_label
_atom_site_type_symbol
_atom_type_description
_atom_site_fract_x
_atom_site_fract_y
_atom_site_fract_z
_atom_type_partial_charge
C1    C     C_R   0.756782 0.992475 0.790659 -0.122339
C2    C     C_R   0.354827 0.321837 0.119459 -0.111640
C3    C     C_R   0.594316 0.694503 0.808482 -0.132807
C4    C     C_R   0.413515 0.214964 0.097602 -0.134571
C5    C     C_R   0.635056 0.741685 0.910821 0.115242
C6    C     C_R   0.357553 0.149253 0.043300 0.134757
C7    C     C_R   0.747413 0.690569 0.979882 -0.171896
C8    C     C_R   0.241845 0.191926 0.010020 -0.188012
C9    C     C_R   0.817843 0.595698 0.946608 -0.101404
C10   C     C_R   0.183881 0.298413 0.034749 -0.118056
C11   C     C_R   0.776834 0.550534 0.844431 -0.106299
C12   C     C_R   0.198506 0.060028 0.225502 -0.131597
C13   C     C_R   0.240337 0.363420 0.089294 -0.102740
C14   C     C_R   0.562581 0.860201 0.042342 -0.241994
C15   C     C_R   0.412859 0.022125 0.912277 -0.233428
C16   C     C_R   0.243592 0.290398 0.490576 -0.119770
C17   C     C_R   0.801223 0.725904 0.559665 -0.130465
C18   C     C_R   0.493432 0.957479 0.074305 0.069287
C19   C     C_R   0.486684 0.928509 0.882333 0.061185
C20   C     C_R   0.418120 0.039404 0.009028 0.006460
C21   C     C_R   0.560741 0.844370 0.945111 0.025377
C22   C     C_2   0.150620 0.397902 0.612922 -0.213646
C23   C     C_R   0.211911 0.299942 0.565446 0.150609
C24   C     C_2   0.978505 0.653443 0.537832 -0.220494
C25   C     C_2   0.134459 0.490024 0.598511 -0.108113
C26   C     C_2   0.039603 0.583743 0.607997 -0.108438
C27   C     C_2   0.849881 0.117677 0.898232 -0.216785
C28   C     C_2   0.018381 0.042112 0.151682 -0.219325
C29   C     C_R   0.092667 0.733698 0.319276 -0.156631
C30   C     C_R   0.813629 0.118274 0.369707 -0.156107
C31   C     C_R   0.205469 0.665675 0.362059 -0.237884
C32   C     C_R   0.711301 0.204142 0.356469 -0.220085
C33   C     C_R   0.273087 0.641453 0.314039 0.113796
C34   C     C_R   0.863352 0.726355 0.519153 0.152202
C35   C     C_R   0.706020 0.293487 0.428763 0.133055
C36   C     C_R   0.226396 0.687709 0.223267 -0.225927
C37   C     C_R   0.805150 0.295737 0.514209 -0.239922
C38   C     C_R   0.113293 0.756646 0.180825 -0.166373
C39   C     C_R   0.907495 0.210028 0.527176 -0.154346
C40   C     C_R   0.593717 0.216386 0.488276 -0.147374
C41   C     C_R   0.403405 0.771076 0.446116 -0.136142
C42   C     C_R   0.045445 0.778828 0.227779 0.407661
C43   C     C_R   0.912456 0.120892 0.454994 0.414580
C44   C     C_R   0.397148 0.460682 0.348539 -0.264518
C45   C     C_R   0.502666 0.297270 0.429293 0.074529
C46   C     C_R   0.589506 0.484302 0.417592 -0.250140
C47   C     C_R   0.500676 0.377807 0.391677 0.051405
C48   C     C_R   0.488060 0.573375 0.401122 0.061520
C49   C     C_R   0.597475 0.385282 0.413015 0.039421
C50   C     C_R   0.388449 0.558878 0.352913 0.045566
C51   C     C_2   0.863289 0.105207 0.988956 -0.107597
C52   C     C_2   0.958690 0.114115 0.083940 -0.109426
C53   C     C_R   0.405056 0.985363 0.710997 -0.155301
C54   C     C_R   0.592951 0.957696 0.268545 -0.138949
C55   C     C_R   0.409597 0.287511 0.409805 -0.129676
C56   C     C_R   0.492844 0.675478 0.450107 0.054234
C57   C     C_R   0.588982 0.693722 0.518075 -0.125952
C58   C     C_R   0.589788 0.913641 0.789871 -0.122721
C59   C     C_R   0.406044 0.027963 0.194500 -0.108420
C60   C     C_R   0.242573 0.199580 0.582327 -0.147869
C61   C     C_R   0.801412 0.815789 0.467793 -0.154695
C62   C     C_R   0.757825 0.084752 0.700501 -0.144702
C63   C     C_R   0.195945 0.969411 0.314299 -0.154040
C64   C     C_R   0.788541 0.068613 0.800312 0.147140
C65   C     C_R   0.134421 0.021257 0.225390 0.155804
C66   C     C_3   0.923082 0.848623 0.179522 -1.144330
C67   C     C_R   0.495018 0.933676 0.794708 0.053585
C68   C     C_3   0.023070 0.029862 0.469728 -1.108063
C69   C     C_R   0.498419 0.973412 0.174942 0.050921
C70   C     C_R   0.665112 0.599793 0.775484 -0.110469
H1    H     H_    0.769957 0.958699 0.852008 0.091105
H2    H     H_    0.501600 0.183938 0.119160 0.104443
H3    H     H_    0.781031 0.724676 0.059054 0.122937
H4    H     H_    0.196930 0.142743 0.965080 0.108862
H5    H     H_    0.904410 0.557360 0.000018 0.107475
H6    H     H_    0.094938 0.330897 0.010050 0.102714
H7    H     H_    0.617579 0.797611 0.093345 0.131553
H8    H     H_    0.358876 0.087715 0.864737 0.135147
H9    H     H_    0.009577 0.585554 0.659720 0.126057
H10   H     H_    0.176494 0.494042 0.561513 0.126586
H11   H     H_    0.009492 0.650208 0.486094 0.127949
H12   H     H_    0.171650 0.116112 0.176209 0.084808
H13   H     H_    0.107260 0.394891 0.649261 0.129345
H14   H     H_    0.230926 0.352169 0.457105 0.089403
H15   H     H_    0.829149 0.675321 0.614980 0.083739
H16   H     H_    0.041992 0.750147 0.357002 0.117294
H17   H     H_    0.815512 0.050021 0.313367 0.125650
H18   H     H_    0.239911 0.629956 0.431659 0.132749
H19   H     H_    0.636055 0.200893 0.290237 0.128102
H20   H     H_    0.276900 0.668824 0.184499 0.137265
H21   H     H_    0.803197 0.363546 0.571242 0.122022
H22   H     H_    0.078041 0.790793 0.110048 0.129196
H23   H     H_    0.985998 0.989401 0.144778 0.140832
H24   H     H_    0.983034 0.213162 0.593455 0.119541
H25   H     H_    0.320568 0.452900 0.318039 0.133422
H26   H     H_    0.664230 0.492104 0.439590 0.130740
H27   H     H_    0.680505 0.192331 0.511235 0.117863
H28   H     H_    0.316087 0.790856 0.406145 0.128960
H29   H     H_    0.318458 0.004485 0.685899 0.101361
H30   H     H_    0.678873 0.921779 0.280960 0.098477
H31   H     H_    0.324402 0.326668 0.355061 0.091435
H32   H     H_    0.674652 0.636990 0.542475 0.093396
H33   H     H_    0.675106 0.866962 0.839604 0.102120
H34   H     H_    0.895589 0.153100 0.896788 0.128924
H35   H     H_    0.319659 0.053660 0.138980 0.101803
H36   H     H_    0.229443 0.178906 0.635092 0.098492
H37   H     H_    0.831597 0.847307 0.440164 0.095882
H38   H     H_    0.771233 0.138170 0.680262 0.101877
H39   H     H_    0.163676 0.943468 0.344886 0.116880
H40   H     H_    0.990202 0.166690 0.088271 0.126377
H41   H     H_    0.818636 0.069279 0.991259 0.132245
H42   H     H_    0.877998 0.842161 0.213556 0.253530
H43   H     H_    0.910248 0.931479 0.193619 0.256619
H44   H     H_    0.886227 0.826437 0.094246 0.262949
H45   H     H_    0.831560 0.477243 0.818760 0.097143
H46   H     H_    0.014216 0.966095 0.405689 0.264662
H47   H     H_    0.079290 0.056412 0.471441 0.257544
H48   H     H_    0.061506 0.997897 0.544681 0.255736
H49   H     H_    0.195161 0.446213 0.106833 0.111575
H50   H     H_    0.633289 0.564580 0.696406 0.116064
H51   H     H_    0.397959 0.372592 0.158209 0.127621
H52   H     H_    0.507762 0.730969 0.754081 0.113647
N1    N     N_R   0.705410 0.966550 0.689210 -0.045946
N2    N     N_R   0.556610 0.796750 0.548620 -0.038785
N3    N     N_R   0.556610 0.951620 0.703500 -0.040509
N4    N     N_R   0.443390 0.048380 0.296500 -0.041041
N5    N     N_R   0.294590 0.131500 0.522480 -0.042306
N6    N     N_R   0.705410 0.868500 0.477520 -0.039984
N7    N     N_R   0.705410 0.023370 0.632390 -0.042609
N8    N     N_R   0.294590 0.976630 0.367610 -0.043217
N9    N     N_R   0.294590 0.033450 0.310790 -0.043984
N10   N     N_R   0.294590 0.188320 0.465660 -0.045406
N11   N     N_R   0.705410 0.811680 0.534340 -0.043573
N12   N     N_R   0.556610 0.157790 0.497330 -0.040127
N13   N     N_R   0.443390 0.842210 0.502670 -0.041733
N14   N     N_R   0.443390 0.997080 0.657540 -0.035901
N15   N     N_R   0.556610 0.002920 0.342460 -0.037959
N16   N     N_R   0.443390 0.203250 0.451380 -0.040959
Ni1   Ni    Ni4+2 0.629830 0.882720 0.617850 0.213805
Ni2   Ni    Ni4+2 0.370170 0.117280 0.382150 0.214061
Ni3   Ni    Ni4+2 0.629830 0.013030 0.487540 0.216520
Ni4   Ni    Ni4+2 0.370170 0.986970 0.512460 0.210681

loop_
_geom_bond_atom_site_label_1
_geom_bond_atom_site_label_2
_ccdc_geom_bond_type
C63   C65   A    
N4    N15   A    
C12   N9    A    
C38   H22   S    
C29   C42   A    
C25   H10   S    
C14   C18   A    
N2    Ni1   S    
C41   N13   A    
C11   C70   A    
C47   C49   A    
C53   H29   S    
C59   N4    A    
C15   C19   A    
C57   H32   S    
C46   C49   A    
N4    Ni2   S    
C1    H1    S    
C55   N16   A    
C17   H15   S    
C14   C21   A    
C19   C21   A    
C24   C26   D    
C38   C42   A    
C14   H7    S    
C54   N15   A    
C62   H38   S    
C44   C50   A    
N1    Ni1   S    
C27   H34   S    
C16   H14   S    
C33   C36   A    
C56   C57   A    
C48   C56   S    
C63   N8    A    
C2    C13   A    
N5    N10   A    
N14   Ni4   S    
N9    Ni2   S    
C68   H48   S    
C10   H6    S    
N13   Ni4   S    
C70   H50   S    
C43   C68   S    
C22   C25   D    
C35   C49   S    
C62   C64   A    
C31   C33   A    
C19   C67   S    
C11   H45   S    
N6    Ni3   S    
C44   C47   A    
C18   C69   S    
C48   C50   A    
N1    N7    A    
C62   N7    A    
C54   H30   S    
C23   C60   A    
C53   N14   A    
C53   C67   A    
C13   H49   S    
C27   C51   D    
C45   C47   S    
C15   C20   A    
C46   C48   A    
C37   H21   S    
C39   H24   S    
C51   C52   S    
C32   C35   A    
C3    C70   A    
C4    C6    A    
C40   H27   S    
C5    C7    A    
C39   C43   A    
C33   C50   S    
C40   N12   A    
C34   C61   A    
N3    Ni1   S    
C28   H23   S    
N5    Ni4   S    
C63   H39   S    
C16   N10   A    
C2    C4    A    
C24   H11   S    
C1    N1    A    
C41   C56   A    
C68   H47   S    
C66   H43   S    
C32   H19   S    
C52   H40   S    
C7    H3    S    
C8    H4    S    
C12   H12   S    
C59   H35   S    
C9    C11   A    
C29   H16   S    
N16   Ni2   S    
C59   C69   A    
N3    N14   A    
C8    C10   A    
C46   H26   S    
C68   H46   S    
N11   Ni1   S    
C16   C23   A    
C17   N11   A    
C30   C43   A    
C17   C34   A    
C1    C64   A    
C4    H2    S    
C60   H36   S    
C2    H51   S    
C36   H20   S    
C7    C9    A    
N15   Ni3   S    
C51   H41   S    
C31   H18   S    
C66   H44   S    
N2    N13   A    
C35   C37   A    
C22   C23   S    
N8    Ni4   S    
C60   N5    A    
C3    C5    A    
C10   C13   A    
N12   N16   A    
C6    C8    A    
C3    H52   S    
N10   Ni2   S    
C6    C20   S    
C12   C65   A    
C55   H31   S    
C26   H9    S    
C22   H13   S    
C36   C38   A    
N8    N9    A    
C25   C26   S    
C29   C31   A    
C44   H25   S    
N6    N11   A    
N12   Ni3   S    
C30   C32   A    
C28   C52   D    
C54   C69   A    
C28   C65   S    
C61   N6    A    
C18   C20   A    
C61   H37   S    
C24   C34   S    
C27   C64   S    
C15   H8    S    
C58   C67   A    
N7    Ni3   S    
C40   C45   A    
C45   C55   A    
C58   N3    A    
C37   C39   A    
C5    C21   S    
C42   C66   S    
C41   H28   S    
C58   H33   S    
C9    H5    S    
C66   H42   S    
C30   H17   S    
C57   N2    A    
