data_mof_unit_8405.cif
_audit_creation_date              2012-12-10T17:46:26-0500
_audit_creation_method            fapswitch 2.2
_symmetry_space_group_name_H-M    P1
_symmetry_Int_Tables_number       1
_space_group_crystal_system       monoclinic
_cell_length_a                    20.692408
_cell_length_b                    21.163727
_cell_length_c                    14.763907
_cell_angle_alpha                 90.0
_cell_angle_beta                  127.93663
_cell_angle_gamma                 90.0
_cell_volume                      5099.31077929

loop_
_atom_site_label
_atom_site_type_symbol
_atom_type_description
_atom_site_fract_x
_atom_site_fract_y
_atom_site_fract_z
_atom_type_partial_charge
C1    C     C_R   0.602964 0.913742 0.631418 0.793618
C2    C     C_R   0.681595 0.216612 0.088759 -0.310187
C3    C     C_R   0.717350 0.770855 0.959364 -0.060036
C4    C     C_R   0.219177 0.727622 0.961541 0.043626
C5    C     C_R   0.782650 0.270855 0.040636 -0.060036
C6    C     C_R   0.780823 0.727622 0.038459 0.043626
C7    C     C_R   0.217350 0.270855 0.959364 -0.060036
C8    C     C_R   0.339109 0.791661 0.021068 -0.025999
C9    C     C_R   0.663270 0.206382 0.981930 -0.009564
C10   C     C_R   0.660890 0.791660 0.978932 -0.025999
C11   C     C_R   0.336730 0.206382 0.018070 -0.009564
C12   C     C_R   0.839109 0.291660 0.021068 -0.025999
C13   C     C_R   0.679410 0.781601 0.086165 -0.194420
C14   C     C_R   0.163270 0.706382 0.981930 -0.009564
C15   C     C_R   0.160890 0.291661 0.978932 -0.025999
C16   C     C_R   0.836730 0.706382 0.018070 -0.009564
C17   C     C_2   0.423204 0.814686 0.114574 0.333497
C18   C     C_2   0.579408 0.182172 0.891691 0.329458
C19   C     C_2   0.576795 0.814685 0.885426 0.333497
C20   C     C_2   0.420592 0.182172 0.108309 0.329459
C21   C     C_2   0.923205 0.314685 0.114574 0.333497
C22   C     C_2   0.079408 0.682172 0.891691 0.329458
C23   C     C_2   0.076795 0.314685 0.885426 0.333498
C24   C     C_R   0.318405 0.216612 0.911241 -0.310187
C25   C     C_2   0.920592 0.682172 0.108309 0.329458
C26   C     C_3   0.765328 0.038957 0.569665 0.026533
C27   C     C_3   0.848373 0.005810 0.633802 -0.342558
C28   C     C_3   0.918717 0.053303 0.696594 -0.908928
C29   C     C_3   0.234672 0.038957 0.430335 0.026532
C30   C     C_3   0.151627 0.005810 0.366198 -0.342558
C31   C     C_3   0.081283 0.053302 0.303409 -0.908928
C32   C     C_3   0.265328 0.538957 0.569665 0.026532
C33   C     C_3   0.348373 0.505810 0.633802 -0.342558
C34   C     C_3   0.418717 0.553303 0.696592 -0.908927
C35   C     C_R   0.820590 0.281601 0.913835 -0.194421
C36   C     C_3   0.734671 0.538957 0.430335 0.026531
C37   C     C_3   0.651627 0.505809 0.366198 -0.342557
C38   C     C_3   0.581282 0.553301 0.303410 -0.908927
C39   C     C_R   0.181595 0.716612 0.088759 -0.310187
C40   C     C_R   0.179410 0.281601 0.086165 -0.194421
C41   C     C_R   0.818405 0.716612 0.911241 -0.310187
C42   C     C_R   0.321841 0.998398 0.666801 -0.402376
C43   C     C_R   0.678159 0.998398 0.333199 -0.402375
C44   C     C_R   0.821841 0.498398 0.666801 -0.402377
C45   C     C_R   0.397188 0.086363 0.368755 0.807276
C46   C     C_R   0.178159 0.498398 0.333199 -0.402376
C47   C     C_R   0.350995 0.999506 0.602413 0.660851
C48   C     C_R   0.649005 0.999506 0.397587 0.660851
C49   C     C_R   0.850995 0.499506 0.602413 0.660851
C50   C     C_R   0.149005 0.499507 0.397587 0.660851
C51   C     C_R   0.488305 0.001303 0.775295 -0.048330
C52   C     C_R   0.511695 0.001303 0.224705 -0.048330
C53   C     C_R   0.988305 0.501303 0.775295 -0.048330
C54   C     C_R   0.011695 0.501303 0.224705 -0.048330
C55   C     C_R   0.461934 0.001327 0.844891 0.003362
C56   C     C_R   0.397035 0.913742 0.368582 0.793619
C57   C     C_R   0.538066 0.001327 0.155109 0.003362
C58   C     C_R   0.961934 0.501327 0.844891 0.003362
C59   C     C_R   0.038066 0.501327 0.155109 0.003362
C60   C     C_R   0.376545 0.000198 0.786872 0.103044
C61   C     C_R   0.623455 0.000198 0.213128 0.103044
C62   C     C_R   0.876545 0.500198 0.786872 0.103044
C63   C     C_R   0.123455 0.500198 0.213128 0.103044
C64   C     C_R   0.516332 0.001670 0.968709 0.112284
C65   C     C_R   0.483668 0.001670 0.031291 0.112284
C66   C     C_R   0.016332 0.501670 0.968709 0.112284
C67   C     C_R   0.602812 0.086363 0.631245 0.807275
C68   C     C_R   0.983668 0.501670 0.031291 0.112284
C69   C     C_R   0.397838 0.001302 0.967915 -0.205646
C70   C     C_R   0.602162 0.001302 0.032085 -0.205648
C71   C     C_R   0.897837 0.501301 0.967915 -0.205647
C72   C     C_R   0.102162 0.501302 0.032085 -0.205647
C73   C     C_R   0.345744 0.000296 0.848590 -0.170008
C74   C     C_R   0.654256 0.000296 0.151410 -0.170006
C75   C     C_R   0.845744 0.500296 0.848590 -0.170007
C76   C     C_R   0.154256 0.500296 0.151410 -0.170007
C77   C     C_R   0.658885 0.138001 0.701700 -0.063711
C78   C     C_R   0.102964 0.413742 0.631418 0.793618
C79   C     C_R   0.341025 0.862016 0.298307 -0.054547
C80   C     C_R   0.341115 0.138001 0.298300 -0.063711
C81   C     C_R   0.658975 0.862016 0.701692 -0.054547
C82   C     C_R   0.158885 0.638002 0.701700 -0.063711
C83   C     C_R   0.841025 0.362016 0.298307 -0.054547
C84   C     C_R   0.841115 0.638002 0.298300 -0.063711
C85   C     C_R   0.158975 0.362016 0.701692 -0.054547
C86   C     C_R   0.748285 0.223795 0.735357 -0.177880
C87   C     C_R   0.251431 0.776409 0.264835 -0.191164
C88   C     C_R   0.251714 0.223795 0.264642 -0.177879
C89   C     C_R   0.897188 0.586363 0.368755 0.807276
C90   C     C_R   0.748569 0.776409 0.735165 -0.191163
C91   C     C_R   0.248285 0.723795 0.735357 -0.177879
C92   C     C_R   0.751431 0.276409 0.264835 -0.191164
C93   C     C_R   0.751715 0.723795 0.264642 -0.177880
C94   C     C_R   0.248569 0.276409 0.735164 -0.191164
C95   C     C_R   0.695873 0.174676 0.666021 -0.197484
C96   C     C_R   0.302707 0.826306 0.332985 -0.181685
C97   C     C_R   0.304127 0.174676 0.333979 -0.197484
C98   C     C_R   0.697293 0.826306 0.667014 -0.181686
C99   C     C_R   0.195873 0.674676 0.666021 -0.197484
C100  C     C_R   0.897035 0.413742 0.368582 0.793619
C101  C     C_R   0.802707 0.326306 0.332985 -0.181685
C102  C     C_R   0.804127 0.674676 0.333979 -0.197484
C103  C     C_R   0.197293 0.326306 0.667014 -0.181685
C104  C     C_R   0.672267 0.152509 0.804134 -0.156465
C105  C     C_R   0.329012 0.846489 0.197177 -0.268829
C106  C     C_R   0.327733 0.152509 0.195865 -0.156465
C107  C     C_R   0.670988 0.846489 0.802823 -0.268829
C108  C     C_R   0.172267 0.652509 0.804134 -0.156465
C109  C     C_R   0.829012 0.346489 0.197177 -0.268830
C110  C     C_R   0.827733 0.652509 0.195865 -0.156465
C111  C     C_R   0.102812 0.586363 0.631245 0.807275
C112  C     C_R   0.170988 0.346489 0.802823 -0.268830
C113  C     C_R   0.714932 0.207066 0.866258 0.111901
C114  C     C_R   0.286625 0.791700 0.135626 0.082199
C115  C     C_R   0.285068 0.207066 0.133742 0.111901
C116  C     C_R   0.713375 0.791700 0.864374 0.082199
C117  C     C_R   0.214932 0.707066 0.866258 0.111901
C118  C     C_R   0.786625 0.291700 0.135626 0.082199
C119  C     C_R   0.785068 0.707066 0.133742 0.111901
C120  C     C_R   0.213375 0.291700 0.864374 0.082199
C121  C     C_R   0.759624 0.239145 0.836799 0.093374
C122  C     C_R   0.320590 0.781601 0.913835 -0.194421
C123  C     C_R   0.241629 0.759892 0.164903 0.173527
C124  C     C_R   0.240375 0.239145 0.163201 0.093374
C125  C     C_R   0.758370 0.759892 0.835097 0.173527
C126  C     C_R   0.259624 0.739145 0.836799 0.093374
C127  C     C_R   0.741630 0.259892 0.164903 0.173527
C128  C     C_R   0.740375 0.739145 0.163201 0.093374
C129  C     C_R   0.258370 0.259892 0.835097 0.173527
C130  C     C_R   0.719177 0.227622 0.961541 0.043626
C131  C     C_R   0.282650 0.770855 0.040636 -0.060036
C132  C     C_R   0.280823 0.227622 0.038458 0.043625
Cu1   Cu    Cu3+1 0.526640 0.000000 0.436960 0.987143
Cu2   Cu    Cu3+1 0.473360 1.000000 0.563040 0.987144
Cu3   Cu    Cu3+1 0.026640 0.500000 0.436960 0.987143
Cu4   Cu    Cu3+1 0.973360 0.500000 0.563040 0.987144
H1    H     H_    0.359982 0.801026 0.895519 0.202738
H2    H     H_    0.631332 0.001259 0.991794 0.124981
H3    H     H_    0.868667 0.501258 0.008206 0.124981
H4    H     H_    0.131332 0.501258 0.991794 0.124981
H5    H     H_    0.351175 0.878880 0.165367 0.156903
H6    H     H_    0.650383 0.119859 0.835997 0.135493
H7    H     H_    0.648825 0.878880 0.834633 0.156903
H8    H     H_    0.349617 0.119859 0.164003 0.135493
H9    H     H_    0.851175 0.378880 0.165367 0.156903
H10   H     H_    0.150383 0.619858 0.835996 0.135493
H11   H     H_    0.148825 0.378880 0.834632 0.156903
H12   H     H_    0.642065 0.196914 0.106692 0.139128
H13   H     H_    0.849617 0.619858 0.164003 0.135493
H14   H     H_    0.310942 0.837714 0.411015 0.169246
H15   H     H_    0.685813 0.164579 0.586315 0.153762
H16   H     H_    0.689057 0.837714 0.588985 0.169246
H17   H     H_    0.314186 0.164578 0.413685 0.153763
H18   H     H_    0.810942 0.337714 0.411015 0.169246
H19   H     H_    0.185813 0.664578 0.586315 0.153762
H20   H     H_    0.189058 0.337714 0.588985 0.169246
H21   H     H_    0.814186 0.664578 0.413685 0.153763
H22   H     H_    0.280691 0.749208 0.710560 0.143973
H23   H     H_    0.640018 0.801025 0.104481 0.202738
H24   H     H_    0.718423 0.251452 0.289106 0.143079
H25   H     H_    0.719308 0.749208 0.289440 0.143973
H26   H     H_    0.281577 0.251452 0.710894 0.143079
H27   H     H_    0.780691 0.249208 0.710560 0.143974
H28   H     H_    0.218423 0.751452 0.289106 0.143079
H29   H     H_    0.219308 0.249208 0.289439 0.143973
H30   H     H_    0.781577 0.751452 0.710894 0.143079
H31   H     H_    0.280176 0.999550 0.803894 0.142484
H32   H     H_    0.719824 0.999550 0.196105 0.142483
H33   H     H_    0.780176 0.499550 0.803894 0.142484
H34   H     H_    0.357935 0.196914 0.893308 0.139128
H35   H     H_    0.219824 0.499550 0.196105 0.142484
H36   H     H_    0.447817 0.002107 0.187596 0.133224
H37   H     H_    0.552183 0.002107 0.812403 0.133224
H38   H     H_    0.947817 0.502107 0.187596 0.133224
H39   H     H_    0.052183 0.502107 0.812403 0.133224
H40   H     H_    0.256630 0.995518 0.623355 0.147650
H41   H     H_    0.743370 0.995519 0.376645 0.147649
H42   H     H_    0.756630 0.495518 0.623355 0.147650
H43   H     H_    0.243370 0.495519 0.376645 0.147649
H44   H     H_    0.451284 0.803812 0.203528 0.080798
H45   H     H_    0.859982 0.301026 0.895519 0.202738
H46   H     H_    0.550962 0.149429 0.914310 0.057553
H47   H     H_    0.548715 0.803812 0.796472 0.080798
H48   H     H_    0.449038 0.149429 0.085690 0.057553
H49   H     H_    0.951285 0.303812 0.203528 0.080798
H50   H     H_    0.050962 0.649429 0.914310 0.057553
H51   H     H_    0.048715 0.303812 0.796472 0.080798
H52   H     H_    0.949038 0.649429 0.085690 0.057553
H53   H     H_    0.763687 0.064421 0.633924 0.173687
H54   H     H_    0.759040 0.075737 0.510462 0.114444
H55   H     H_    0.855468 0.972245 0.697315 0.234698
H56   H     H_    0.142065 0.696914 0.106692 0.139128
H57   H     H_    0.851560 0.978441 0.572495 0.215509
H58   H     H_    0.913822 0.086564 0.634416 0.253687
H59   H     H_    0.978039 0.027841 0.742785 0.260715
H60   H     H_    0.917722 0.080463 0.760126 0.257908
H61   H     H_    0.236313 0.064421 0.366076 0.173687
H62   H     H_    0.240960 0.075737 0.489538 0.114445
H63   H     H_    0.144531 0.972245 0.302684 0.234697
H64   H     H_    0.148441 0.978440 0.427505 0.215510
H65   H     H_    0.086178 0.086562 0.365588 0.253686
H66   H     H_    0.021961 0.027840 0.257217 0.260715
H67   H     H_    0.140018 0.301025 0.104481 0.202738
H68   H     H_    0.082277 0.080464 0.239877 0.257908
H69   H     H_    0.263687 0.564422 0.633924 0.173687
H70   H     H_    0.259040 0.575737 0.510462 0.114444
H71   H     H_    0.355468 0.472245 0.697316 0.234698
H72   H     H_    0.351559 0.478440 0.572495 0.215510
H73   H     H_    0.413822 0.586562 0.634413 0.253686
H74   H     H_    0.478039 0.527840 0.742784 0.260714
H75   H     H_    0.417722 0.580464 0.760124 0.257908
H76   H     H_    0.736312 0.564422 0.366076 0.173686
H77   H     H_    0.740959 0.575736 0.489539 0.114445
H78   H     H_    0.857935 0.696915 0.893308 0.139128
H79   H     H_    0.644532 0.472245 0.302683 0.234697
H80   H     H_    0.648442 0.478438 0.427505 0.215510
H81   H     H_    0.586177 0.586560 0.365590 0.253686
H82   H     H_    0.521961 0.527839 0.257217 0.260714
H83   H     H_    0.582277 0.580464 0.239879 0.257908
H84   H     H_    0.368667 0.001258 0.008206 0.124980
N1    N     N_R   0.433280 0.000000 0.657760 -0.208336
N2    N     N_R   0.566720 1.000000 0.342240 -0.208336
N3    N     N_R   0.933280 0.500000 0.657760 -0.208335
N4    N     N_R   0.066720 0.500000 0.342240 -0.208335
O1    O     O_R   0.600040 0.935040 0.546740 -0.537003
O2    O     O_R   0.444990 0.064930 0.346780 -0.581189
O3    O     O_R   0.444990 0.935070 0.346780 -0.598119
O4    O     O_R   0.555010 0.064930 0.653220 -0.581188
O5    O     O_R   0.055010 0.435070 0.653220 -0.598119
O6    O     O_R   0.944990 0.564930 0.346780 -0.581189
O7    O     O_R   0.944990 0.435070 0.346780 -0.598119
O8    O     O_R   0.055010 0.564930 0.653220 -0.581188
O9    O     O_2   0.462680 0.845025 0.093339 -0.529546
O10   O     O_2   0.539513 0.201433 0.793009 -0.527458
O11   O     O_2   0.537320 0.845025 0.906661 -0.529546
O12   O     O_R   0.399960 0.064960 0.453260 -0.562953
O13   O     O_2   0.460486 0.201433 0.206990 -0.527459
O14   O     O_2   0.962680 0.345025 0.093339 -0.529546
O15   O     O_2   0.039513 0.701433 0.793009 -0.527459
O16   O     O_2   0.037320 0.345025 0.906661 -0.529546
O17   O     O_2   0.960487 0.701433 0.206991 -0.527459
O18   O     O_3   0.701755 0.993349 0.516175 -0.588931
O19   O     O_3   0.298245 0.993349 0.483824 -0.588930
O20   O     O_3   0.201755 0.493349 0.516176 -0.588930
O21   O     O_3   0.798245 0.493349 0.483824 -0.588930
O22   O     O_R   0.399960 0.935040 0.453260 -0.537003
O23   O     O_R   0.600040 0.064960 0.546740 -0.562954
O24   O     O_R   0.100040 0.435040 0.546740 -0.537003
O25   O     O_R   0.899960 0.564960 0.453260 -0.562953
O26   O     O_R   0.899960 0.435040 0.453260 -0.537003
O27   O     O_R   0.100040 0.564960 0.546740 -0.562953
O28   O     O_R   0.555010 0.935070 0.653220 -0.598119

loop_
_geom_bond_atom_site_label_1
_geom_bond_atom_site_label_2
_ccdc_geom_bond_type
C44   C49   A    
C58   C62   A    
C66   C68   A    
C81   C107  A    
C33   H72   S    
C52   N2    A    
C36   O21   S    
C91   C126  A    
C80   C97   A    
C69   H84   S    
C84   C102  A    
C82   C99   A    
C60   C73   A    
C30   H64   S    
C67   C77   S    
C45   O12   A    
Cu2   O28   S    
C88   C124  A    
C85   C112  A    
C11   C132  A    
C52   H36   S    
C74   H32   S    
C111  O27   A    
C26   H54   S    
C1    O28   A    
Cu3   Cu4   S    
C98   H16   S    
C9    C130  A    
C78   O5    A    
C43   H41   S    
Cu3   N4    S    
C87   C123  A    
C50   N4    A    
C26   C27   S    
C29   C30   S    
C56   C79   S    
C89   O25   A    
C67   O4    A    
C36   C37   S    
C25   H52   S    
Cu1   O1    S    
C100  O26   A    
C3    C116  A    
C105  H5    S    
C30   C31   S    
C59   C68   A    
C107  C116  A    
C63   C76   A    
C18   H46   S    
C1    C81   S    
C20   O13   D    
C80   C106  A    
C11   C24   A    
C16   C25   S    
C28   H59   S    
C39   C123  A    
C79   C105  A    
C25   O17   D    
C114  C131  A    
C95   H15   S    
C51   H37   S    
C38   H82   S    
C91   H22   S    
C34   H74   S    
C14   C39   A    
C13   C128  A    
C67   O23   A    
C24   C129  A    
C58   C66   A    
C66   C72   A    
C31   H66   S    
Cu3   O6    S    
C99   H19   S    
C75   H33   S    
C28   H58   S    
C83   C109  A    
C69   C73   A    
C27   H57   S    
C82   C108  A    
C89   O6    A    
C24   H34   S    
C43   C48   A    
C94   H26   S    
C37   H80   S    
C88   C97   A    
C85   C103  A    
C73   H31   S    
C115  C132  A    
C2    C127  A    
C3    C6    A    
C15   C23   S    
C21   O14   D    
C47   N1    A    
Cu3   O7    S    
C55   C60   A    
C90   H30   S    
C111  O8    A    
C23   H51   S    
C38   H81   S    
Cu4   O26   S    
C27   H55   S    
C78   O24   A    
C86   C121  A    
C7    C120  A    
C102  H21   S    
Cu4   N3    S    
C26   H53   S    
C109  C118  A    
Cu1   N2    S    
C4    C131  A    
C108  H10   S    
C54   C59   A    
C40   C124  A    
C11   C20   S    
C71   C75   A    
C94   C129  A    
C113  C130  A    
C120  C129  A    
C41   C125  A    
C105  C114  A    
C35   C121  A    
Cu1   O2    S    
C30   H63   S    
C5    C12   A    
C48   O18   S    
C34   H75   S    
C19   H47   S    
C112  C120  A    
C71   H3    S    
C44   C62   A    
C56   O22   A    
C12   C21   S    
C77   C95   A    
C43   C61   A    
C84   C110  A    
C45   O2    A    
C41   H78   S    
C32   C33   S    
Cu2   O4    S    
C22   H50   S    
C76   H35   S    
C21   H49   S    
C70   C74   A    
C37   C38   S    
C34   H73   S    
C36   H77   S    
C17   H44   S    
Cu4   O8    S    
C103  H20   S    
C54   N4    A    
C40   H67   S    
C93   H25   S    
C10   C19   S    
Cu2   N1    S    
C96   H14   S    
C55   C64   A    
C8    C131  A    
C26   O18   S    
C33   C34   S    
C29   O19   S    
C72   C76   A    
C90   C98   A    
C37   H79   S    
C12   C35   A    
C106  H8    S    
C7    C132  A    
C92   C101  A    
Cu1   O23   S    
C114  C123  A    
C78   C85   S    
C5    C130  A    
C36   H76   S    
C94   C103  A    
C70   H2    S    
C110  H13   S    
C64   C70   A    
C116  C125  A    
C107  H7    S    
Cu1   Cu2   S    
C97   H17   S    
C104  H6    S    
C4    C117  A    
C35   H45   S    
C84   C89   S    
C44   H42   S    
C52   C57   A    
C92   C127  A    
C42   C60   A    
C6    C119  A    
C39   H56   S    
C53   H39   S    
C22   O15   D    
C117  C126  A    
C1    O1    A    
C32   O20   S    
C33   H71   S    
C81   C98   A    
C115  C124  A    
C83   C101  A    
C56   O3    A    
C93   C102  A    
C59   C63   A    
C46   H43   S    
C100  O7    A    
C109  H9    S    
Cu1   O3    S    
C122  H1    S    
Cu3   O27   S    
C10   C13   A    
C19   O11   D    
C110  C119  A    
C53   C58   A    
C18   O10   D    
C87   C96   A    
C57   C61   A    
C17   O9    D    
C61   C74   A    
C53   N3    A    
Cu4   O5    S    
C46   C50   A    
C50   O20   S    
C8    C17   S    
C112  H11   S    
C20   H48   S    
C5    C118  A    
C83   C100  S    
C82   C111  S    
C14   C22   S    
C93   C128  A    
C79   C96   A    
C88   H29   S    
C3    C10   A    
C42   H40   S    
C119  C128  A    
C31   H68   S    
C47   O19   S    
C23   O16   D    
C92   H24   S    
C8    C122  A    
C46   C63   A    
C48   N2    A    
C101  H18   S    
C51   N1    A    
C68   C71   A    
C65   C69   A    
C54   H38   S    
C108  C117  A    
C64   C65   A    
C7    C15   A    
C28   H60   S    
C90   C125  A    
C13   H23   S    
C122  C126  A    
C87   H28   S    
C45   C80   S    
C51   C55   A    
C42   C47   A    
C57   C65   A    
C4    C14   A    
Cu4   O25   S    
C32   H70   S    
C49   O21   S    
C15   C40   A    
C31   H65   S    
C86   C95   A    
C6    C16   A    
C104  C113  A    
C9    C18   S    
C72   H4    S    
C29   H61   S    
C113  C121  A    
C29   H62   S    
C118  C127  A    
Cu3   O24   S    
C27   C28   S    
Cu2   O12   S    
C77   C104  A    
C86   H27   S    
C91   C99   A    
C32   H69   S    
C2    C9    A    
C2    H12   S    
C16   C41   A    
Cu2   O22   S    
C49   N3    A    
C62   C75   A    
C38   H83   S    
C106  C115  A    
