data_mof_unit_37525.cif
_audit_creation_date              2012-12-11T14:46:09-0500
_audit_creation_method            fapswitch 2.2
_symmetry_space_group_name_H-M    P1
_symmetry_Int_Tables_number       1
_space_group_crystal_system       triclinic
_cell_length_a                    11.004208
_cell_length_b                    10.944605
_cell_length_c                    18.715558
_cell_angle_alpha                 90.220025
_cell_angle_beta                  89.914892
_cell_angle_gamma                 120.717436
_cell_volume                      1937.77673484

loop_
_atom_site_label
_atom_site_type_symbol
_atom_type_description
_atom_site_fract_x
_atom_site_fract_y
_atom_site_fract_z
_atom_type_partial_charge
C1    C     C_R   0.906199 0.610880 0.611303 0.559719
C2    C     C_R   0.939411 0.150558 0.711633 -0.001847
C3    C     C_R   0.959478 0.163605 0.786653 -0.000954
C4    C     C_R   0.274245 0.634615 0.602190 0.528267
C5    C     C_R   0.751152 0.207655 0.724631 0.026804
C6    C     C_R   0.785104 0.236823 0.797357 -0.009311
C7    C     C_R   0.625167 0.202147 0.701037 -0.055256
C8    C     C_R   0.545916 0.235500 0.746525 -0.132570
C9    C     C_R   0.592077 0.280754 0.815620 -0.103383
C10   C     C_R   0.716006 0.290824 0.839321 -0.080581
C11   C     C_R   0.840680 0.180458 0.679691 -0.010975
C12   C     C_R   0.284635 0.578563 0.794385 -0.158652
C13   C     C_R   0.739769 0.584401 0.704981 -0.101697
C14   C     C_R   0.708732 0.598408 0.775186 0.045014
C15   C     C_R   0.815398 0.642673 0.827657 0.058470
C16   C     C_R   0.860575 0.228637 0.604283 0.529025
C17   C     C_R   0.950642 0.668340 0.809137 0.241186
C18   C     C_R   0.981153 0.660247 0.737522 -0.133296
C19   C     C_R   0.875606 0.618234 0.685816 -0.030745
C20   C     C_R   0.381665 0.588224 0.295021 -0.173681
C21   C     C_R   0.416209 0.605280 0.224110 -0.152017
C22   C     C_R   0.433221 0.723280 0.187233 -0.017358
C23   C     C_R   0.244606 0.558929 0.724132 -0.166404
C24   C     C_R   0.425579 0.831134 0.224198 -0.124806
C25   C     C_R   0.382220 0.811048 0.296368 0.258588
C26   C     C_R   0.354773 0.685022 0.330610 0.047638
C27   C     C_R   0.783991 0.256889 0.274047 -0.071665
C28   C     C_R   0.863609 0.640910 0.398645 0.553713
C29   C     C_R   0.785683 0.248934 0.200416 0.088254
C30   C     C_R   0.860878 0.190264 0.168124 0.035067
C31   C     C_R   0.957184 0.172637 0.209178 -0.161050
C32   C     C_R   0.955456 0.182019 0.283320 -0.149728
C33   C     C_R   0.861990 0.215695 0.316086 0.012697
C34   C     C_R   0.322410 0.666174 0.674544 0.033789
C35   C     C_R   0.895606 0.803297 0.300937 -0.133892
C36   C     C_R   0.882307 0.821305 0.229137 -0.138366
C37   C     C_R   0.783276 0.708054 0.187664 0.031354
C38   C     C_R   0.693511 0.575970 0.219517 -0.122044
C39   C     C_R   0.708171 0.556670 0.291744 -0.131910
C40   C     C_R   0.276794 0.637215 0.397905 0.569175
C41   C     C_R   0.814973 0.668584 0.331676 0.030389
C42   C     C_R   0.813472 0.110948 0.897648 0.520482
C43   C     C_R   0.451690 0.722023 0.888818 0.574874
C44   C     C_R   0.795826 0.690919 0.896726 0.583941
C45   C     C_R   0.869153 0.189870 0.829655 -0.058848
C46   C     C_R   0.811932 0.113893 0.100251 0.520763
C47   C     C_R   0.460924 0.729608 0.110771 0.552727
C48   C     C_R   0.774996 0.733008 0.112035 0.545076
C49   C     C_R   0.866186 0.239754 0.392663 0.554940
C50   C     C_R   0.440112 0.795846 0.695380 0.074485
C51   C     C_R   0.477326 0.817674 0.767438 -0.055432
C52   C     C_R   0.400564 0.708019 0.816548 0.027293
C53   C     C_3   0.060451 0.610186 0.895599 -0.004855
C54   C     C_3   0.999959 0.591330 0.971212 -0.254443
C55   C     C_3   0.034530 0.496529 0.015997 -0.471320
C56   C     C_R   0.068981 0.148806 0.816738 -0.076080
C57   C     C_3   0.295046 0.964928 0.302044 0.018057
C58   C     C_3   0.390374 0.121307 0.282493 -0.273031
C59   C     C_3   0.310827 0.176322 0.239604 -0.492914
C60   C     C_R   0.145917 0.106394 0.774957 -0.109774
C61   C     C_R   0.117027 0.080293 0.702395 -0.112935
C62   C     C_R   0.015436 0.102721 0.670731 -0.076121
Cr1   Cr    Cr6+3 0.791660 0.390250 0.499930 1.007850
Cr2   Cr    Cr6+3 0.098520 0.708290 0.500540 1.021035
Cr3   Cr    Cr6+3 0.109770 0.401430 0.499480 1.001399
Cr4   Cr    Cr6+3 0.874790 0.925890 0.000070 0.999274
Cr5   Cr    Cr6+3 0.574120 0.948670 0.999300 1.001060
Cr6   Cr    Cr6+3 0.551420 0.625320 0.000920 0.980262
H1    H     H_    0.448831 0.226809 0.727808 0.101415
H2    H     H_    0.722532 0.297483 0.298362 0.143935
H3    H     H_    0.027446 0.143707 0.184099 0.120948
H4    H     H_    0.024579 0.160969 0.315185 0.116303
H5    H     H_    0.976270 0.892604 0.331016 0.113724
H6    H     H_    0.953832 0.922139 0.205171 0.120835
H7    H     H_    0.615894 0.486816 0.188278 0.141846
H8    H     H_    0.641913 0.452879 0.315087 0.115059
H9    H     H_    0.225829 0.491463 0.831136 0.127017
H10   H     H_    0.153046 0.458823 0.708143 0.139853
H11   H     H_    0.227150 0.092311 0.799208 0.127943
H12   H     H_    0.578028 0.162247 0.649552 0.160582
H13   H     H_    0.174364 0.043713 0.670392 0.119829
H14   H     H_    0.098064 0.172752 0.872400 0.129354
H15   H     H_    0.994116 0.078125 0.614480 0.135069
H16   H     H_    0.749145 0.326058 0.893732 0.114348
H17   H     H_    0.463826 0.926259 0.613751 0.236259
H18   H     H_    0.568313 0.854991 0.609343 0.235048
H19   H     H_    0.512397 0.557408 0.745096 0.228341
H20   H     H_    0.517781 0.490771 0.823795 0.243014
H21   H     H_    0.172435 0.642592 0.902040 0.188202
H22   H     H_    0.008452 0.506912 0.866115 0.100564
H23   H     H_    0.530003 0.303758 0.851941 0.102274
H24   H     H_    0.045895 0.696886 0.997706 0.215286
H25   H     H_    0.883467 0.541833 0.968978 0.151679
H26   H     H_    0.981056 0.387098 0.993484 0.140515
H27   H     H_    0.998004 0.492246 0.071690 0.155828
H28   H     H_    0.150449 0.539956 0.017375 0.195873
H29   H     H_    0.215666 0.957106 0.341214 0.164571
H30   H     H_    0.234226 0.901030 0.254491 0.121767
H31   H     H_    0.432949 0.185703 0.332065 0.167751
H32   H     H_    0.480630 0.134201 0.250520 0.172981
H33   H     H_    0.268764 0.114461 0.189333 0.150948
H34   H     H_    0.658902 0.553493 0.664420 0.141102
H35   H     H_    0.383422 0.289397 0.225932 0.140374
H36   H     H_    0.222533 0.168109 0.271759 0.137628
H37   H     H_    0.610363 0.216188 0.146575 0.246855
H38   H     H_    0.765886 0.350026 0.113715 0.245239
H39   H     H_    0.087370 0.689762 0.722146 0.135711
H40   H     H_    0.365456 0.491931 0.320094 0.146148
H41   H     H_    0.424051 0.521950 0.197369 0.136563
H42   H     H_    0.449002 0.927400 0.196624 0.128569
H43   H     H_    0.570139 0.915636 0.784436 0.147966
N1    N     N_3   0.527457 0.900492 0.643885 -0.645490
N2    N     N_3   0.573021 0.579870 0.791513 -0.616577
N3    N     N_3   0.710185 0.300743 0.160285 -0.654071
O1    O     O_R   0.766500 0.250040 0.579790 -0.530447
O2    O     O_R   0.413330 0.603360 0.920440 -0.531545
O3    O     O_R   0.676110 0.626250 0.926750 -0.515640
O4    O     O_R   0.798570 0.516780 0.574780 -0.506645
O5    O     O_R   0.895350 0.809870 0.080950 -0.524574
O6    O     O_R   0.872490 0.049760 0.073800 -0.526195
O7    O     O_R   0.691680 0.088070 0.079070 -0.535239
O8    O     O_R   0.451720 0.825250 0.074050 -0.497489
O9    O     O_R   0.413580 0.606370 0.080960 -0.529661
O10   O     O_R   0.676340 0.629040 0.075550 -0.524165
O11   O     O_3   0.666780 0.833290 0.000090 -0.290421
O12   O     O_R   0.218690 0.701900 0.425960 -0.455612
O13   O     O_R   0.984000 0.732950 0.581090 -0.513980
O14   O     O_R   0.218600 0.700890 0.574760 -0.526961
O15   O     O_R   0.249390 0.515350 0.579940 -0.517239
O16   O     O_R   0.982790 0.280900 0.573700 -0.508398
O17   O     O_R   0.766600 0.251130 0.419260 -0.513378
O18   O     O_R   0.798660 0.517790 0.425980 -0.507142
O19   O     O_R   0.984100 0.734040 0.420570 -0.524276
O20   O     O_3   0.058901 0.722310 0.858939 -0.551957
O21   O     O_3   0.376650 0.915597 0.336014 -0.555810
O22   O     O_R   0.249490 0.516440 0.419420 -0.537641
O23   O     O_R   0.982880 0.281910 0.424890 -0.500948
O24   O     O_3   0.999980 0.499990 0.499980 -0.269185
O25   O     O_R   0.895110 0.806860 0.920430 -0.467596
O26   O     O_R   0.872260 0.046970 0.925000 -0.503685
O27   O     O_R   0.691430 0.085060 0.918550 -0.517186
O28   O     O_R   0.451490 0.822460 0.925250 -0.490691

loop_
_geom_bond_atom_site_label_1
_geom_bond_atom_site_label_2
_ccdc_geom_bond_type
C29   N3    S    
Cr5   O8    S    
C60   H11   S    
C6    C45   A    
C49   O23   A    
C27   C29   A    
C35   C36   A    
C62   H15   S    
H17   N1    S    
C9    H23   S    
Cr3   O16   S    
C7    C8    A    
C32   H4    S    
Cr2   O24   S    
C53   C54   S    
C27   C33   A    
C49   O17   A    
C12   C23   A    
C8    H1    S    
C29   C30   A    
H38   N3    S    
C59   H36   S    
C46   O6    A    
C36   C37   A    
C15   C44   S    
C5    C11   A    
Cr5   O11   S    
C30   C31   A    
Cr6   O3    S    
C43   C52   S    
C33   C49   S    
C28   C41   S    
C18   C19   A    
C3    C56   A    
H20   N2    S    
C18   H39   S    
C54   H25   S    
Cr2   O19   S    
Cr4   O25   S    
C8    C9    A    
Cr2   O14   S    
C46   O7    A    
Cr1   O17   S    
C16   O16   A    
C9    C10   A    
Cr3   O23   S    
C23   C34   A    
C31   H3    S    
C22   C47   S    
C57   H29   S    
Cr4   O6    S    
C13   C14   A    
Cr6   O10   S    
C55   H26   S    
C35   C41   A    
C2    C11   A    
Cr5   O7    S    
Cr6   O9    S    
C12   C52   A    
C50   C51   A    
C48   O5    A    
C38   H7    S    
C38   C39   A    
C4    C34   S    
C34   C50   A    
C1    C19   S    
C13   C19   A    
C42   O26   A    
C51   C52   A    
C59   H33   S    
H37   N3    S    
C24   H42   S    
C24   C25   A    
C39   C41   A    
C5    C7    A    
Cr1   O4    S    
C4    O14   A    
C47   O8    A    
C25   C26   A    
C39   H8    S    
C3    C45   A    
C56   C60   A    
C60   C61   A    
C28   O18   A    
C42   C45   S    
C58   H31   S    
H18   N1    S    
C54   H24   S    
C37   C38   A    
Cr3   O15   S    
C43   O2    A    
C40   O22   A    
C11   C16   S    
C47   O9    A    
C31   C32   A    
Cr2   O13   S    
C40   O12   A    
C12   H9    S    
C42   O27   A    
C50   N1    S    
C17   C18   A    
C58   H32   S    
Cr1   O18   S    
C37   C48   S    
C27   H2    S    
C36   H6    S    
Cr6   O2    S    
Cr3   O24   S    
C55   H27   S    
C44   O25   A    
Cr2   O12   S    
Cr4   O5    S    
C53   H21   S    
Cr1   O24   S    
C22   C24   A    
Cr5   O27   S    
C16   O1    A    
C53   H22   S    
C15   C17   A    
C54   C55   S    
C35   H5    S    
C51   H43   S    
C30   C46   S    
C53   O20   S    
C1    O13   A    
C55   H28   S    
C6    C10   A    
C21   H41   S    
C56   H14   S    
C4    O15   A    
C14   N2    S    
Cr4   O11   S    
C59   H35   S    
C32   C33   A    
C2    C3    A    
C58   C59   S    
Cr1   O1    S    
C61   H13   S    
C28   O19   A    
C26   C40   S    
C57   C58   S    
C5    C6    A    
C20   C26   A    
C44   O3    A    
C57   H30   S    
C10   H16   S    
C1    O4    A    
C23   H10   S    
C61   C62   A    
C25   O21   S    
H19   N2    S    
Cr3   O22   S    
Cr4   O26   S    
C20   C21   A    
C48   O10   A    
C17   O20   S    
C14   C15   A    
C57   O21   S    
C43   O28   A    
C13   H34   S    
C21   C22   A    
Cr5   O28   S    
Cr6   O11   S    
C2    C62   A    
C7    H12   S    
C20   H40   S    
