data_mof_unit_55781.cif
_audit_creation_date              2012-10-26T18:40:20-0400
_audit_creation_method            fapswitch 2.2
_symmetry_space_group_name_H-M    P1
_symmetry_Int_Tables_number       1
_space_group_crystal_system       triclinic
_cell_length_a                    8.717376
_cell_length_b                    15.147351
_cell_length_c                    13.855943
_cell_angle_alpha                 90.644396
_cell_angle_beta                  98.094503
_cell_angle_gamma                 89.983695
_cell_volume                      1811.26591592

loop_
_atom_site_label
_atom_site_type_symbol
_atom_type_description
_atom_site_fract_x
_atom_site_fract_y
_atom_site_fract_z
_atom_type_partial_charge
C1    C     C_R   0.496960 0.329781 0.499009 0.573512
C2    C     C_R   0.552331 0.576563 0.897272 -0.033289
C3    C     C_R   0.493711 0.501433 0.053877 0.008743
C4    C     C_R   0.496667 0.502962 0.944987 0.000835
C5    C     C_R   0.203617 0.499934 0.475028 0.564924
C6    C     C_R   0.796400 0.500037 0.524985 0.545936
C7    C     C_2   0.037717 0.499800 0.461288 -0.137324
C8    C     C_2   0.962342 0.500111 0.538771 -0.137816
C9    C     C_R   0.557407 0.096558 0.583624 -0.130879
C10   C     C_R   0.556241 0.903529 0.425786 -0.131940
C11   C     C_R   0.554322 0.188206 0.582624 -0.168934
C12   C     C_R   0.497111 0.670235 0.500470 0.573716
C13   C     C_R   0.553366 0.811869 0.426453 -0.165586
C14   C     C_R   0.495296 0.233041 0.497287 0.026697
C15   C     C_R   0.495591 0.767005 0.501870 0.025604
C16   C     C_R   0.437034 0.184198 0.412335 0.235231
C17   C     C_R   0.438501 0.815878 0.576871 0.227563
C18   C     C_R   0.441814 0.092374 0.414008 -0.072500
C19   C     C_R   0.443148 0.907690 0.575827 -0.072479
C20   C     C_R   0.501759 0.048320 0.499239 -0.008732
C21   C     C_R   0.501761 0.951755 0.500673 -0.008274
C22   C     C_R   0.207162 0.459314 0.035488 -0.000647
C23   C     C_R   0.629480 0.521540 0.118042 -0.142706
C24   C     C_R   0.143852 0.515883 0.960241 -0.086683
C25   C     C_R   0.001513 0.496068 0.904215 -0.110457
C26   C     C_R   0.918816 0.421100 0.924222 -0.104373
C27   C     C_R   0.979165 0.365192 0.999629 -0.109607
C28   C     C_R   0.122694 0.383894 0.054828 -0.106062
C29   C     C_R   0.603200 0.659797 0.950115 0.025792
C30   C     C_R   0.507529 0.702845 0.009568 -0.062197
C31   C     C_R   0.557084 0.780564 0.059820 -0.103203
C32   C     C_R   0.701588 0.816621 0.050452 -0.098482
C33   C     C_R   0.796507 0.775213 0.990460 -0.098189
C34   C     C_R   0.445014 0.428870 0.887268 -0.150290
C35   C     C_R   0.747508 0.697408 0.940196 -0.095263
C36   C     C_R   0.629631 0.521974 0.219421 0.041607
C37   C     C_R   0.445053 0.429232 0.785938 0.026442
C38   C     C_R   0.367460 0.477847 0.198431 0.071595
C39   C     C_R   0.555264 0.571917 0.795493 0.069280
C40   C     C_R   0.358933 0.479271 0.095635 -0.031862
Cl1   Cl    Cl    0.349162 0.233489 0.303599 -0.631478
Cl2   Cl    Cl    0.352073 0.766766 0.670808 -0.621040
Cu1   Cu    Cu3+1 0.500000 0.499990 0.596430 0.976078
Cu2   Cu    Cu3+1 0.500000 0.500010 0.403570 0.987221
H1    H     H_    0.977483 0.499391 0.387055 0.117683
H2    H     H_    0.403598 0.370776 0.920468 0.124097
H3    H     H_    0.734792 0.540049 0.266263 0.122852
H4    H     H_    0.400913 0.372254 0.743254 0.131723
H5    H     H_    0.265359 0.460257 0.229903 0.146213
H6    H     H_    0.599200 0.627374 0.759267 0.164053
H7    H     H_    0.204265 0.575180 0.944519 0.118283
H8    H     H_    0.955266 0.538818 0.845144 0.112831
H9    H     H_    0.808188 0.406257 0.881163 0.123834
H10   H     H_    0.915060 0.307027 0.015035 0.126458
H11   H     H_    0.168402 0.339150 0.112213 0.160010
H12   H     H_    0.022655 0.500449 0.613028 0.137399
H13   H     H_    0.394720 0.676479 0.017237 0.105547
H14   H     H_    0.483260 0.812922 0.105944 0.109863
H15   H     H_    0.739769 0.876796 0.089415 0.115585
H16   H     H_    0.908223 0.803368 0.982928 0.118578
H17   H     H_    0.822690 0.666281 0.894214 0.095996
H18   H     H_    0.604550 0.063246 0.650011 0.127866
H19   H     H_    0.602350 0.936849 0.367319 0.124735
H20   H     H_    0.599831 0.224071 0.648549 0.130655
H21   H     H_    0.597986 0.776038 0.368278 0.133955
H22   H     H_    0.395182 0.055152 0.349239 0.145228
H23   H     H_    0.397408 0.944904 0.632631 0.148089
H24   H     H_    0.735661 0.537456 0.089726 0.118606
N1    N     N_R   0.500000 0.500020 0.258690 -0.225833
N2    N     N_R   0.500000 0.499980 0.741310 -0.234346
O1    O     O_R   0.500010 0.371450 0.581430 -0.534806
O2    O     O_R   0.499990 0.628550 0.418570 -0.517833
O3    O     O_R   0.500010 0.371460 0.418560 -0.430766
O4    O     O_R   0.499990 0.628540 0.581440 -0.457012
O5    O     O_R   0.274840 0.499990 0.562640 -0.484247
O6    O     O_R   0.725160 0.500010 0.437360 -0.515061
O7    O     O_R   0.274840 0.500000 0.399770 -0.512064
O8    O     O_R   0.725160 0.500000 0.600230 -0.508656

loop_
_geom_bond_atom_site_label_1
_geom_bond_atom_site_label_2
_ccdc_geom_bond_type
C12   O4    A    
C34   C37   A    
C3    C23   A    
C10   H19   S    
C8    H12   S    
C27   H10   S    
C7    C8    D    
C38   H5    S    
C13   H21   S    
Cu1   O8    S    
C26   C27   A    
C1    O1    A    
C2    C29   S    
C7    H1    S    
C31   H14   S    
Cu2   O7    S    
C19   C21   A    
C30   C31   A    
C11   C14   A    
C6    O8    A    
C30   H13   S    
C36   H3    S    
C22   C24   A    
Cu2   O6    S    
C17   Cl2   S    
C17   C19   A    
C2    C39   A    
C19   H23   S    
C34   H2    S    
C24   H7    S    
C12   O2    A    
C38   N1    A    
C22   C28   A    
C37   N2    A    
C28   H11   S    
C10   C21   A    
Cu1   O5    S    
C4    C34   A    
C9    H18   S    
C24   C25   A    
C11   H20   S    
C5    C7    S    
C6    C8    S    
C25   C26   A    
C23   H24   S    
C5    O5    A    
C2    C4    A    
Cu1   Cu2   S    
C29   C30   A    
C9    C20   A    
C31   C32   A    
C12   C15   S    
C22   C40   S    
Cu2   N1    S    
C35   H17   S    
C37   H4    S    
C9    C11   A    
C3    C40   A    
C33   H16   S    
C13   C15   A    
C14   C16   A    
C18   H22   S    
C5    O7    A    
C3    C4    S    
C26   H9    S    
C36   N1    A    
C15   C17   A    
Cu1   O1    S    
C10   C13   A    
C6    O6    A    
Cu1   N2    S    
C29   C35   A    
C1    O3    A    
C32   C33   A    
C25   H8    S    
C38   C40   A    
Cu1   O4    S    
C33   C35   A    
C39   N2    A    
Cu2   O2    S    
C18   C20   A    
Cu2   O3    S    
C39   H6    S    
C20   C21   S    
C16   C18   A    
C23   C36   A    
C27   C28   A    
C1    C14   S    
C32   H15   S    
C16   Cl1   S    
