data_mof_unit_20764.cif
_audit_creation_date              2012-12-10T18:02:51-0500
_audit_creation_method            fapswitch 2.2
_symmetry_space_group_name_H-M    P1
_symmetry_Int_Tables_number       1
_space_group_crystal_system       triclinic
_cell_length_a                    10.829811
_cell_length_b                    9.498411
_cell_length_c                    27.840306
_cell_angle_alpha                 89.696316
_cell_angle_beta                  90.323321
_cell_angle_gamma                 89.965238
_cell_volume                      2863.73440028

loop_
_atom_site_label
_atom_site_type_symbol
_atom_type_description
_atom_site_fract_x
_atom_site_fract_y
_atom_site_fract_z
_atom_type_partial_charge
C1    C     C_R   0.262010 0.500020 0.500088 0.784441
C2    C     C_R   0.738005 0.499970 0.500129 0.789831
C3    C     C_R   0.494020 0.489319 0.101803 -0.079408
C4    C     C_R   0.500445 0.506633 0.898027 -0.079597
C5    C     C_R   0.381067 0.475798 0.126968 -0.082244
C6    C     C_R   0.613054 0.494889 0.872580 -0.081347
C7    C     C_R   0.270156 0.462173 0.100205 0.215037
C8    C     C_R   0.724286 0.478517 0.899048 0.215736
C9    C     C_R   0.605868 0.499818 0.127724 -0.017080
C10   C     C_R   0.388539 0.522540 0.872392 -0.016595
C11   C     C_R   0.501163 0.501243 0.354129 -0.105317
C12   C     C_R   0.495744 0.498975 0.645568 -0.098419
C13   C     C_R   0.384685 0.505889 0.973899 0.063085
C14   C     C_R   0.610201 0.499502 0.026050 0.063141
C15   C     C_R   0.611480 0.493925 0.975028 0.005581
C16   C     C_R   0.383311 0.490502 0.024690 0.005466
C17   C     C_R   0.498976 0.502202 0.949120 0.074028
C18   C     C_R   0.495780 0.492926 0.050711 0.073843
C19   C     C_R   0.275267 0.526948 0.946951 -0.194274
C20   C     C_R   0.719776 0.513225 0.053408 -0.193910
C21   C     C_R   0.277480 0.535188 0.897249 -0.118283
C22   C     C_R   0.717329 0.513290 0.103171 -0.119261
C23   C     C_R   0.501093 0.500556 0.407314 0.815754
C24   C     C_R   0.497949 0.499401 0.592583 0.809318
C25   C     C_R   0.272724 0.470105 0.050262 -0.233101
C26   C     C_R   0.721973 0.478417 0.949049 -0.232744
C27   C     C_R   0.064015 0.372195 0.502764 -0.186678
C28   C     C_R   0.936062 0.627799 0.498183 -0.180890
C29   C     C_R   0.936286 0.372162 0.502738 -0.173404
C30   C     C_R   0.063775 0.627826 0.498171 -0.172089
C31   C     C_R   0.871828 0.499957 0.500354 -0.018321
C32   C     C_R   0.128224 0.500019 0.500356 -0.021097
C33   C     C_R   0.425440 0.075002 0.469170 -0.031041
C34   C     C_R   0.574661 0.924998 0.530788 -0.020117
C35   C     C_R   0.574635 0.073976 0.530796 -0.032942
C36   C     C_R   0.425479 0.926024 0.469156 -0.011753
C37   C     C_R   0.384699 0.476714 0.177812 0.568446
C38   C     C_R   0.608574 0.497812 0.821743 0.569866
C39   C     C_R   0.604101 0.498592 0.177952 0.544334
C40   C     C_R   0.389712 0.526022 0.822161 0.547447
C41   C     C_R   0.522215 0.618975 0.276675 -0.129369
C42   C     C_R   0.442145 0.395114 0.722797 -0.108345
C43   C     C_R   0.525100 0.625555 0.327120 0.227432
C44   C     C_R   0.441058 0.388352 0.672676 0.205362
C45   C     C_R   0.474644 0.375054 0.329877 -0.259001
C46   C     C_R   0.547916 0.614141 0.669889 -0.254395
C47   C     C_R   0.471631 0.370992 0.279936 -0.098134
C48   C     C_R   0.548400 0.619010 0.719882 -0.091963
C49   C     C_R   0.495558 0.492666 0.253264 0.305502
C50   C     C_R   0.496019 0.509299 0.746478 0.289421
Cu1   Cu    Cu3+1 0.500000 0.640660 0.500000 0.952486
Cu2   Cu    Cu3+1 0.500000 0.359340 0.500000 0.940486
H1    H     H_    0.455371 0.278931 0.349553 0.166555
H2    H     H_    0.589849 0.700165 0.650167 0.163863
H3    H     H_    0.365747 0.131697 0.444503 0.120879
H4    H     H_    0.634467 0.868291 0.555411 0.118286
H5    H     H_    0.634377 0.129871 0.555432 0.119561
H6    H     H_    0.365885 0.870143 0.444460 0.133775
H7    H     H_    0.451360 0.272908 0.261879 0.150502
H8    H     H_    0.589748 0.708005 0.738025 0.157505
H9    H     H_    0.401181 0.310630 0.743590 0.162217
H10   H     H_    0.542414 0.710996 0.255059 0.150344
H11   H     H_    0.191005 0.551278 0.878292 0.211202
H12   H     H_    0.803864 0.524785 0.122417 0.211544
H13   H     H_    0.186272 0.541661 0.963333 0.152613
H14   H     H_    0.809199 0.528635 0.037452 0.152377
H15   H     H_    0.185795 0.454842 0.032038 0.159826
H16   H     H_    0.809203 0.461016 0.966852 0.159567
H17   H     H_    0.112196 0.272319 0.504673 0.150282
H18   H     H_    0.887913 0.727700 0.496343 0.149854
H19   H     H_    0.888301 0.272263 0.504610 0.149565
H20   H     H_    0.111750 0.727732 0.496299 0.149411
N1    N     N_R   0.494792 0.488055 0.201776 -0.468295
N2    N     N_R   0.498294 0.512567 0.798020 -0.467045
N3    N     N_R   0.500000 0.852070 0.500000 -0.158408
N4    N     N_R   0.500000 0.147930 0.500000 -0.156394
O1    O     O_R   0.319640 0.618740 0.500000 -0.586084
O2    O     O_R   0.680360 0.381260 0.500000 -0.585598
O3    O     O_R   0.680360 0.618740 0.500000 -0.591854
O4    O     O_R   0.319640 0.381260 0.500000 -0.589820
O5    O     O_R   0.500020 0.618770 0.430260 -0.559570
O6    O     O_R   0.499980 0.381230 0.569740 -0.587704
O7    O     O_R   0.499980 0.618770 0.569740 -0.580482
O8    O     O_R   0.500020 0.381230 0.430260 -0.585149
O9    O     O_2   0.280031 0.469297 0.203523 -0.485882
O10   O     O_2   0.712332 0.484694 0.795778 -0.488974
O11   O     O_2   0.282996 0.542728 0.797464 -0.518287
O12   O     O_2   0.710948 0.507755 0.202969 -0.516833
I1    I     I_    0.090382 0.424922 0.128798 -0.279440
I2    I     I_    0.904855 0.451026 0.869956 -0.279782
N5    N     N_2   0.382005 0.270822 0.651015 -0.435487
H21   H     H_    0.435758 0.213466 0.627825 0.272394
C51   C     C_3   0.257594 0.296982 0.634047 -0.609872
H22   H     H_    0.216772 0.197420 0.620581 0.220284
H23   H     H_    0.257650 0.375434 0.604332 0.213426
H24   H     H_    0.199389 0.336338 0.663860 0.246562
N6    N     N_2   0.557875 0.753213 0.350922 -0.408552
H25   H     H_    0.642607 0.750708 0.368001 0.263651
C52   C     C_3   0.526125 0.886783 0.328811 -0.684628
H26   H     H_    0.532777 0.971276 0.356114 0.226202
H27   H     H_    0.429808 0.884525 0.314862 0.238304
H28   H     H_    0.591322 0.911743 0.299328 0.228664

loop_
_geom_bond_atom_site_label_1
_geom_bond_atom_site_label_2
_ccdc_geom_bond_type
C33   H3    S    
C34   H4    S    
C51   H22   S    
C5    C37   A    
C27   C29   A    
C1    O1    A    
C14   C18   A    
C25   H15   S    
N6    H25   S    
C47   C49   A    
C38   O10   S    
C2    O2    A    
C39   O12   S    
C40   O11   S    
C37   O9    S    
C19   C21   A    
C24   O7    A    
Cu1   N3    S    
C36   H6    S    
C50   N2    S    
C9    C22   A    
C7    I1    S    
C9    C39   A    
C33   C36   A    
C8    C26   A    
C3    C18   A    
C10   C40   A    
C34   C35   A    
Cu2   O8    S    
C24   O6    A    
C2    O3    A    
C6    C38   A    
C11   C43   A    
Cu1   O5    S    
C27   H17   S    
C34   N3    A    
C48   C50   A    
C45   H1    S    
C51   H23   S    
C41   C43   A    
C42   C44   A    
C41   H10   S    
Cu2   O2    S    
C41   C49   A    
N6    C52   S    
C48   H8    S    
C45   C47   A    
C10   C21   A    
C46   C48   A    
C35   N4    A    
C23   O8    A    
C13   C19   A    
Cu1   Cu2   S    
C14   C20   A    
C4    C6    A    
N5    H21   S    
C5    C7    A    
C15   C26   A    
C6    C8    A    
Cu2   N4    S    
C47   H7    S    
C1    C32   S    
C2    C31   S    
Cu1   O1    S    
C3    C9    A    
C36   N3    A    
N5    C51   S    
C33   N4    A    
C52   H26   S    
C46   H2    S    
Cu2   O6    S    
C42   H9    S    
C44   N5    S    
C42   C50   A    
C4    C17   A    
C12   C46   A    
C52   H27   S    
C20   C22   A    
C51   H24   S    
C49   N1    S    
C11   C45   A    
C8    I2    S    
C4    C10   A    
Cu1   O7    S    
C38   N2    A    
C20   H14   S    
C16   C25   A    
C15   C17   A    
C37   N1    A    
C23   O5    A    
C27   C32   A    
C28   C31   A    
C28   H18   S    
C43   N6    S    
C3    C5    A    
C30   H20   S    
C12   C24   S    
C7    C25   A    
C13   C17   A    
C35   H5    S    
C26   H16   S    
C28   C30   A    
C29   C31   A    
C30   C32   A    
C11   C23   S    
C40   N2    A    
C19   H13   S    
C39   N1    A    
Cu1   O3    S    
C21   H11   S    
C22   H12   S    
C52   H28   S    
C16   C18   A    
C13   C16   A    
C1    O4    A    
C14   C15   A    
C12   C44   A    
Cu2   O4    S    
C29   H19   S    
