data_mof_unit_66891.cif
_audit_creation_date              2013-03-05T15:57:24-0500
_audit_creation_method            fapswitch 2.2
_symmetry_space_group_name_H-M    P1
_symmetry_Int_Tables_number       1
_space_group_crystal_system       triclinic
_cell_length_a                    17.265532
_cell_length_b                    18.436685
_cell_length_c                    8.523036
_cell_angle_alpha                 90.0
_cell_angle_beta                  101.350404
_cell_angle_gamma                 90.008772
_cell_volume                      2659.98373943

loop_
_atom_site_label
_atom_site_type_symbol
_atom_site_description
_atom_site_fract_x
_atom_site_fract_y
_atom_site_fract_z
_atom_type_partial_charge
P1    P     P_3+3 0.834140 0.419320 0.003900 0.451777
P2    P     P_3+3 0.834140 0.580680 0.503900 0.451904
P3    P     P_3+3 0.334140 0.919320 0.003900 0.451862
P4    P     P_3+3 0.334140 0.080680 0.503900 0.451870
O1    O     O_2   0.841960 0.394640 0.833410 -0.382606
O2    O     O_2   0.841960 0.605360 0.333410 -0.382713
O3    O     O_2   0.341960 0.894640 0.833410 -0.382595
O4    O     O_2   0.341960 0.105360 0.333410 -0.382629
O5    O     O_3   0.907950 0.463080 0.102990 -0.398666
O6    O     O_3   0.907950 0.536920 0.602990 -0.398593
O7    O     O_3   0.407950 0.963080 0.102990 -0.398737
O8    O     O_3   0.407950 0.036920 0.602990 -0.398741
O9    O     O_3   0.972780 0.329600 0.629720 -0.398428
O10   O     O_3   0.972780 0.670400 0.129720 -0.398466
O11   O     O_3   0.472780 0.829600 0.629720 -0.398472
O12   O     O_3   0.472780 0.170400 0.129720 -0.398500
O13   O     O_2   0.843710 0.266833 0.686903 -0.361704
O14   O     O_2   0.843711 0.733153 0.186895 -0.361769
O15   O     O_2   0.343694 0.766882 0.686925 -0.361584
O16   O     O_2   0.343671 0.233065 0.186858 -0.361441
O17   O     O_3   0.751809 0.476604 0.970821 -0.564468
O18   O     O_3   0.751800 0.523381 0.470855 -0.564351
O19   O     O_3   0.251821 0.976619 0.970827 -0.564303
O20   O     O_3   0.251801 0.023384 0.470846 -0.564274
O21   O     O_3   0.947834 0.180086 0.598565 -0.481971
O22   O     O_3   0.947846 0.819919 0.098592 -0.481951
O23   O     O_3   0.447795 0.680084 0.598662 -0.482157
O24   O     O_3   0.447874 0.319938 0.099150 -0.481600
H1    H     H_    0.065184 0.210420 0.664814 0.122054
H2    H     H_    0.065196 0.789619 0.164820 0.122047
H3    H     H_    0.565151 0.710387 0.664992 0.122154
H4    H     H_    0.565200 0.289655 0.166076 0.122426
C1    C     C_3   0.053687 0.111441 0.527426 -0.859652
C2    C     C_3   0.053691 0.888598 0.027446 -0.859694
C3    C     C_3   0.553646 0.611411 0.527598 -0.860543
C4    C     C_3   0.553883 0.388650 0.028755 -0.861730
H5    H     H_    0.607989 0.616404 0.477266 0.224568
H6    H     H_    0.608295 0.383677 0.978649 0.224362
H7    H     H_    0.108016 0.116447 0.477055 0.224519
H8    H     H_    0.108035 0.883612 0.977121 0.224536
H9    H     H_    0.067593 0.078785 0.637958 0.288417
H10   H     H_    0.067571 0.921266 0.137971 0.288461
H11   H     H_    0.567525 0.578751 0.638127 0.288537
H12   H     H_    0.567670 0.421283 0.139342 0.288722
P5    P     P_3+3 0.165830 0.418670 0.685610 0.459385
P6    P     P_3+3 0.165830 0.581330 0.185610 0.459348
P7    P     P_3+3 0.665830 0.918670 0.685610 0.459524
P8    P     P_3+3 0.665830 0.081330 0.185610 0.459500
P9    P     P_3+3 0.107072 0.269146 0.118308 0.486166
P10   P     P_3+3 0.107048 0.730888 0.618314 0.486161
P11   P     P_3+3 0.607074 0.769144 0.118251 0.486211
P12   P     P_3+3 0.607183 0.230766 0.618137 0.486588
O25   O     O_2   0.157990 0.394030 0.856030 -0.342674
O26   O     O_2   0.157990 0.605970 0.356030 -0.342918
O27   O     O_2   0.657990 0.894030 0.856030 -0.342600
O28   O     O_2   0.657990 0.105970 0.356030 -0.342474
O29   O     O_3   0.027110 0.329490 0.059550 -0.387338
O30   O     O_3   0.027110 0.670510 0.559550 -0.387284
O31   O     O_3   0.527110 0.829490 0.059550 -0.387277
O32   O     O_3   0.527110 0.170510 0.559550 -0.387134
O33   O     O_2   0.158682 0.269105 0.989119 -0.347185
O34   O     O_2   0.158683 0.730919 0.489170 -0.347152
O35   O     O_2   0.658712 0.769168 0.989118 -0.347130
O36   O     O_2   0.658924 0.230517 0.489195 -0.346780
O37   O     O_3   0.241685 0.480373 0.746971 -0.609279
O38   O     O_3   0.241632 0.519600 0.246978 -0.609291
O39   O     O_3   0.741676 0.980373 0.746919 -0.609239
O40   O     O_3   0.741663 0.019633 0.246913 -0.609258
O41   O     O_3   0.071696 0.180386 0.109162 -0.520542
O42   O     O_3   0.071671 0.819637 0.609109 -0.520528
O43   O     O_3   0.571717 0.680378 0.108898 -0.520521
O44   O     O_3   0.571958 0.319556 0.608021 -0.520161
C5    C     C_3   0.992156 0.179534 0.123163 0.161692
C6    C     C_3   0.992141 0.820479 0.623145 0.161648
C7    C     C_3   0.492226 0.679473 0.123202 0.161687
C8    C     C_3   0.492652 0.320615 0.623857 0.162625
H13   H     H_    0.972013 0.228012 0.181161 0.033830
H14   H     H_    0.971996 0.771995 0.681135 0.033830
H15   H     H_    0.472109 0.727931 0.181312 0.033706
H16   H     H_    0.472670 0.272214 0.682433 0.032894
H17   H     H_    0.982270 0.132453 0.196992 0.111706
H18   H     H_    0.982273 0.867555 0.696987 0.111718
H19   H     H_    0.482445 0.632371 0.197056 0.111781
H20   H     H_    0.483352 0.367784 0.697996 0.111844
C9    C     C_3   0.943965 0.168808 0.958498 0.101278
C10   C     C_3   0.943938 0.831206 0.458506 0.101263
C11   C     C_3   0.443904 0.668752 0.958662 0.101153
C12   C     C_3   0.443697 0.331349 0.459829 0.100376
H21   H     H_    0.458892 0.712938 0.882724 0.211144
H22   H     H_    0.458160 0.287082 0.383458 0.211383
H23   H     H_    0.959042 0.212983 0.882626 0.211083
H24   H     H_    0.958992 0.787030 0.382627 0.211100
C13   C     C_3   0.263711 0.487395 0.115560 0.739525
C14   C     C_3   0.263578 0.512778 0.615563 0.738694
C15   C     C_3   0.763742 0.987458 0.115466 0.739606
C16   C     C_3   0.763756 0.012549 0.615473 0.739623
H25   H     H_    0.217369 0.490348 0.007324 0.129610
H26   H     H_    0.217162 0.509851 0.507455 0.129804
H27   H     H_    0.717401 0.990421 0.007223 0.129553
H28   H     H_    0.717408 0.009595 0.507238 0.129543
C17   C     C_3   0.338211 0.522419 0.084245 -0.841085
C18   C     C_3   0.338055 0.477941 0.583725 -0.839580
C19   C     C_3   0.838256 0.022480 0.084208 -0.841445
C20   C     C_3   0.838255 0.977530 0.584184 -0.841421
H29   H     H_    0.380410 0.533356 0.197591 0.270172
H30   H     H_    0.380190 0.466491 0.696938 0.269819
H31   H     H_    0.880459 0.033362 0.197584 0.270191
H32   H     H_    0.880472 0.966670 0.697542 0.270237
H33   H     H_    0.366107 0.486811 0.006282 0.295070
H34   H     H_    0.366092 0.513884 0.506557 0.294945
H35   H     H_    0.866141 0.986892 0.006187 0.295086
H36   H     H_    0.866128 0.013109 0.506116 0.295050
H37   H     H_    0.321740 0.574410 0.022960 0.214177
H38   H     H_    0.321429 0.426249 0.521184 0.215040
H39   H     H_    0.821811 0.074498 0.023005 0.214085
H40   H     H_    0.821794 0.925501 0.523027 0.214079
Ba1   Ba    Ba6+2 0.000000 0.447380 0.844850 1.572973
Ba2   Ba    Ba6+2 1.000000 0.552620 0.344850 1.572959
Ba3   Ba    Ba6+2 0.500000 0.947380 0.844850 1.573074
Ba4   Ba    Ba6+2 0.500000 0.052620 0.344850 1.573143
C21   C     C_3   0.771610 0.543857 0.913741 0.357545
C22   C     C_3   0.771548 0.456156 0.413566 0.357610
C23   C     C_3   0.271650 0.043875 0.913791 0.357559
C24   C     C_3   0.271595 0.956140 0.413736 0.357564
H41   H     H_    0.776709 0.537987 0.787016 0.111218
H42   H     H_    0.776305 0.462037 0.286650 0.111167
H43   H     H_    0.276795 0.038012 0.787080 0.111034
H44   H     H_    0.276705 0.962020 0.287019 0.111091
H45   H     H_    0.827248 0.566182 0.985542 0.120831
H46   H     H_    0.827349 0.433914 0.484852 0.120616
H47   H     H_    0.327276 0.066203 0.985668 0.120855
H48   H     H_    0.327224 0.933817 0.485541 0.120807
C25   C     C_3   0.705705 0.597079 0.924961 -0.820220
C26   C     C_3   0.705830 0.402814 0.425525 -0.820123
C27   C     C_3   0.205733 0.097098 0.924932 -0.819814
C28   C     C_3   0.205682 0.902903 0.424905 -0.820077
H49   H     H_    0.647598 0.570917 0.883496 0.287336
H50   H     H_    0.647617 0.428891 0.384847 0.287523
H51   H     H_    0.147624 0.070941 0.883286 0.287270
H52   H     H_    0.147585 0.929054 0.383392 0.287365
H53   H     H_    0.709644 0.645526 0.850033 0.211913
H54   H     H_    0.709603 0.354413 0.350347 0.211859
H55   H     H_    0.209735 0.145570 0.850085 0.211844
H56   H     H_    0.209632 0.854457 0.349984 0.211857
H57   H     H_    0.709910 0.614157 0.051114 0.273916
H58   H     H_    0.710458 0.385667 0.551748 0.273687
H59   H     H_    0.209867 0.114144 0.051121 0.273960
H60   H     H_    0.209860 0.885827 0.551053 0.273984
O45   O     O_3   0.092100 0.536880 0.086720 -0.382374
O46   O     O_3   0.092100 0.463120 0.586720 -0.382545
O47   O     O_3   0.592100 0.036880 0.086720 -0.382432
O48   O     O_3   0.592100 0.963120 0.586720 -0.382420
P13   P     P_3+3 0.900431 0.735787 0.067402 0.458939
P14   P     P_3+3 0.900425 0.264208 0.567398 0.459023
P15   P     P_3+3 0.400460 0.235818 0.067507 0.459328
P16   P     P_3+3 0.400413 0.764216 0.567436 0.458941
C29   C     C_3   0.023662 0.186317 0.561607 0.420342
C30   C     C_3   0.023671 0.813711 0.061621 0.420370
C31   C     C_3   0.523638 0.686294 0.561762 0.420706
C32   C     C_3   0.523807 0.313752 0.062685 0.422009
H61   H     H_    0.023555 0.220429 0.454081 0.004770
H62   H     H_    0.023560 0.779603 0.954088 0.004762
H63   H     H_    0.523562 0.720403 0.454245 0.004715
H64   H     H_    0.523877 0.279658 0.955202 0.003987
H65   H     H_    0.507911 0.582104 0.441500 0.277606
H66   H     H_    0.508216 0.417978 0.942563 0.277847
H67   H     H_    0.007949 0.082119 0.441356 0.277622
H68   H     H_    0.007960 0.917896 0.941343 0.277606
H69   H     H_    0.380259 0.672101 0.961021 0.093541
H70   H     H_    0.380141 0.328136 0.463311 0.092044
H71   H     H_    0.880288 0.172158 0.960589 0.093723
H72   H     H_    0.880265 0.827859 0.460629 0.093687
C33   C     C_R   0.151537 0.667727 0.918352 -0.446620
C34   C     C_R   0.151603 0.332300 0.418337 -0.446995
C35   C     C_R   0.651544 0.167721 0.918325 -0.446411
C36   C     C_R   0.651578 0.832286 0.418311 -0.446722
C37   C     C_R   0.859977 0.325637 0.263494 -0.543555
C38   C     C_R   0.859970 0.674375 0.763485 -0.543681
C39   C     C_R   0.359981 0.825635 0.263519 -0.543512
C40   C     C_R   0.360043 0.174425 0.763492 -0.543145
C41   C     C_R   0.793169 0.213077 0.296735 -0.186457
C42   C     C_R   0.793165 0.786918 0.796755 -0.186398
C43   C     C_R   0.293158 0.713080 0.296786 -0.186533
C44   C     C_R   0.293230 0.286969 0.796764 -0.186572
C45   C     C_R   0.846258 0.268200 0.359313 0.235860
C46   C     C_R   0.846255 0.731803 0.859317 0.235867
C47   C     C_R   0.346254 0.768202 0.359347 0.235819
C48   C     C_R   0.346344 0.231870 0.859327 0.235408
C49   C     C_R   0.817161 0.333061 0.107608 0.284724
C50   C     C_R   0.817168 0.666952 0.607588 0.284868
C51   C     C_R   0.317170 0.833056 0.107625 0.284815
C52   C     C_R   0.317203 0.166973 0.607613 0.284738
C53   C     C_R   0.760762 0.278029 0.043134 -0.085575
C54   C     C_R   0.760784 0.721988 0.543108 -0.085720
C55   C     C_R   0.260779 0.778019 0.043153 -0.085750
C56   C     C_R   0.260817 0.222008 0.543141 -0.085705
C57   C     C_R   0.248422 0.717176 0.140187 -0.080388
C58   C     C_R   0.248471 0.282854 0.640180 -0.080080
C59   C     C_R   0.748413 0.217182 0.140160 -0.080521
C60   C     C_R   0.748425 0.782824 0.640159 -0.080439
C61   C     C_R   0.190967 0.663025 0.077003 0.202778
C62   C     C_R   0.191006 0.336990 0.577005 0.202795
C63   C     C_R   0.690954 0.163031 0.076990 0.202615
C64   C     C_R   0.690973 0.836972 0.576989 0.202574
C65   C     C_R   0.165602 0.724522 0.821970 0.304676
C66   C     C_R   0.165664 0.275516 0.321941 0.304750
C67   C     C_R   0.665612 0.224514 0.821935 0.303766
C68   C     C_R   0.665643 0.775502 0.321908 0.304562
C69   C     C_R   0.217091 0.780854 0.884996 -0.185558
C70   C     C_R   0.217130 0.219177 0.384974 -0.185477
C71   C     C_R   0.717076 0.280861 0.884973 -0.185906
C72   C     C_R   0.717110 0.719164 0.384933 -0.185682
H73   H     H_    0.287814 0.666968 0.370826 0.213646
H74   H     H_    0.287879 0.333081 0.870779 0.213688
H75   H     H_    0.787844 0.166950 0.370730 0.213843
H76   H     H_    0.787829 0.833033 0.870769 0.213805
H77   H     H_    0.721561 0.326693 0.809042 0.186529
H78   H     H_    0.721586 0.673331 0.308990 0.186608
H79   H     H_    0.221569 0.826691 0.809064 0.186626
H80   H     H_    0.221595 0.173338 0.309042 0.186614
H81   H     H_    0.109178 0.626515 0.868054 0.173831
H82   H     H_    0.109250 0.373506 0.368046 0.173845
H83   H     H_    0.609211 0.126492 0.868012 0.173775
H84   H     H_    0.609233 0.873498 0.368017 0.173809
H85   H     H_    0.902824 0.366439 0.313630 0.170434
H86   H     H_    0.902799 0.633572 0.813629 0.170391
H87   H     H_    0.402817 0.866444 0.313665 0.170409
H88   H     H_    0.402863 0.133616 0.813640 0.170332
Br1   Br    Br    0.974008 0.076062 0.880549 -0.546497
Br2   Br    Br    0.973987 0.923954 0.380547 -0.546498
Br3   Br    Br    0.473837 0.576007 0.880500 -0.546651
Br4   Br    Br    0.473600 0.423983 0.381027 -0.546504
Br5   Br    Br    0.282958 0.387929 0.170598 -0.490630
Br6   Br    Br    0.282741 0.612204 0.670964 -0.491289
Br7   Br    Br    0.782971 0.887998 0.170468 -0.490856
Br8   Br    Br    0.783021 0.111998 0.670522 -0.490719

loop_
_geom_bond_atom_site_label_1
_geom_bond_atom_site_label_2
_geom_bond_distance
_ccdc_geom_bond_type
C43   H73   1.073493 S    
C59   C63   1.435349 A    
P1    O17   1.748777 S    
O5    Ba2   2.865310 S    
O16   P15   1.546365 D    
C13   H25   1.097110 S    
P12   C67   1.832588 S    
C17   H37   1.101872 S    
P4    C52   1.870800 S    
P3    O19   1.748777 S    
C34   H82   1.082764 S    
C35   C67   1.381565 A    
C25   H49   1.106498 S    
O44   C8    1.402225 S    
C33   H81   1.082763 S    
C8    H20   1.105137 S    
C9    H23   1.102483 S    
C37   C45   1.385812 A    
H4    C32   1.112139 S    
P8    Ba4   3.442219 S    
C14   H26   1.097036 S    
C1    H67   1.107164 S    
C27   H51   1.106720 S    
P8    C63   1.863344 S    
P6    Ba2   3.442219 S    
C43   C57   1.406397 A    
C7    H15   1.109924 S    
P11   O43   1.742955 S    
C10   H72   1.104759 S    
C52   C56   1.438407 A    
C33   C61   1.391780 A    
C3    H5    1.109597 S    
C55   C69   1.410155 A    
P3    O3    1.553703 D    
P15   C48   1.836836 S    
O12   Ba4   2.821213 S    
C19   H31   1.108035 S    
P4    O20   1.748763 S    
C15   H27   1.097148 S    
O9    Ba1   2.821102 S    
C53   C71   1.410167 A    
C39   C47   1.385850 A    
P13   C46   1.836494 S    
O13   P14   1.546357 D    
O23   C31   1.410240 S    
C11   H69   1.104730 S    
O20   C24   1.398686 S    
P9    O29   1.767171 S    
P7    O48   1.606388 S    
C24   H48   1.111390 S    
C19   H35   1.109319 S    
P5    O46   1.606388 S    
C42   C46   1.401777 A    
C5    H17   1.104880 S    
Ba2   O46   2.865573 S    
O30   Ba2   2.820329 S    
C36   C64   1.391772 A    
C22   C26   1.519935 S    
P12   O32   1.767090 S    
C21   H41   1.106107 S    
C20   H40   1.101908 S    
P5    O37   1.735757 S    
C44   H74   1.073413 S    
C28   H52   1.106458 S    
P6    C61   1.863255 S    
C54   C60   1.434325 A    
C1    C29   1.522806 S    
P5    C62   1.863345 S    
O10   Ba2   2.821213 S    
C2    H10   1.103926 S    
P2    O18   1.748813 S    
O24   P15   1.749535 S    
C57   C61   1.435343 A    
Ba1   O46   2.971519 S    
O23   P16   1.749495 S    
P4    O8    1.601519 S    
C40   C48   1.385966 A    
C8    C12   1.497649 S    
P8    O28   1.553012 D    
P4    O4    1.553692 D    
C24   H44   1.106110 S    
C56   C70   1.410213 A    
C20   H32   1.108012 S    
P7    Ba3   3.442353 S    
P7    O27   1.552999 D    
P5    O25   1.552999 D    
P9    O41   1.742993 S    
C42   H76   1.073393 S    
O15   P16   1.546325 D    
O28   Ba4   2.883434 S    
P2    O2    1.553692 D    
C15   Br7   1.905623 S    
C6    H18   1.104835 S    
C2    H68   1.107157 S    
O7    Ba4   2.865310 S    
P7    O39   1.735568 S    
C15   C19   1.509217 S    
O18   C22   1.398721 S    
C50   C54   1.438408 A    
C3    C31   1.522787 S    
P11   O31   1.767156 S    
C17   H29   1.107997 S    
C71   H77   1.076353 S    
P14   C45   1.836455 S    
Ba4   O48   2.865573 S    
O40   C15   1.385825 S    
C37   C49   1.394227 A    
C24   C28   1.519802 S    
C69   H79   1.076406 S    
C42   C60   1.406381 A    
O3    Ba3   2.880094 S    
P11   O35   1.546748 D    
C56   C58   1.434344 A    
C40   C52   1.394350 A    
C70   H80   1.076407 S    
C13   C17   1.509166 S    
C20   H36   1.109301 S    
C4    C32   1.522807 S    
P11   C68   1.832561 S    
C14   Br6   1.905494 S    
H1    C29   1.112140 S    
C12   H70   1.105130 S    
C13   Br5   1.905843 S    
C53   C59   1.434257 A    
C67   C71   1.403291 A    
C54   C72   1.410187 A    
C40   H88   1.082189 S    
C9    Br1   1.941691 S    
C6    C10   1.497051 S    
C44   C48   1.401799 A    
O1    Ba1   2.880094 S    
C10   Br2   1.941665 S    
C22   H42   1.106154 S    
Ba2   O45   2.971567 S    
C19   H39   1.101933 S    
P2    Ba2   3.440097 S    
O42   C6    1.401674 S    
C18   H38   1.102046 S    
C43   C47   1.401719 A    
C60   C64   1.435464 A    
C26   H54   1.107948 S    
O8    Ba3   2.865590 S    
C66   C70   1.403386 A    
C23   H43   1.106195 S    
C34   C62   1.391743 A    
C65   C69   1.403289 A    
C68   C72   1.403367 A    
P12   O44   1.742622 S    
P6    O26   1.553012 D    
O12   P15   1.742059 S    
C4    H66   1.107174 S    
C16   Br8   1.905503 S    
P10   O30   1.767016 S    
P1    O5    1.601322 S    
C41   H75   1.073406 S    
C1    H7    1.109601 S    
P8    O40   1.735608 S    
O41   C5    1.401751 S    
C5    C9    1.497121 S    
O11   P16   1.741994 S    
C28   H60   1.108949 S    
O14   P13   1.546347 D    
P3    Ba3   3.439965 S    
O38   C13   1.385851 S    
C58   C62   1.435462 A    
C2    C30   1.522801 S    
C7    C11   1.497075 S    
O37   C14   1.385919 S    
C12   Br4   1.941816 S    
C12   H22   1.102796 S    
C44   C58   1.406439 A    
C16   C20   1.509203 S    
O24   C32   1.410260 S    
O21   C29   1.410238 S    
O39   C16   1.385790 S    
P10   O34   1.546786 D    
C31   H63   1.111182 S    
C4    H12   1.103925 S    
C25   H57   1.108947 S    
C41   C59   1.406356 A    
C29   H61   1.111187 S    
P1    O1    1.553703 D    
C3    H11   1.103914 S    
O4    Ba4   2.880376 S    
O29   Ba1   2.820440 S    
P16   C47   1.836433 S    
P5    Ba1   3.442353 S    
Ba3   O48   2.971519 S    
H2    C30   1.112127 S    
O19   C23   1.398740 S    
Ba4   O47   2.971567 S    
O31   Ba3   2.820440 S    
C36   H84   1.082762 S    
C23   H47   1.111495 S    
O21   P14   1.749506 S    
O22   C30   1.410227 S    
C25   H53   1.107856 S    
C11   Br3   1.941764 S    
P4    Ba4   3.440097 S    
C8    H16   1.110077 S    
C21   H45   1.111396 S    
C26   H50   1.106579 S    
Ba1   O45   2.865292 S    
Ba3   Ba4   4.682436 S    
P6    O38   1.735706 S    
O27   Ba3   2.883721 S    
C22   H46   1.111413 S    
P2    C50   1.870519 S    
C27   H59   1.109221 S    
P12   O36   1.546689 D    
P1    C49   1.870361 S    
C26   H58   1.108980 S    
C1    H9    1.103920 S    
C36   C68   1.381562 A    
O26   Ba2   2.883434 S    
P10   O42   1.742967 S    
C35   C63   1.391776 A    
O10   P13   1.742138 S    
O6    Ba1   2.865590 S    
C10   H24   1.102447 S    
Ba1   Ba2   4.682436 S    
O43   C7    1.401652 S    
P9    O33   1.546802 D    
C7    H19   1.104830 S    
C41   C45   1.401711 A    
C72   H78   1.076408 S    
C18   H34   1.109605 S    
C38   C50   1.394210 A    
C16   H28   1.097148 S    
C4    H6    1.109632 S    
C27   H55   1.107998 S    
C3    H65   1.107147 S    
O11   Ba3   2.821102 S    
P7    C64   1.863507 S    
C18   H30   1.108425 S    
O25   Ba1   2.883721 S    
O17   C21   1.398670 S    
P3    C51   1.870462 S    
C51   C55   1.438282 A    
O9    P14   1.742018 S    
C38   H86   1.082191 S    
Ba3   O47   2.865292 S    
P3    O7    1.601322 S    
C30   H62   1.111183 S    
O32   Ba4   2.820329 S    
C37   H85   1.082186 S    
C38   C46   1.385798 A    
P10   C65   1.832493 S    
C49   C53   1.438292 A    
C39   H87   1.082193 S    
C9    H71   1.104796 S    
C39   C51   1.394251 A    
P9    C66   1.832561 S    
C14   C18   1.509056 S    
C5    H13   1.109915 S    
C28   H56   1.107858 S    
C6    H14   1.109891 S    
P8    O47   1.606189 S    
C23   C27   1.519868 S    
C34   C66   1.381501 A    
C11   H21   1.102441 S    
C35   H83   1.082764 S    
C2    H8    1.109601 S    
O22   P13   1.749499 S    
C33   C65   1.381549 A    
C21   C25   1.519836 S    
P6    O45   1.606189 S    
P1    Ba1   3.439965 S    
C17   H33   1.109307 S    
C32   H64   1.111194 S    
H3    C31   1.112125 S    
O2    Ba2   2.880376 S    
C55   C57   1.434283 A    
P2    O6    1.601519 S    
