data_mof_unit_58760.cif
_audit_creation_date              2012-12-10T19:35:50-0500
_audit_creation_method            fapswitch 2.2
_symmetry_space_group_name_H-M    P1
_symmetry_Int_Tables_number       1
_space_group_crystal_system       triclinic
_cell_length_a                    15.038983
_cell_length_b                    15.786269
_cell_length_c                    17.011554
_cell_angle_alpha                 95.30755
_cell_angle_beta                  89.330815
_cell_angle_gamma                 91.924799
_cell_volume                      4018.96939261

loop_
_atom_site_label
_atom_site_type_symbol
_atom_type_description
_atom_site_fract_x
_atom_site_fract_y
_atom_site_fract_z
_atom_type_partial_charge
C1    C     C_R   0.497751 0.490482 0.348404 0.831114
C2    C     C_R   0.494765 0.435530 0.855565 0.007303
C3    C     C_R   0.474829 0.493420 0.098648 0.289055
C4    C     C_R   0.533572 0.506792 0.900648 0.288969
C5    C     C_R   0.440580 0.423534 0.135193 -0.304842
C6    C     C_R   0.564545 0.577591 0.863667 -0.312795
C7    C     C_R   0.448656 0.419955 0.216914 0.376416
C8    C     C_R   0.553720 0.581151 0.782206 0.377859
C9    C     C_R   0.455178 0.753413 0.464559 0.030398
C10   C     C_R   0.535782 0.246965 0.542859 0.029454
C11   C     C_R   0.457763 0.842603 0.467455 -0.296384
C12   C     C_R   0.502924 0.509521 0.651575 0.828070
C13   C     C_R   0.532859 0.157788 0.540163 -0.295477
C14   C     C_R   0.518576 0.891090 0.517453 0.333265
C15   C     C_R   0.481657 0.108829 0.482274 0.333663
C16   C     C_R   0.328872 0.500537 0.498723 0.802752
C17   C     C_R   0.671117 0.499467 0.502032 0.800850
C18   C     C_R   0.575683 0.846660 0.563624 -0.136753
C19   C     C_R   0.433910 0.152813 0.428314 -0.138518
C20   C     C_R   0.570560 0.756890 0.558076 0.046869
C21   C     C_R   0.438747 0.242643 0.434190 0.039396
C22   C     C_R   0.814971 0.552457 0.563550 0.320122
C23   C     C_R   0.038569 0.388489 0.388029 -0.011657
C24   C     C_R   0.185071 0.446629 0.438754 0.333738
C25   C     C_R   0.767321 0.497763 0.507296 -0.154259
C26   C     C_R   0.232564 0.501525 0.494904 -0.159652
C27   C     C_R   0.811323 0.441425 0.453779 -0.286919
C28   C     C_R   0.188435 0.554694 0.551106 -0.289977
C29   C     C_R   0.903511 0.441682 0.451332 0.108881
C30   C     C_R   0.096204 0.552354 0.555129 0.108939
C31   C     C_R   0.953099 0.496533 0.505652 -0.003672
C32   C     C_R   0.046746 0.497283 0.500814 -0.005773
C33   C     C_R   0.909034 0.550248 0.564731 0.030986
C34   C     C_R   0.960957 0.599949 0.622560 -0.003028
C35   C     C_R   0.090816 0.443374 0.441765 0.033668
C36   C     C_R   0.946087 0.388170 0.394011 -0.273850
C37   C     C_R   0.053514 0.602255 0.615273 -0.272697
C38   C     C_R   0.641972 0.892483 0.617040 0.112359
C39   C     C_R   0.615559 0.956021 0.675203 -0.112942
C40   C     C_R   0.678632 0.999218 0.725157 -0.153232
C41   C     C_R   0.768368 0.979434 0.717436 -0.124819
C42   C     C_R   0.795134 0.916213 0.659935 -0.119180
C43   C     C_R   0.732239 0.872331 0.610315 -0.117339
C44   C     C_R   0.380767 0.106508 0.364049 0.124493
C45   C     C_R   0.491543 0.488415 0.262128 -0.079073
C46   C     C_R   0.316576 0.043568 0.380454 -0.112550
C47   C     C_R   0.268011 0.999374 0.319195 -0.166446
C48   C     C_R   0.282402 0.018134 0.241282 -0.125196
C49   C     C_R   0.345080 0.081425 0.224512 -0.134409
C50   C     C_R   0.394086 0.125483 0.285521 -0.129539
C51   C     C_R   0.076659 0.329894 0.324645 0.199288
C52   C     C_R   0.086827 0.244000 0.336513 -0.116830
C53   C     C_R   0.124101 0.188768 0.277068 -0.120386
C54   C     C_R   0.151580 0.218980 0.205689 -0.109184
C55   C     C_R   0.140954 0.304383 0.193330 -0.139481
C56   C     C_R   0.511674 0.511610 0.737692 -0.079436
C57   C     C_R   0.102996 0.359727 0.252403 -0.091057
C58   C     C_R   0.922599 0.644618 0.695054 0.205624
C59   C     C_R   0.877354 0.598005 0.750634 -0.093363
C60   C     C_R   0.839952 0.640043 0.818429 -0.134462
C61   C     C_R   0.848996 0.728552 0.832029 -0.109055
C62   C     C_R   0.895749 0.775110 0.778018 -0.131298
C63   C     C_R   0.932526 0.733419 0.709699 -0.141391
C64   C     C_R   0.468216 0.355924 0.891109 0.153862
C65   C     C_R   0.528851 0.315744 0.936581 -0.117344
C66   C     C_R   0.502907 0.242061 0.971709 -0.157127
C67   C     C_R   0.523862 0.559529 0.225465 -0.361048
C68   C     C_R   0.416574 0.207637 0.961433 -0.130476
C69   C     C_R   0.356150 0.246611 0.915678 -0.145855
C70   C     C_R   0.381778 0.320334 0.880442 -0.152552
C71   C     C_R   0.544978 0.642499 0.109412 0.155096
C72   C     C_R   0.632603 0.674795 0.120586 -0.151621
C73   C     C_R   0.661462 0.748053 0.086108 -0.144340
C74   C     C_R   0.603070 0.789863 0.040694 -0.125188
C75   C     C_R   0.515579 0.758700 0.029929 -0.153316
C76   C     C_R   0.486441 0.685442 0.064229 -0.113092
C77   C     C_R   0.483222 0.439445 0.774735 -0.364736
C78   C     C_R   0.514912 0.563583 0.144361 0.004801
Cu1   Cu    Cu3+1 0.495660 0.415220 0.496180 0.958867
Cu2   Cu    Cu3+1 0.504340 0.584780 0.503820 0.959162
H1    H     H_    0.570775 0.127791 0.582991 0.165442
H2    H     H_    0.554795 0.613202 0.260487 0.183085
H3    H     H_    0.408608 0.371116 0.099340 0.156456
H4    H     H_    0.595688 0.630840 0.899023 0.156790
H5    H     H_    0.575733 0.283644 0.587134 0.136182
H6    H     H_    0.408300 0.716997 0.426069 0.136998
H7    H     H_    0.713136 0.584888 0.629738 0.337224
H8    H     H_    0.286453 0.424964 0.368030 0.335207
H9    H     H_    0.546185 0.971701 0.682222 0.132263
H10   H     H_    0.657924 0.048068 0.769836 0.127352
H11   H     H_    0.817164 0.013085 0.755985 0.117535
H12   H     H_    0.412311 0.872957 0.430849 0.164838
H13   H     H_    0.864700 0.901328 0.653668 0.120200
H14   H     H_    0.754055 0.823533 0.565983 0.139285
H15   H     H_    0.303793 0.028952 0.440586 0.130595
H16   H     H_    0.218882 0.950838 0.332180 0.125890
H17   H     H_    0.244508 0.984078 0.193986 0.118890
H18   H     H_    0.355872 0.096232 0.164194 0.114384
H19   H     H_    0.443282 0.173544 0.271406 0.142148
H20   H     H_    0.066364 0.220114 0.391816 0.120029
H21   H     H_    0.131574 0.122574 0.286409 0.137880
H22   H     H_    0.180844 0.176182 0.159897 0.116896
H23   H     H_    0.613954 0.722635 0.593360 0.187465
H24   H     H_    0.162157 0.327682 0.138021 0.123106
H25   H     H_    0.095266 0.425850 0.242469 0.115381
H26   H     H_    0.870012 0.529367 0.740734 0.111438
H27   H     H_    0.803977 0.604017 0.860410 0.126828
H28   H     H_    0.820076 0.761016 0.884567 0.118151
H29   H     H_    0.903276 0.843579 0.789037 0.120211
H30   H     H_    0.968011 0.770221 0.667974 0.112141
H31   H     H_    0.596015 0.341633 0.945018 0.127434
H32   H     H_    0.549704 0.211748 0.007038 0.128885
H33   H     H_    0.396518 0.150752 0.988875 0.118108
H34   H     H_    0.401559 0.276610 0.393772 0.193956
H35   H     H_    0.289297 0.219877 0.907761 0.125046
H36   H     H_    0.333900 0.350351 0.845890 0.126566
H37   H     H_    0.678843 0.642594 0.155006 0.126173
H38   H     H_    0.729213 0.772267 0.094398 0.126029
H39   H     H_    0.625596 0.846435 0.013899 0.123501
H40   H     H_    0.470366 0.791205 0.994846 0.130442
H41   H     H_    0.418439 0.662036 0.055407 0.128943
H42   H     H_    0.384075 0.310652 0.213467 0.319069
H43   H     H_    0.614035 0.692546 0.784774 0.325502
H44   H     H_    0.773263 0.399698 0.411349 0.162168
H45   H     H_    0.226561 0.595849 0.593928 0.160940
H46   H     H_    0.906858 0.346193 0.352679 0.145278
H47   H     H_    0.092833 0.641138 0.658877 0.143631
H48   H     H_    0.453210 0.384929 0.740231 0.180885
N1    N     N_2   0.468635 0.490435 0.015697 -0.238484
N2    N     N_2   0.540301 0.510230 0.983576 -0.241193
N3    N     N_R   0.510860 0.712130 0.509560 -0.179784
N4    N     N_R   0.489140 0.287870 0.490440 -0.179442
N5    N     N_2   0.524706 0.982710 0.522824 -0.241374
N6    N     N_2   0.477013 0.017149 0.475873 -0.241915
O1    O     O_R   0.495940 0.420530 0.382500 -0.541504
O2    O     O_3   0.229606 0.396064 0.381504 -0.719937
O3    O     O_3   0.413371 0.351694 0.253498 -0.745387
O4    O     O_3   0.585168 0.650651 0.745217 -0.732515
O5    O     O_R   0.504060 0.579470 0.617500 -0.533921
O6    O     O_R   0.503270 0.563720 0.388950 -0.601947
O7    O     O_R   0.496730 0.436280 0.611050 -0.606430
O8    O     O_R   0.366590 0.428400 0.496760 -0.562292
O9    O     O_R   0.633410 0.571600 0.503240 -0.570951
O10   O     O_R   0.373920 0.571590 0.503210 -0.591473
O11   O     O_R   0.626080 0.428410 0.496790 -0.587847
O12   O     O_3   0.771255 0.610371 0.614852 -0.728152

loop_
_geom_bond_atom_site_label_1
_geom_bond_atom_site_label_2
_ccdc_geom_bond_type
C66   C68   A    
C10   H5    S    
C40   C41   A    
H7    O12   S    
C27   C29   A    
C34   C37   A    
C41   C42   A    
C14   C18   A    
C16   O8    A    
C8    C56   A    
Cu1   O11   S    
C15   N6    S    
Cu1   O7    S    
C53   C54   A    
C19   C44   S    
C15   C19   A    
C48   H17   S    
C29   C36   A    
C50   H19   S    
C2    C4    A    
C76   H41   S    
C7    C45   A    
C16   O10   A    
C24   C26   A    
C38   C39   A    
C5    H3    S    
C11   C14   A    
Cu1   O8    S    
C42   H13   S    
C13   H1    S    
C43   H14   S    
C20   H23   S    
C12   O7    A    
C8    O4    S    
C73   C74   A    
C49   C50   A    
C61   H28   S    
C65   H31   S    
C49   H18   S    
C46   C47   A    
C11   H12   S    
C46   H15   S    
C22   O12   S    
C44   C46   A    
C68   C69   A    
Cu2   O10   S    
C22   C25   A    
C72   H37   S    
C45   C67   A    
C47   H16   S    
C31   C33   A    
C51   C57   A    
C64   C70   A    
C68   H33   S    
C24   O2    S    
C59   C60   A    
Cu2   N3    S    
C61   C62   A    
C67   C78   A    
C2    C64   S    
C9    N3    A    
C16   C26   S    
C24   C35   A    
C6    H4    S    
C74   C75   A    
C51   C52   A    
C59   H26   S    
C32   C35   A    
H8    O2    S    
C4    C6    A    
C53   H21   S    
C39   C40   A    
C5    C7    A    
C21   H34   S    
C4    N2    S    
C70   H36   S    
C58   C59   A    
Cu2   O6    S    
C55   H24   S    
C52   H20   S    
C56   C77   A    
C30   C37   A    
C60   C61   A    
C17   O11   A    
C75   C76   A    
C21   N4    A    
C62   C63   A    
C74   H39   S    
C9    H6    S    
C9    C11   A    
C23   C51   S    
C47   C48   A    
H43   O4    S    
Cu2   O9    S    
C33   C34   A    
C12   O5    A    
C52   C53   A    
C60   H27   S    
C12   C56   S    
C77   H48   S    
C48   C49   A    
C41   H11   S    
C65   C66   A    
C23   C35   A    
C13   C15   A    
N5    N6    D    
C42   C43   A    
C20   N3    A    
C28   H45   S    
C7    O3    S    
N1    N2    D    
C44   C50   A    
C58   C63   A    
C22   C33   A    
C54   C55   A    
C69   H35   S    
C73   H38   S    
C19   C21   A    
C3    N1    S    
C54   H22   S    
C31   C32   A    
C36   H46   S    
C75   H40   S    
H42   O3    S    
C72   C73   A    
C3    C5    A    
C10   C13   A    
C6    C8    A    
C27   H44   S    
C14   N5    S    
C25   C27   A    
Cu2   O5    S    
Cu1   O1    S    
C66   H32   S    
C26   C28   A    
C17   O9    A    
C17   C25   S    
C64   C65   A    
C63   H30   S    
C55   C57   A    
C18   C38   S    
C38   C43   A    
C29   C31   A    
C2    C77   A    
C30   C32   A    
C1    C45   S    
C71   C76   A    
C62   H29   S    
C57   H25   S    
Cu1   N4    S    
C28   C30   A    
C18   C20   A    
C69   C70   A    
C10   N4    A    
Cu1   Cu2   S    
C71   C72   A    
C67   H2    S    
C23   C36   A    
C34   C58   S    
C1    O6    A    
C40   H10   S    
C1    O1    A    
C3    C78   A    
C39   H9    S    
C71   C78   S    
C37   H47   S    
