data_mof_unit_46965.cif
_audit_creation_date              2012-12-10T17:02:30-0500
_audit_creation_method            fapswitch 2.2
_symmetry_space_group_name_H-M    P1
_symmetry_Int_Tables_number       1
_space_group_crystal_system       triclinic
_cell_length_a                    10.810983
_cell_length_b                    11.064148
_cell_length_c                    9.84813
_cell_angle_alpha                 111.89538
_cell_angle_beta                  97.647329
_cell_angle_gamma                 90.383846
_cell_volume                      1081.25045791

loop_
_atom_site_label
_atom_site_type_symbol
_atom_type_description
_atom_site_fract_x
_atom_site_fract_y
_atom_site_fract_z
_atom_type_partial_charge
C1    C     C_R   0.488377 0.253780 0.439645 0.889634
C2    C     C_R   0.512510 0.746186 0.560314 0.893501
C3    C     C_2   0.482725 0.113320 0.403127 -0.155209
C4    C     C_2   0.521157 0.886613 0.596696 -0.165248
C5    C     C_2   0.511621 0.069300 0.512247 -0.170767
C6    C     C_2   0.507966 0.930364 0.486143 -0.193824
C7    C     C_2   0.510870 0.509905 0.081307 0.558037
C8    C     C_2   0.489163 0.490058 0.918683 0.559431
C9    C     C_R   0.263333 0.504765 0.503226 0.897450
C10   C     C_R   0.736692 0.495303 0.496785 0.896053
C11   C     C_R   0.130294 0.743652 0.561294 0.591842
C12   C     C_R   0.869795 0.256371 0.438261 0.589929
C13   C     C_R   0.064527 0.855342 0.580023 -0.175355
C14   C     C_R   0.935542 0.144669 0.419505 -0.177059
C15   C     C_R   0.935282 0.848759 0.568329 -0.231088
C16   C     C_R   0.064791 0.151273 0.431351 -0.229618
C17   C     C_R   0.870943 0.730519 0.538996 -0.117183
C18   C     C_R   0.129138 0.269545 0.460856 -0.116281
C19   C     C_R   0.935198 0.615221 0.519921 -0.003585
C20   C     C_R   0.064874 0.384859 0.480005 -0.004002
C21   C     C_R   0.066681 0.620936 0.529296 -0.039258
C22   C     C_R   0.933393 0.379131 0.470544 -0.038527
C23   C     C_R   0.870084 0.495354 0.492479 -0.127817
C24   C     C_R   0.129973 0.504730 0.507495 -0.128324
Cu1   Cu    Cu3+1 0.521920 0.521810 0.644910 1.058354
Cu2   Cu    Cu3+1 0.478080 0.478190 0.355090 1.059989
H1    H     H_    0.115460 0.064243 0.416554 0.169461
H2    H     H_    0.884603 0.935773 0.583043 0.168849
H3    H     H_    0.114452 0.947937 0.604630 0.169068
H4    H     H_    0.885594 0.052042 0.394693 0.168871
H5    H     H_    0.770338 0.730803 0.531235 0.128965
H6    H     H_    0.229755 0.269256 0.468640 0.129367
H7    H     H_    0.492410 0.861136 0.372312 0.211785
H8    H     H_    0.538439 0.138362 0.624998 0.203878
H9    H     H_    0.623935 0.621374 0.933709 0.200531
H10   H     H_    0.376038 0.378656 0.066300 0.201676
N1    N     N_2   0.445130 0.445420 0.137360 -0.307397
N2    N     N_2   0.554870 0.554580 0.862640 -0.308635
O1    O     O_R   0.511700 0.332340 0.577400 -0.534576
O2    O     O_R   0.488300 0.667660 0.422600 -0.532948
O3    O     O_R   0.474680 0.295500 0.332650 -0.570344
O4    O     O_R   0.525320 0.704500 0.667350 -0.572114
O5    O     O_R   0.338170 0.518410 0.622370 -0.512878
O6    O     O_R   0.661830 0.481590 0.377630 -0.513212
O7    O     O_R   0.301150 0.481570 0.377630 -0.587697
O8    O     O_R   0.698850 0.518430 0.622370 -0.588723
F1    F     F_    0.256178 0.758738 0.578308 -0.703960
F2    F     F_    0.743928 0.241235 0.420791 -0.705647
C25   C     C_1   0.541706 0.973981 0.751154 0.300912
N3    N     N_1   0.558061 0.043573 0.874304 -0.237804
C26   C     C_1   0.446343 0.026302 0.250109 0.286463
N4    N     N_1   0.417328 0.956988 0.128093 -0.236974
F3    F     F_    0.397313 0.401255 0.827928 -0.672475
F4    F     F_    0.602766 0.598655 0.172046 -0.675516

loop_
_geom_bond_atom_site_label_1
_geom_bond_atom_site_label_2
_ccdc_geom_bond_type
Cu1   O4    S    
C10   O8    A    
C19   C23   A    
C9    C24   S    
C9    O7    A    
C2    O2    A    
C10   C23   S    
C11   F1    S    
Cu2   O7    S    
C6    H7    S    
C2    O4    A    
C4    C25   S    
C12   F2    S    
C5    H8    S    
Cu1   O5    S    
C16   H1    S    
C7    N1    D    
C8    F3    S    
Cu2   O6    S    
C7    C8    S    
Cu2   N1    S    
C16   C18   A    
Cu1   O1    S    
C11   C13   A    
Cu2   O2    S    
C15   H2    S    
C8    N2    D    
C14   H4    S    
C2    C4    S    
C13   H3    S    
H10   N1    S    
C19   C21   A    
C20   C22   A    
C18   C20   A    
C13   C15   A    
C5    C6    S    
C17   H5    S    
C14   C16   A    
C9    O5    A    
C18   H6    S    
C1    O1    A    
C10   O6    A    
C26   N4    T    
C12   C22   A    
Cu1   N2    S    
H9    N2    S    
C4    C6    D    
C25   N3    T    
C21   C24   A    
C1    O3    A    
C15   C17   A    
C3    C26   S    
C22   C23   A    
C17   C19   A    
C7    F4    S    
C3    C5    D    
Cu1   Cu2   S    
Cu1   O8    S    
C11   C21   A    
C20   C24   A    
Cu2   O3    S    
C12   C14   A    
C1    C3    S    
