data_mof_unit_63384.cif
_audit_creation_date              2012-10-26T19:08:41-0400
_audit_creation_method            fapswitch 2.2
_symmetry_space_group_name_H-M    P1
_symmetry_Int_Tables_number       1
_space_group_crystal_system       triclinic
_cell_length_a                    15.956397
_cell_length_b                    11.731136
_cell_length_c                    10.470446
_cell_angle_alpha                 90.000185
_cell_angle_beta                  90.150276
_cell_angle_gamma                 90.003053
_cell_volume                      1959.92110567

loop_
_atom_site_label
_atom_site_type_symbol
_atom_type_description
_atom_site_fract_x
_atom_site_fract_y
_atom_site_fract_z
_atom_type_partial_charge
C1    C     C_R   0.500007 0.283318 0.500000 0.555014
C2    C     C_R   0.339870 0.499979 0.499806 0.555719
C3    C     C_R   0.660129 0.499933 0.500197 0.561644
C4    C     C_1   0.500015 0.059738 0.500001 0.015638
C5    C     C_1   0.500013 0.161947 0.500000 0.030369
C6    C     C_1   0.500000 0.499986 0.072067 0.152149
C7    C     C_1   0.500000 0.499986 0.927933 0.152962
C8    C     C_R   0.500002 0.716694 0.500000 0.559492
C9    C     C_3   0.052209 0.425040 0.627165 -0.140248
C10   C     C_3   0.050616 0.423031 0.368750 -0.090406
C11   C     C_3   0.949874 0.416320 0.628353 -0.083140
C12   C     C_1   0.749181 0.496267 0.501002 0.112145
C13   C     C_3   0.948221 0.427877 0.371320 -0.122546
C14   C     C_1   0.500013 0.940280 0.500001 0.017112
C15   C     C_1   0.500008 0.838069 0.500001 0.033688
C16   C     C_2   0.915407 0.294028 0.634703 0.154704
C17   C     C_2   0.911099 0.307180 0.357101 0.303760
C18   C     C_2   0.091673 0.305406 0.639618 0.144523
C19   C     C_2   0.089029 0.303570 0.357370 0.151875
C20   C     C_2   0.086888 0.473116 0.244594 0.412509
C21   C     C_2   0.089602 0.494918 0.740217 0.321458
C22   C     C_2   0.909577 0.498502 0.259939 0.289219
C23   C     C_1   0.250802 0.496897 0.499049 0.071555
C24   C     C_2   0.912672 0.458505 0.755133 0.407135
C25   C     C_3   0.083234 0.486278 0.496278 -0.098544
C26   C     C_3   0.916714 0.484605 0.504194 -0.066237
C27   C     C_3   0.951464 0.610614 0.513220 0.756478
C28   C     C_3   0.047666 0.612012 0.493455 0.778509
C29   C     C_1   0.824249 0.491534 0.502685 0.141704
C30   C     C_1   0.175721 0.492859 0.497569 0.063967
Cu1   Cu    Cu3+1 0.500000 0.500000 0.625300 1.087595
Cu2   Cu    Cu3+1 0.500000 0.500000 0.374700 1.081595
F1    F     F_    0.085589 0.679586 0.585649 -0.500917
F2    F     F_    0.065199 0.666275 0.379319 -0.472994
F3    F     F_    0.933426 0.659585 0.630143 -0.477789
F4    F     F_    0.912849 0.681280 0.424715 -0.501734
H1    H     H_    0.949398 0.226920 0.683388 0.153795
H2    H     H_    0.939154 0.235611 0.406445 0.192341
H3    H     H_    0.069149 0.235328 0.581885 0.135807
H4    H     H_    0.145585 0.282179 0.409656 0.147276
H5    H     H_    0.058926 0.448901 0.153793 0.165895
H6    H     H_    0.154589 0.482217 0.767826 0.176279
H7    H     H_    0.846752 0.479814 0.225897 0.172004
H8    H     H_    0.939861 0.428302 0.844239 0.133378
N1    N     N_1   0.500000 0.499990 0.186410 -0.173795
N2    N     N_1   0.500000 0.499990 0.813590 -0.173295
O1    O     O_R   0.500000 0.337200 0.605810 -0.486439
O2    O     O_2   0.848904 0.287050 0.292451 -0.465646
O3    O     O_2   0.148058 0.283772 0.715159 -0.477797
O4    O     O_2   0.066118 0.236267 0.275140 -0.457664
O5    O     O_2   0.150625 0.530725 0.241673 -0.412720
O6    O     O_2   0.052211 0.571564 0.794612 -0.371769
O7    O     O_2   0.943431 0.582203 0.213775 -0.366336
O8    O     O_2   0.849626 0.517269 0.761278 -0.394419
O9    O     O_R   0.500000 0.337200 0.394190 -0.489216
O10   O     O_R   0.379430 0.500010 0.605860 -0.493543
O11   O     O_R   0.379430 0.500010 0.394140 -0.476928
O12   O     O_R   0.620570 0.500010 0.605860 -0.470101
O13   O     O_R   0.620570 0.500010 0.394140 -0.495339
O14   O     O_R   0.500000 0.662810 0.605810 -0.485775
O15   O     O_R   0.500000 0.662810 0.394190 -0.484840
O16   O     O_2   0.843207 0.272130 0.604003 -0.459119

loop_
_geom_bond_atom_site_label_1
_geom_bond_atom_site_label_2
_ccdc_geom_bond_type
Cu1   O14   S    
C13   C22   S    
C18   H3    S    
C7    N2    T    
C9    C18   S    
C6    C7    S    
C6    N1    T    
C27   F4    S    
C20   O5    D    
Cu2   N1    S    
C16   H1    S    
Cu2   O9    S    
C22   H7    S    
Cu2   O13   S    
C17   O2    D    
C13   C17   S    
C10   C19   S    
C20   H5    S    
C1    O9    A    
C2    O11   A    
C9    C25   S    
C10   C13   S    
Cu1   O1    S    
C8    O14   A    
C25   C28   S    
C9    C11   S    
C19   O4    D    
C9    C21   S    
C26   C27   S    
C16   O16   D    
Cu2   O11   S    
C1    C5    S    
Cu1   O12   S    
Cu2   O15   S    
C22   O7    D    
C17   H2    S    
C21   O6    D    
C4    C14   S    
C24   H8    S    
C8    O15   A    
C13   C26   S    
C11   C16   S    
C28   F1    S    
C28   F2    S    
C21   H6    S    
C3    O12   A    
C11   C24   S    
C2    C23   S    
C23   C30   T    
C10   C25   S    
C26   C29   S    
C19   H4    S    
C25   C30   S    
C14   C15   T    
C1    O1    A    
C2    O10   A    
C3    C12   S    
C11   C26   S    
C27   F3    S    
C24   O8    D    
Cu1   O10   S    
C8    C15   S    
C12   C29   T    
Cu1   Cu2   S    
C18   O3    D    
C10   C20   S    
C4    C5    T    
C27   C28   S    
Cu1   N2    S    
C3    O13   A    
