data_mof_unit_29025.cif
_audit_creation_date              2012-12-10T17:47:11-0500
_audit_creation_method            fapswitch 2.2
_symmetry_space_group_name_H-M    P1
_symmetry_Int_Tables_number       1
_space_group_crystal_system       triclinic
_cell_length_a                    11.692609
_cell_length_b                    14.786012
_cell_length_c                    14.967617
_cell_angle_alpha                 63.8994
_cell_angle_beta                  104.731308
_cell_angle_gamma                 103.272444
_cell_volume                      2226.69746819

loop_
_atom_site_label
_atom_site_type_symbol
_atom_type_description
_atom_site_fract_x
_atom_site_fract_y
_atom_site_fract_z
_atom_type_partial_charge
C1    C     C_R   0.486170 0.119708 0.312508 0.871118
C2    C     C_R   0.513421 0.880241 0.687389 0.862861
C3    C     C_R   0.409511 0.322393 0.005172 -0.116239
C4    C     C_R   0.587834 0.676603 0.994153 -0.117484
C5    C     C_R   0.526981 0.464794 0.045748 -0.085432
C6    C     C_R   0.471106 0.534370 0.953026 -0.084438
C7    C     C_R   0.373880 0.495944 0.894249 0.476451
C8    C     C_R   0.624385 0.503217 0.104410 0.475629
C9    C     C_R   0.353427 0.392690 0.914791 -0.080077
C10   C     C_R   0.644410 0.606341 0.084242 -0.076151
C11   C     C_R   0.709299 0.288776 0.659025 -0.380538
C12   C     C_R   0.291794 0.712709 0.339271 -0.319056
C13   C     C_R   0.675987 0.205165 0.631645 0.699662
C14   C     C_R   0.323541 0.793926 0.369261 0.714442
C15   C     C_R   0.512059 0.284646 0.512035 0.048091
C16   C     C_R   0.487993 0.715417 0.487442 0.039712
C17   C     C_R   0.548363 0.374174 0.530473 0.015395
C18   C     C_R   0.451463 0.626161 0.468384 0.015603
C19   C     C_R   0.644005 0.371021 0.610651 0.044088
C20   C     C_R   0.356314 0.629955 0.387587 0.022130
C21   C     C_R   0.488696 0.463288 0.477845 -0.071063
C22   C     C_R   0.510830 0.536997 0.520855 -0.068086
C23   C     C_R   0.284152 0.999771 0.499757 0.817976
C24   C     C_R   0.715849 0.000212 0.500269 0.826987
C25   C     C_R   0.590601 0.517523 0.614717 0.402877
C26   C     C_R   0.409049 0.482984 0.383796 0.406375
C27   C     C_R   0.666298 0.444334 0.649712 -0.185370
C28   C     C_R   0.334076 0.556938 0.348220 -0.176572
C29   C     C_1   0.162193 0.999223 0.499736 -0.151441
C30   C     C_1   0.837794 0.000751 0.500275 -0.150005
C31   C     C_1   0.059777 0.999573 0.499887 0.011146
C32   C     C_1   0.940201 0.000375 0.500123 0.007086
C33   C     C_R   0.478990 0.186855 0.203795 -0.263012
C34   C     C_R   0.519387 0.812662 0.795820 -0.279773
C35   C     C_R   0.390092 0.216037 0.029660 0.347045
C36   C     C_R   0.606445 0.782805 0.970117 0.360070
C37   C     C_R   0.442668 0.150393 0.126804 0.324025
C38   C     C_R   0.554215 0.848657 0.873075 0.326570
C39   C     C_R   0.507245 0.290777 0.176253 -0.155038
C40   C     C_R   0.491023 0.708727 0.822882 -0.152744
C41   C     C_R   0.485369 0.359412 0.075525 0.009074
C42   C     C_R   0.512461 0.639780 0.923520 0.008569
Cu1   Cu    Cu3+1 0.469550 0.918260 0.475690 1.047788
Cu2   Cu    Cu3+1 0.530450 0.081740 0.524310 1.063112
H1    H     H_    0.288152 0.369252 0.861028 0.228476
H2    H     H_    0.709718 0.629744 0.138024 0.228332
H3    H     H_    0.456116 0.682350 0.763894 0.283020
H4    H     H_    0.542718 0.317375 0.235019 0.282260
H5    H     H_    0.731864 0.435095 0.717977 0.181406
H6    H     H_    0.268846 0.566680 0.279689 0.181710
H7    H     H_    0.569637 0.723858 0.537472 0.193881
H8    H     H_    0.430532 0.275995 0.461997 0.193591
H9    H     H_    0.782388 0.289514 0.719929 0.141899
H10   H     H_    0.219952 0.715919 0.276233 0.162432
N1    N     N_R   0.576230 0.204580 0.560790 -0.225060
N2    N     N_R   0.423770 0.795420 0.439210 -0.234259
O1    O     O_R   0.459870 0.022090 0.338120 -0.490933
O2    O     O_R   0.540130 0.977910 0.661880 -0.489666
O3    O     O_R   0.511290 0.160150 0.379180 -0.581435
O4    O     O_R   0.488710 0.839850 0.620820 -0.579452
O5    O     O_R   0.311490 0.930960 0.479480 -0.576349
O6    O     O_R   0.688510 0.069040 0.520520 -0.550405
O7    O     O_R   0.362910 0.069020 0.520540 -0.561328
O8    O     O_R   0.637090 0.930980 0.479460 -0.571466
S1    S     S_3+6 0.567920 0.549675 0.708786 -0.043929
O9    O     O_2   0.652899 0.641919 0.712121 -0.369832
O10   O     O_2   0.441154 0.569285 0.686092 -0.279887
O11   O     O_3   0.591408 0.451436 0.822001 -0.526344
H11   H     H_    0.637507 0.482078 0.869636 0.353658
S2    S     S_3+6 0.431070 0.449811 0.290222 -0.041944
O12   O     O_2   0.557812 0.430186 0.312794 -0.280029
O13   O     O_2   0.346019 0.357281 0.287820 -0.369710
O14   O     O_3   0.407143 0.547393 0.176566 -0.521285
H12   H     H_    0.360219 0.516287 0.129530 0.353366
S3    S     S_3+6 0.489914 0.952976 0.859075 0.104055
O15   O     O_2   0.381370 0.969371 0.777138 -0.313925
O16   O     O_2   0.452208 0.929384 0.956599 -0.162057
O17   O     O_3   0.588293 0.059659 0.829512 -0.466025
H13   H     H_    0.545165 0.112962 0.823557 0.393517
S4    S     S_3+6 0.503865 0.044178 0.141759 0.102849
O18   O     O_2   0.414124 0.950046 0.169977 -0.195549
O19   O     O_2   0.539705 0.065022 0.044293 -0.185172
O20   O     O_3   0.626294 0.025519 0.232459 -0.563128
H14   H     H_    0.651771 0.963218 0.238769 0.379967
S5    S     S_3+6 0.298875 0.166335 0.941552 0.036461
O21   O     O_2   0.177500 0.199580 0.911900 -0.351063
O22   O     O_2   0.355476 0.208116 0.849108 -0.252278
O23   O     O_3   0.279744 0.038778 0.988682 -0.432876
H15   H     H_    0.232728 0.021414 0.931850 0.382566
S6    S     S_3+6 0.697404 0.832260 0.058240 0.029940
O24   O     O_2   0.642088 0.788989 0.151517 -0.245255
O25   O     O_2   0.819135 0.800169 0.086092 -0.364127
O26   O     O_3   0.714725 0.959715 0.011825 -0.436283
H16   H     H_    0.762609 0.976989 0.068481 0.371609
O27   O     O_3   0.297587 0.557658 0.815440 -0.561467
C43   C     C_3   0.214010 0.577662 0.855628 0.028427
H17   H     H_    0.258798 0.611660 0.911140 0.157335
H18   H     H_    0.155063 0.506449 0.892965 0.151072
C44   C     C_3   0.137053 0.653131 0.770026 -0.703681
H19   H     H_    0.089279 0.621211 0.713754 0.250425
H20   H     H_    0.070448 0.669321 0.800456 0.206837
H21   H     H_    0.193874 0.725302 0.732188 0.248752
O28   O     O_3   0.701154 0.441626 0.182814 -0.561129
C45   C     C_3   0.784036 0.421572 0.142004 0.025554
H22   H     H_    0.842599 0.492815 0.104090 0.151121
H23   H     H_    0.738608 0.387297 0.086827 0.156739
C46   C     C_3   0.861655 0.346397 0.227219 -0.694912
H24   H     H_    0.805221 0.274194 0.265609 0.250620
H25   H     H_    0.927729 0.330186 0.196292 0.205234
H26   H     H_    0.910066 0.378594 0.283144 0.252140
O29   O     O_3   0.266131 0.879833 0.319041 -0.533714
C47   C     C_3   0.140568 0.856415 0.312155 -0.008088
H27   H     H_    0.112120 0.895774 0.349543 0.178372
H28   H     H_    0.106716 0.774185 0.350281 0.124892
C48   C     C_3   0.081197 0.897551 0.201533 -0.645551
H29   H     H_    0.102786 0.856740 0.162217 0.258483
H30   H     H_    0.982990 0.887107 0.196132 0.235208
H31   H     H_    0.112908 0.979946 0.163767 0.264383
O30   O     O_3   0.733443 0.118506 0.678030 -0.539180
C49   C     C_3   0.846972 0.129535 0.736657 0.059865
H32   H     H_    0.837912 0.134111 0.806716 0.196687
H33   H     H_    0.905168 0.197466 0.692388 0.144428
C50   C     C_3   0.906417 0.036058 0.768505 -0.667403
H34   H     H_    0.918083 0.028730 0.700737 0.230767
H35   H     H_    0.995374 0.042999 0.815785 0.226940
H36   H     H_    0.850520 0.966734 0.813050 0.255537

loop_
_geom_bond_atom_site_label_1
_geom_bond_atom_site_label_2
_ccdc_geom_bond_type
C40   H3    S    
C14   N2    A    
C21   C26   A    
C4    C36   A    
C9    H1    S    
O26   H16   S    
C11   C13   A    
O14   H12   S    
O27   C43   S    
C16   H7    S    
Cu1   Cu2   S    
C47   H28   S    
C1    C33   S    
C50   H34   S    
C39   C41   A    
S5    O21   D    
C11   C19   A    
C33   C39   A    
C34   C40   A    
C23   C29   S    
C35   C37   A    
C1    O3    A    
C5    C6    A    
C2    O4    A    
C50   H35   S    
Cu2   O3    S    
C48   H29   S    
C43   C44   S    
C15   C17   A    
C45   H22   S    
C28   H6    S    
C31   C32   S    
Cu2   O2    S    
O11   H11   S    
C48   H30   S    
C22   C25   A    
C43   H18   S    
C10   H2    S    
C46   H24   S    
S2    O12   D    
C19   C27   A    
C11   H9    S    
C49   C50   S    
C48   H31   S    
C2    C34   S    
C23   O7    A    
C24   O8    A    
C34   C38   A    
C21   C22   A    
C46   H25   S    
S4    O20   S    
C45   H23   S    
C47   H27   S    
C13   O30   S    
C49   H33   S    
Cu1   O8    S    
C24   C30   S    
C38   S3    S    
S5    O22   D    
Cu2   O7    S    
C14   O29   S    
C37   S4    S    
C25   S1    S    
S4    O19   D    
O17   H13   S    
C50   H36   S    
C20   C28   A    
S1    O10   D    
S3    O17   S    
C17   C21   A    
C15   N1    A    
S3    O15   D    
C16   N2    A    
C3    C9    A    
C1    O1    A    
S6    O25   D    
O20   H14   S    
C3    C35   A    
S1    O11   S    
C43   H17   S    
C12   C20   A    
S2    O14   S    
C15   H8    S    
S3    O16   D    
Cu1   O4    S    
C8    C10   A    
C44   H20   S    
C12   C14   A    
C26   S2    S    
C46   H26   S    
C4    C10   A    
C49   H32   S    
Cu1   O5    S    
S6    O26   S    
S5    O23   S    
C36   S6    S    
C7    C9    A    
C5    C41   A    
C3    C41   A    
C24   O6    A    
O29   C47   S    
C18   C22   A    
S4    O18   D    
C5    C8    A    
O30   C49   S    
C2    O2    A    
C6    C7    A    
C25   C27   A    
C7    O27   S    
C26   C28   A    
C44   H19   S    
Cu2   O6    S    
C36   C38   A    
C29   C31   T    
C30   C32   T    
C35   S5    S    
Cu2   N1    S    
S6    O24   D    
C4    C42   A    
C40   C42   A    
C17   C19   A    
C18   C20   A    
C47   C48   S    
C8    O28   S    
C33   C37   A    
Cu1   O1    S    
Cu1   N2    S    
C23   O5    A    
C44   H21   S    
O23   H15   S    
C16   C18   A    
S1    O9    D    
C6    C42   A    
O28   C45   S    
S2    O13   D    
C45   C46   S    
C12   H10   S    
C27   H5    S    
C39   H4    S    
C13   N1    A    
