data_mof_unit_37085.cif
_audit_creation_date              2013-03-05T15:40:40-0500
_audit_creation_method            fapswitch 2.2
_symmetry_space_group_name_H-M    P1
_symmetry_Int_Tables_number       1
_space_group_crystal_system       triclinic
_cell_length_a                    18.920198
_cell_length_b                    11.147272
_cell_length_c                    18.760746
_cell_angle_alpha                 89.559673
_cell_angle_beta                  91.063008
_cell_angle_gamma                 89.456469
_cell_volume                      3955.82128264

loop_
_atom_site_label
_atom_site_type_symbol
_atom_site_description
_atom_site_fract_x
_atom_site_fract_y
_atom_site_fract_z
_atom_type_partial_charge
O1    O     O_R   0.043230 0.549300 0.667990 -0.507915
O2    O     O_R   0.956770 0.549300 0.332010 -0.481722
O3    O     O_R   0.543230 0.049300 0.667990 -0.501897
O4    O     O_R   0.456770 0.049300 0.332010 -0.483272
O5    O     O_R   0.178620 0.457600 0.674100 -0.505630
O6    O     O_R   0.821380 0.457600 0.325900 -0.512262
O7    O     O_R   0.678620 0.957600 0.674100 -0.511114
O8    O     O_R   0.321380 0.957600 0.325900 -0.517396
C1    C     C_R   0.240338 0.464191 0.649620 0.582431
C2    C     C_R   0.760849 0.465838 0.352694 0.560340
C3    C     C_R   0.740498 0.963691 0.649854 0.584064
C4    C     C_R   0.261703 0.968136 0.353165 0.559387
O9    O     O_R   0.284680 0.542100 0.669460 -0.507463
O10   O     O_R   0.715320 0.542100 0.330540 -0.476024
O11   O     O_R   0.784680 0.042100 0.669460 -0.510395
O12   O     O_R   0.215320 0.042100 0.330540 -0.477882
O13   O     O_R   0.262860 0.790390 0.676650 -0.435671
O14   O     O_R   0.737140 0.790390 0.323350 -0.404428
O15   O     O_R   0.762860 0.290390 0.676650 -0.427419
O16   O     O_R   0.237140 0.290390 0.323350 -0.404643
C5    C     C_R   0.226251 0.873292 0.647858 0.629517
C6    C     C_R   0.771951 0.876776 0.350128 0.596858
C7    C     C_R   0.706521 0.327224 0.640833 0.612432
C8    C     C_R   0.271754 0.377275 0.349799 0.600727
O17   O     O_R   0.167460 0.907030 0.670940 -0.547015
O18   O     O_R   0.832540 0.907030 0.329060 -0.548868
O19   O     O_R   0.667460 0.407030 0.670940 -0.536747
O20   O     O_R   0.332540 0.407030 0.329060 -0.550468
O21   O     O_R   0.053950 0.750220 0.675100 -0.518672
O22   O     O_R   0.946050 0.750220 0.324900 -0.510044
O23   O     O_R   0.553950 0.250220 0.675100 -0.538669
O24   O     O_R   0.446050 0.250220 0.324900 -0.512570
C9    C     C_R   0.028369 0.656820 0.645081 0.588118
C10   C     C_R   0.973060 0.653323 0.353394 0.582215
C11   C     C_R   0.528188 0.156837 0.645260 0.581786
C12   C     C_R   0.472852 0.153123 0.353615 0.576751
O25   O     O_R   0.043300 0.547370 0.827390 -0.553814
O26   O     O_R   0.956700 0.547370 0.172610 -0.543534
O27   O     O_R   0.543300 0.047370 0.827390 -0.539473
O28   O     O_R   0.456700 0.047370 0.172610 -0.552678
O29   O     O_R   0.178690 0.455820 0.821860 -0.521932
O30   O     O_R   0.821310 0.455820 0.178140 -0.527091
O31   O     O_R   0.678690 0.955820 0.821860 -0.522442
O32   O     O_R   0.321310 0.955820 0.178140 -0.521462
C13   C     C_R   0.224418 0.518680 0.858124 0.594579
C14   C     C_R   0.775204 0.518731 0.141358 0.592252
C15   C     C_R   0.724446 0.018695 0.858156 0.592910
C16   C     C_R   0.275214 0.018666 0.141381 0.596346
O33   O     O_R   0.284750 0.540170 0.828860 -0.499216
O34   O     O_R   0.715250 0.540170 0.171140 -0.488780
O35   O     O_R   0.784750 0.040170 0.828860 -0.486875
O36   O     O_R   0.215250 0.040170 0.171140 -0.500805
O37   O     O_R   0.262920 0.788600 0.824420 -0.467892
O38   O     O_R   0.737080 0.788600 0.175580 -0.475436
O39   O     O_R   0.762920 0.288600 0.824420 -0.459866
O40   O     O_R   0.237080 0.288600 0.175580 -0.478127
C17   C     C_R   0.229294 0.876409 0.851323 0.590668
C18   C     C_R   0.770667 0.876788 0.148715 0.575594
C19   C     C_R   0.729291 0.376520 0.851327 0.601943
C20   C     C_R   0.270659 0.376715 0.148736 0.576351
O41   O     O_R   0.167530 0.905110 0.830340 -0.518635
O42   O     O_R   0.832470 0.905110 0.169660 -0.523871
O43   O     O_R   0.667530 0.405110 0.830340 -0.520408
O44   O     O_R   0.332470 0.405110 0.169660 -0.516796
O45   O     O_R   0.054010 0.748440 0.822860 -0.466296
O46   O     O_R   0.945990 0.748440 0.177140 -0.500191
O47   O     O_R   0.554010 0.248440 0.822860 -0.499245
O48   O     O_R   0.445990 0.248440 0.177140 -0.465997
C21   C     C_R   0.027914 0.652587 0.849134 0.568846
C22   C     C_R   0.970248 0.651802 0.149310 0.520259
C23   C     C_R   0.529682 0.151805 0.850610 0.528372
C24   C     C_R   0.472074 0.152532 0.150764 0.562532
Cr1   Cr    Cr6+3 0.113970 0.508630 0.747920 1.010617
Cr2   Cr    Cr6+3 0.886030 0.508630 0.252080 1.018331
Cr3   Cr    Cr6+3 0.613970 0.008630 0.747920 1.002747
Cr4   Cr    Cr6+3 0.386030 0.008630 0.252080 1.023254
Cr5   Cr    Cr6+3 0.269200 0.666740 0.749850 1.089059
Cr6   Cr    Cr6+3 0.730800 0.666740 0.250150 1.108380
Cr7   Cr    Cr6+3 0.769200 0.166740 0.749850 1.089431
Cr8   Cr    Cr6+3 0.230800 0.166740 0.250150 1.102008
Cr9   Cr    Cr6+3 0.112300 0.820070 0.749800 1.033266
Cr10  Cr    Cr6+3 0.887700 0.820070 0.250200 1.011451
Cr11  Cr    Cr6+3 0.612300 0.320070 0.749800 1.002885
Cr12  Cr    Cr6+3 0.387700 0.320070 0.250200 1.032171
O49   O     O_3   0.165160 0.665150 0.749190 -0.284837
O50   O     O_3   0.834840 0.665150 0.250810 -0.285237
O51   O     O_3   0.665160 0.165150 0.749190 -0.307170
O52   O     O_3   0.334840 0.165150 0.250810 -0.289614
C25   C     C_2   0.238540 0.901048 0.574885 -0.025025
C26   C     C_2   0.746249 0.928015 0.415076 0.001194
C27   C     C_2   0.713418 0.352208 0.565328 -0.029856
C28   C     C_2   0.245303 0.430520 0.413827 0.004205
C29   C     C_2   0.261290 0.934383 0.426032 -0.134099
C30   C     C_2   0.753645 0.897973 0.586063 -0.095017
C31   C     C_2   0.755344 0.421613 0.424493 -0.149474
C32   C     C_2   0.252891 0.399822 0.585405 -0.118523
C33   C     C_2   0.221905 0.847128 0.450484 -0.177425
C34   C     C_2   0.705765 0.907920 0.533577 -0.130201
C35   C     C_2   0.736301 0.310212 0.440745 -0.178871
C36   C     C_2   0.205699 0.414067 0.532575 -0.151744
C37   C     C_2   0.231199 0.814541 0.525342 0.231535
C38   C     C_2   0.721500 0.855189 0.465420 0.277264
C39   C     C_2   0.735270 0.273428 0.516521 0.224272
C40   C     C_2   0.220328 0.359253 0.464778 0.273578
H1    H     H_    0.189164 0.793415 0.415117 0.147426
H2    H     H_    0.657836 0.961802 0.538478 0.146039
H3    H     H_    0.725261 0.245353 0.399190 0.141912
H4    H     H_    0.159221 0.471579 0.537264 0.152968
H5    H     H_    0.300792 0.977279 0.459941 0.121775
H6    H     H_    0.804453 0.853884 0.578448 0.120031
H7    H     H_    0.773951 0.481996 0.465790 0.135947
H8    H     H_    0.302663 0.352250 0.578078 0.127770
H9    H     H_    0.237245 0.994619 0.560751 0.059817
H10   H     H_    0.752237 0.023454 0.423793 0.089535
H11   H     H_    0.692257 0.437677 0.547702 0.051928
H12   H     H_    0.250829 0.526493 0.421478 0.069654
C41   C     C_R   0.009288 0.656698 0.423837 0.037234
C42   C     C_R   0.996273 0.671332 0.572292 0.028303
C43   C     C_R   0.508386 0.155758 0.424492 0.039751
C44   C     C_R   0.495324 0.171472 0.572881 0.030576
C45   C     C_R   0.039876 0.866759 0.416687 -0.098070
C46   C     C_R   0.013098 0.892185 0.561552 -0.085513
C47   C     C_R   0.540317 0.365232 0.417158 -0.092443
C48   C     C_R   0.512409 0.391874 0.561732 -0.094202
C49   C     C_R   0.047799 0.976897 0.448545 -0.111105
C50   C     C_R   0.033587 0.990047 0.520524 -0.108768
C51   C     C_R   0.547399 0.475835 0.448640 -0.114096
C52   C     C_R   0.532791 0.489518 0.520528 -0.109936
C53   C     C_R   0.009430 0.776876 0.531351 0.010510
C54   C     C_R   0.018771 0.767069 0.456882 0.010896
C55   C     C_R   0.508840 0.276469 0.531741 0.000027
C56   C     C_R   0.518561 0.266046 0.457394 0.009873
H13   H     H_    0.065356 0.051514 0.416629 0.189947
H14   H     H_    0.039437 0.076053 0.544774 0.172406
H15   H     H_    0.564305 0.550544 0.416416 0.190335
H16   H     H_    0.538130 0.575754 0.544624 0.174805
H17   H     H_    0.052954 0.858862 0.360937 0.123797
H18   H     H_    0.998734 0.909005 0.616056 0.140389
H19   H     H_    0.553716 0.356897 0.361516 0.129846
H20   H     H_    0.497886 0.408882 0.616181 0.142553
C57   C     C_R   0.981693 0.563895 0.535949 -0.090763
C58   C     C_R   0.006611 0.551900 0.466405 -0.088359
C59   C     C_R   0.479779 0.064173 0.536918 -0.090852
C60   C     C_R   0.504484 0.051131 0.467349 -0.092693
C61   C     C_R   0.953393 0.463438 0.571302 0.193518
C62   C     C_R   0.021348 0.435675 0.439546 0.186134
C63   C     C_R   0.451063 0.964646 0.572913 0.191099
C64   C     C_R   0.519204 0.934295 0.441334 0.186734
C65   C     C_R   0.969672 0.348684 0.545674 0.240560
C66   C     C_R   0.994029 0.335755 0.476028 0.229704
C67   C     C_R   0.466498 0.849207 0.547782 0.236904
C68   C     C_R   0.492236 0.834945 0.478758 0.230831
C69   C     C_2   0.258766 0.937006 0.913540 -0.116609
C70   C     C_2   0.740690 0.939347 0.086603 -0.128511
C71   C     C_2   0.758762 0.437899 0.913378 -0.123222
C72   C     C_2   0.240685 0.438594 0.086483 -0.121366
C73   C     C_2   0.269958 0.989335 0.066136 -0.070800
C74   C     C_2   0.729491 0.990683 0.933834 -0.093679
C75   C     C_2   0.769758 0.489674 0.066033 -0.091720
C76   C     C_2   0.229189 0.490543 0.933751 -0.071830
C77   C     C_2   0.232983 0.060130 0.020124 0.238807
C78   C     C_2   0.766131 0.061429 0.978910 0.219856
C79   C     C_2   0.732953 0.561000 0.020136 0.219883
C80   C     C_2   0.266202 0.560540 0.978909 0.238880
C81   C     C_2   0.221085 0.023302 0.945338 -0.142063
C82   C     C_2   0.778159 0.024642 0.054115 -0.161013
C83   C     C_2   0.720659 0.523475 0.945383 -0.161385
C84   C     C_2   0.277795 0.524478 0.054144 -0.141493
H21   H     H_    0.175441 0.061907 0.917512 0.153925
H22   H     H_    0.823923 0.061364 0.081547 0.154170
H23   H     H_    0.674476 0.560530 0.917772 0.153853
H24   H     H_    0.323102 0.562564 0.081711 0.154731
H25   H     H_    0.294604 0.906040 0.049796 0.070144
H26   H     H_    0.705450 0.907855 0.951173 0.067706
H27   H     H_    0.793715 0.405855 0.049613 0.065391
H28   H     H_    0.204152 0.408573 0.951062 0.072252
H29   H     H_    0.308251 0.903521 0.936182 0.122179
H30   H     H_    0.690990 0.908107 0.064524 0.114458
H31   H     H_    0.808715 0.406046 0.935706 0.113437
H32   H     H_    0.191399 0.405909 0.064162 0.121743
C85   C     C_2   0.986054 0.663543 0.912885 0.312681
C86   C     C_2   0.996682 0.655827 0.076596 0.318307
C87   C     C_2   0.503248 0.155317 0.923310 0.317123
C88   C     C_2   0.513921 0.163654 0.086893 0.310935
C89   C     C_2   0.964325 0.580354 0.030854 -0.099086
C90   C     C_2   0.984111 0.568882 0.957175 -0.124725
C91   C     C_2   0.517495 0.068732 0.043639 -0.125100
C92   C     C_2   0.536676 0.079944 0.969629 -0.099429
H33   H     H_    0.925468 0.516305 0.049020 0.080336
H34   H     H_    0.000903 0.480032 0.940639 0.093051
H35   H     H_    0.502398 0.979684 0.061289 0.094012
H36   H     H_    0.576053 0.015807 0.951761 0.077624
O53   O     O_3   0.047344 0.736144 0.052613 -0.536839
C93   C     C_3   0.094619 0.769661 0.107805 -0.098804
H37   H     H_    0.116368 0.690056 0.137330 0.107642
H38   H     H_    0.069000 0.833537 0.144676 0.136660
H39   H     H_    0.139883 0.816617 0.083698 0.153473
O54   O     O_3   0.961747 0.775710 0.933019 -0.526016
C94   C     C_3   0.888649 0.782483 0.917440 -0.104904
H40   H     H_    0.858768 0.715677 0.949047 0.124127
H41   H     H_    0.877596 0.770870 0.859402 0.127501
H42   H     H_    0.869150 0.872695 0.932268 0.156832
O55   O     O_3   0.536452 0.276074 0.065559 -0.523601
C95   C     C_3   0.609620 0.283443 0.080211 -0.107602
H43   H     H_    0.640092 0.217241 0.048636 0.123565
H44   H     H_    0.621539 0.271363 0.138192 0.117035
H45   H     H_    0.627626 0.374019 0.064616 0.156189
O56   O     O_3   0.451631 0.235405 0.946723 -0.538636
C96   C     C_3   0.404350 0.270145 0.891154 -0.094119
H46   H     H_    0.383419 0.191147 0.861845 0.118057
H47   H     H_    0.429636 0.334353 0.854161 0.138858
H48   H     H_    0.358569 0.317112 0.914835 0.153600
O57   O     O_3   0.239474 0.694418 0.542133 -0.570597
C97   C     C_3   0.312101 0.666425 0.534991 -0.052992
H49   H     H_    0.337585 0.714263 0.490411 0.109569
H50   H     H_    0.319600 0.570258 0.524035 0.118656
H51   H     H_    0.340252 0.686317 0.585443 0.240043
O58   O     O_3   0.725456 0.731497 0.456911 -0.535031
C98   C     C_3   0.675583 0.673474 0.499325 -0.095950
H52   H     H_    0.696228 0.661400 0.554782 0.128601
H53   H     H_    0.666440 0.585156 0.476095 0.139841
H54   H     H_    0.623618 0.720598 0.498589 0.157521
O59   O     O_3   0.753383 0.157498 0.535196 -0.601975
C99   C     C_3   0.827655 0.147346 0.535371 -0.058238
H55   H     H_    0.852749 0.199354 0.492514 0.135978
H56   H     H_    0.843491 0.052568 0.527610 0.126773
H57   H     H_    0.848364 0.176395 0.587777 0.243627
O60   O     O_3   0.224117 0.235154 0.457784 -0.532304
C100  C     C_3   0.172088 0.179926 0.498891 -0.092537
H58   H     H_    0.187046 0.180001 0.556405 0.108895
H59   H     H_    0.167336 0.086493 0.481451 0.141168
H60   H     H_    0.119692 0.223105 0.490611 0.172355
N1    N     N_R   0.068882 0.418994 0.380354 0.085522
O61   O     O_R   0.103282 0.509295 0.354194 -0.391119
O62   O     O_R   0.087789 0.312014 0.360543 -0.330575
N2    N     N_R   0.907265 0.479566 0.631264 0.092011
O63   O     O_R   0.871711 0.579309 0.637833 -0.370127
O64   O     O_R   0.894031 0.391702 0.674811 -0.312855
N3    N     N_R   0.567031 0.916449 0.382522 0.089941
O65   O     O_R   0.602724 0.005799 0.357016 -0.391768
O66   O     O_R   0.584776 0.809063 0.362411 -0.327298
N4    N     N_R   0.405974 0.982642 0.633497 0.082210
O67   O     O_R   0.370739 0.082781 0.639740 -0.390233
O68   O     O_R   0.394465 0.896884 0.679038 -0.330384
O69   O     O_3   0.964365 0.248391 0.588745 -0.576207
C101  C     C_3   0.022098 0.246022 0.637850 -0.087735
H61   H     H_    0.022399 0.158646 0.666569 0.114948
H62   H     H_    0.017545 0.317230 0.678497 0.185536
H63   H     H_    0.073652 0.254478 0.610802 0.078914
O70   O     O_3   0.991105 0.223951 0.445075 -0.574768
C102  C     C_3   0.941653 0.225455 0.387365 -0.091104
H64   H     H_    0.967803 0.245833 0.336393 0.172247
H65   H     H_    0.897005 0.289925 0.394254 0.111996
H66   H     H_    0.918671 0.134601 0.382438 0.131200
O71   O     O_3   0.459021 0.749293 0.590811 -0.567587
C103  C     C_3   0.517306 0.742646 0.639176 -0.079751
H67   H     H_    0.515508 0.655653 0.668174 0.114480
H68   H     H_    0.515459 0.814664 0.679575 0.184309
H69   H     H_    0.568750 0.746760 0.611522 0.076993
O72   O     O_3   0.490847 0.722165 0.449169 -0.568854
C104  C     C_3   0.440055 0.718709 0.392748 -0.085287
H70   H     H_    0.466283 0.725309 0.340521 0.168868
H71   H     H_    0.398250 0.789652 0.395191 0.107326
H72   H     H_    0.413344 0.630513 0.394467 0.131765
O73   O     O_3   0.203688 0.166762 0.044388 -0.558260
C105  C     C_3   0.129321 0.165955 0.036148 -0.113215
H73   H     H_    0.106133 0.076107 0.046833 0.134590
H74   H     H_    0.113334 0.199125 0.982212 0.102895
H75   H     H_    0.106514 0.228847 0.075274 0.137348
O74   O     O_3   0.794672 0.167383 0.952988 -0.558322
C106  C     C_3   0.868106 0.172708 0.967572 -0.117135
H76   H     H_    0.895091 0.083776 0.963707 0.133425
H77   H     H_    0.878122 0.213113 0.020686 0.099325
H78   H     H_    0.892302 0.232340 0.927398 0.137399
O75   O     O_3   0.704767 0.668422 0.044820 -0.557134
C107  C     C_3   0.631484 0.677276 0.029613 -0.118264
H79   H     H_    0.603962 0.589756 0.034580 0.130571
H80   H     H_    0.622078 0.717380 0.975864 0.101561
H81   H     H_    0.607366 0.738689 0.068752 0.135164
O76   O     O_3   0.296154 0.665384 0.953377 -0.559233
C108  C     C_3   0.370578 0.660020 0.960729 -0.110719
H82   H     H_    0.392759 0.568847 0.950431 0.136764
H83   H     H_    0.387551 0.691920 0.014231 0.102388
H84   H     H_    0.393495 0.721740 0.920864 0.138845

loop_
_geom_bond_atom_site_label_1
_geom_bond_atom_site_label_2
_geom_bond_distance
_ccdc_geom_bond_type
C18   O42   1.270132 A    
C106  H78   1.109227 S    
Cr11  O51   1.987621 S    
O55   C95   1.409655 S    
O4    C12   1.267145 A    
O47   Cr11  1.946420 S    
C87   O56   1.396119 S    
O39   C19   1.275882 A    
C47   C56   1.403227 A    
O20   Cr12  2.068293 S    
C64   N3    1.453550 S    
C58   C62   1.420775 A    
C93   H38   1.110816 S    
N3    O65   1.301722 A    
C36   C40   1.445517 S    
C45   C54   1.403477 A    
C60   C64   1.421241 A    
C42   C57   1.409660 A    
C99   H55   1.104628 S    
C21   C85   1.451966 S    
O26   C22   1.270427 A    
C89   C90   1.445062 S    
O1    C9    1.296732 A    
C102  H64   1.107789 S    
C105  H75   1.109249 S    
C5    C25   1.425029 S    
O57   C97   1.415226 S    
C108  H84   1.109286 S    
C59   C63   1.412678 A    
C73   H25   1.083978 S    
C13   C76   1.451704 S    
O5    C1    1.265267 A    
C32   C36   1.329226 D    
C76   C80   1.347394 D    
C65   O69   1.379923 S    
C25   C37   1.350785 D    
C51   H15   1.079739 S    
C75   C79   1.347313 D    
C100  H60   1.105729 S    
O25   C21   1.277529 A    
C52   H16   1.070272 S    
O35   Cr7   2.053826 S    
O26   Cr2   2.066920 S    
C104  H70   1.108743 S    
C97   H50   1.101430 S    
C102  H65   1.113875 S    
C93   H39   1.109586 S    
O46   Cr10  1.946475 S    
C30   C34   1.328846 D    
C59   C60   1.402626 A    
C44   C55   1.424818 A    
C103  H69   1.112586 S    
C47   H19   1.083262 S    
O8    Cr4   1.949799 S    
C96   H48   1.109510 S    
O23   Cr11  1.940297 S    
N2    O63   1.301894 A    
O30   C14   1.299066 A    
C38   O58   1.390720 S    
C45   H17   1.083279 S    
O32   Cr4   1.932210 S    
C12   C43   1.479449 S    
C1    O9    1.266430 A    
C26   C38   1.334989 D    
C40   O60   1.391880 S    
C5    O17   1.256462 A    
C18   C70   1.456480 S    
C39   O59   1.374930 S    
C62   C66   1.410163 A    
C3    O11   1.267047 A    
C74   H26   1.083545 S    
O11   Cr7   2.081267 S    
C4    O12   1.263790 A    
O21   C9    1.282143 A    
C37   O57   1.380023 S    
O56   C96   1.410553 S    
C103  H68   1.109034 S    
C94   H42   1.107169 S    
N4    O68   1.299828 A    
C67   C68   1.401566 A    
C107  H81   1.109185 S    
C66   O70   1.380150 S    
O54   C94   1.409466 S    
O6    Cr2   1.949799 S    
C7    O19   1.291275 A    
C14   C75   1.454231 S    
C15   O35   1.299086 A    
O3    Cr3   2.036935 S    
N1    O61   1.301697 A    
Cr4   O52   1.987279 S    
C46   C53   1.410481 A    
C91   H35   1.086462 S    
O2    Cr2   2.047685 S    
C57   C61   1.412001 A    
C48   C52   1.391794 A    
C33   H1    1.086438 S    
O2    C10   1.268816 A    
C10   C41   1.478329 S    
C26   H10   1.084305 S    
C93   H37   1.113845 S    
O42   Cr10  2.043105 S    
C62   N1    1.453847 S    
Cr5   O49   1.968515 S    
C94   H40   1.113313 S    
O18   Cr10  2.068293 S    
C88   O55   1.386046 S    
C75   H27   1.083948 S    
O69   C101  1.415732 S    
O17   Cr9   2.066913 S    
C43   C60   1.414771 A    
C76   H28   1.083598 S    
C11   C44   1.490118 S    
C44   C59   1.408567 A    
C85   O54   1.385775 S    
O34   Cr6   2.073218 S    
Cr7   O51   1.968515 S    
O60   C100  1.405410 S    
C71   H31   1.082326 S    
O7    C3    1.266089 A    
C25   H9    1.074210 S    
C81   H21   1.084571 S    
O4    Cr4   2.047685 S    
O24   Cr12  1.923170 S    
O16   Cr8   1.956094 S    
C101  H62   1.108815 S    
C36   H4    1.088621 S    
O73   C105  1.412771 S    
O30   Cr2   1.932210 S    
O22   C10   1.297733 A    
N2    O64   1.299775 A    
O48   Cr12  1.946475 S    
Cr12  O52   2.003889 S    
C80   C84   1.476517 S    
O32   C16   1.298335 A    
O76   C108  1.412965 S    
C46   H18   1.080219 S    
O59   C99   1.408663 S    
C35   C39   1.477062 S    
C2    O10   1.266823 A    
C77   O73   1.390155 S    
C98   H52   1.111279 S    
C104  H71   1.114969 S    
C78   C82   1.479204 S    
C97   H49   1.108742 S    
C102  H66   1.109784 S    
C79   O75   1.392234 S    
C63   N4    1.447797 S    
O70   C102  1.417658 S    
C34   C38   1.446220 S    
C17   C69   1.457667 S    
C30   H6    1.087789 S    
O13   C5    1.261683 A    
O28   Cr4   2.066920 S    
C48   C55   1.409764 A    
O43   Cr11  2.062984 S    
O48   C24   1.280079 A    
O12   Cr8   2.069471 S    
C86   C89   1.349237 D    
C46   C50   1.392471 A    
C79   C83   1.481435 S    
C20   C72   1.455016 S    
C87   C92   1.348838 D    
C45   C49   1.377852 A    
C100  H58   1.110434 S    
C27   C39   1.341666 D    
C23   C87   1.462080 S    
C98   H53   1.093680 S    
C107  H79   1.114309 S    
O39   Cr7   1.961855 S    
O3    C11   1.296538 A    
C68   O72   1.378470 S    
C28   C40   1.334284 D    
O45   Cr9   1.946420 S    
C95   H45   1.107603 S    
C13   O33   1.299314 A    
O8    C4    1.253055 A    
C103  H67   1.109380 S    
C22   C86   1.462154 S    
C96   H46   1.113825 S    
C6    C26   1.440420 S    
N3    O66   1.300784 A    
C86   O53   1.396039 S    
O29   C13   1.303607 A    
Cr2   O50   1.987279 S    
O15   Cr7   1.939545 S    
C41   C54   1.393561 A    
C28   H12   1.086287 S    
C1    C32   1.429432 S    
Cr1   O49   2.003667 S    
C32   H8    1.087834 S    
C105  H74   1.110346 S    
C89   H33   1.087149 S    
C88   C91   1.340362 D    
C3    C30   1.432427 S    
Cr3   O51   2.003667 S    
O14   Cr6   1.956094 S    
O75   C107  1.412755 S    
C95   H44   1.113688 S    
O21   Cr9   1.940297 S    
C82   H22   1.084251 S    
O27   Cr3   2.066406 S    
C70   H30   1.082161 S    
O9    Cr5   2.081267 S    
C77   C81   1.478724 S    
C49   C50   1.390360 A    
C8    C28   1.439893 S    
C8    O20   1.267257 A    
C7    C27   1.450038 S    
C4    C29   1.415263 S    
O27   C23   1.271889 A    
C9    C42   1.491209 S    
O71   C103  1.416052 S    
C99   H57   1.103644 S    
C73   C77   1.346856 D    
C47   C51   1.377782 A    
C71   C83   1.342418 D    
C99   H56   1.106880 S    
O15   C7    1.310433 A    
O31   Cr3   1.918588 S    
C67   O71   1.380423 S    
C53   C54   1.416399 A    
O38   C18   1.280773 A    
C84   H24   1.084598 S    
C49   H13   1.079665 S    
C106  H77   1.110500 S    
O25   Cr1   2.066406 S    
C101  H61   1.109376 S    
C78   O74   1.391445 S    
O37   C17   1.274870 A    
O22   Cr10  1.923170 S    
O28   C24   1.276832 A    
C69   C81   1.342053 D    
O14   C6    1.273063 A    
C24   C88   1.453566 S    
C69   H29   1.082825 S    
C48   H20   1.080427 S    
C70   C82   1.340892 D    
C64   C68   1.411342 A    
C107  H80   1.110526 S    
O72   C104  1.417388 S    
C92   H36   1.086950 S    
C97   H51   1.102504 S    
C43   C56   1.393298 A    
O6    C2    1.262071 A    
C104  H72   1.110221 S    
O7    Cr3   1.949243 S    
C85   C90   1.339251 D    
O24   C12   1.299761 A    
C17   O41   1.263662 A    
C51   C52   1.390969 A    
C108  H83   1.110289 S    
C35   H3    1.086118 S    
C16   C73   1.453284 S    
C14   O34   1.294780 A    
O47   C23   1.285679 A    
C19   O43   1.263329 A    
O40   Cr8   1.948478 S    
C19   C71   1.459325 S    
C83   H23   1.084215 S    
C20   O44   1.270374 A    
O1    Cr1   2.036935 S    
O33   Cr5   2.053826 S    
O19   Cr11  2.066913 S    
C41   C58   1.411849 A    
C108  H82   1.115492 S    
C91   C92   1.446410 S    
C100  H59   1.098104 S    
C42   C53   1.426509 A    
O41   Cr9   2.062984 S    
C65   C66   1.401547 A    
C98   H54   1.110124 S    
Cr10  O50   2.003889 S    
O13   Cr5   1.939545 S    
C72   H32   1.082562 S    
Cr6   O50   1.968176 S    
O58   C98   1.404777 S    
O46   C22   1.285252 A    
C34   H2    1.088643 S    
C2    C31   1.436762 S    
O45   C21   1.280389 A    
C63   C67   1.403845 A    
N4    O67   1.301932 A    
O23   C11   1.281810 A    
C96   H47   1.110863 S    
C29   C33   1.315809 D    
C27   H11   1.077208 S    
C31   C35   1.331029 D    
O10   Cr6   2.069471 S    
O5    Cr1   1.949243 S    
C55   C56   1.415784 A    
C15   C74   1.452566 S    
C33   C37   1.455002 S    
C57   C58   1.402396 A    
C105  H73   1.115486 S    
C74   C78   1.347785 D    
O29   Cr1   1.918588 S    
O40   C20   1.279915 A    
C16   O36   1.294890 A    
C61   C65   1.403512 A    
C95   H43   1.113206 S    
C50   H14   1.070162 S    
O44   Cr12  2.043105 S    
Cr8   O52   1.968176 S    
O53   C93   1.410576 S    
C6    O18   1.267347 A    
C61   N2    1.447763 S    
N1    O62   1.300728 A    
C94   H41   1.113684 S    
C72   C84   1.340612 D    
O74   C106  1.412984 S    
C80   O76   1.389428 S    
C31   H7    1.086122 S    
C90   H34   1.086534 S    
O37   Cr5   1.961855 S    
O36   Cr8   2.073218 S    
O31   C15   1.304358 A    
O16   C8    1.273006 A    
Cr9   O49   1.987621 S    
C106  H76   1.114258 S    
C29   H5    1.088922 S    
O38   Cr6   1.948478 S    
C101  H63   1.112294 S    
