data_mof_unit_64149.cif
_audit_creation_date              2012-10-26T17:20:27-0400
_audit_creation_method            fapswitch 2.2
_symmetry_space_group_name_H-M    P1
_symmetry_Int_Tables_number       1
_space_group_crystal_system       triclinic
_cell_length_a                    23.704138
_cell_length_b                    23.70414
_cell_length_c                    38.700869
_cell_angle_alpha                 90.000034
_cell_angle_beta                  90.000029
_cell_angle_gamma                 89.999986
_cell_volume                      21745.4844409

loop_
_atom_site_label
_atom_site_type_symbol
_atom_type_description
_atom_site_fract_x
_atom_site_fract_y
_atom_site_fract_z
_atom_type_partial_charge
C1    C     C_R   0.500000 0.108211 0.500000 0.555647
C2    C     C_R   1.000000 0.500000 0.395419 -0.022060
C3    C     C_R   0.515751 0.049640 0.841032 0.006062
C4    C     C_R   0.950365 0.484230 0.158967 0.006062
C5    C     C_R   0.484228 0.049635 0.158967 0.006062
C6    C     C_R   0.049635 0.515769 0.158967 0.006062
C7    C     C_R   0.515772 0.950365 0.158967 0.006062
C8    C     C_R   0.500000 0.000000 0.322904 0.040897
C9    C     C_R   1.000000 0.500000 0.322904 0.040897
C10   C     C_R   0.500001 0.999998 0.677095 0.040897
C11   C     C_R   1.000000 0.500000 0.677095 0.040897
C12   C     C_R   1.000000 0.500000 0.822904 0.040898
C13   C     C_R   0.500000 0.999999 0.604581 -0.022056
C14   C     C_R   0.499999 1.000000 0.822904 0.040899
C15   C     C_R   1.000000 0.500000 0.177096 0.040897
C16   C     C_R   0.500000 0.000000 0.177095 0.040897
C17   C     C_3   0.397868 0.034066 0.321044 -0.265933
C18   C     C_3   0.349581 0.058625 0.342548 -0.454443
C19   C     C_3   0.965930 0.397869 0.321044 -0.265934
C20   C     C_3   0.941371 0.349582 0.342548 -0.454444
C21   C     C_3   0.602132 0.965935 0.321044 -0.265933
C22   C     C_3   0.650420 0.941378 0.342548 -0.454442
C23   C     C_3   0.034070 0.602131 0.321045 -0.265933
C24   C     C_R   0.000000 0.500000 0.604581 -0.022060
C25   C     C_3   0.058629 0.650417 0.342548 -0.454444
C26   C     C_3   0.397887 0.965878 0.678955 -0.265933
C27   C     C_3   0.349617 0.941286 0.657452 -0.454442
C28   C     C_3   0.965931 0.602131 0.678955 -0.265933
C29   C     C_3   0.941370 0.650417 0.657452 -0.454444
C30   C     C_3   0.602116 0.034114 0.678955 -0.265934
C31   C     C_3   0.650391 0.058694 0.657451 -0.454444
C32   C     C_3   0.034069 0.397869 0.678955 -0.265933
C33   C     C_3   0.058630 0.349583 0.657452 -0.454444
C34   C     C_3   0.897866 0.534061 0.821044 -0.265935
C35   C     C_R   1.000000 0.500000 0.895419 -0.022061
C36   C     C_3   0.849577 0.558615 0.842548 -0.454446
C37   C     C_3   0.465970 0.897855 0.821044 -0.265934
C38   C     C_3   0.441433 0.849557 0.842547 -0.454443
C39   C     C_3   0.102133 0.465939 0.821044 -0.265934
C40   C     C_3   0.150422 0.441385 0.842548 -0.454445
C41   C     C_3   0.534027 0.102144 0.821044 -0.265935
C42   C     C_3   0.558562 0.150444 0.842547 -0.454444
C43   C     C_3   0.897867 0.465935 0.178955 -0.265933
C44   C     C_3   0.849579 0.441378 0.157452 -0.454443
C45   C     C_3   0.465930 0.102131 0.178955 -0.265933
C46   C     C_R   0.499999 1.000000 0.895419 -0.022063
C47   C     C_3   0.441371 0.150418 0.157452 -0.454444
C48   C     C_3   0.102133 0.534064 0.178955 -0.265933
C49   C     C_3   0.150420 0.558622 0.157452 -0.454443
C50   C     C_3   0.534069 0.897869 0.178955 -0.265933
C51   C     C_3   0.558628 0.849582 0.157452 -0.454444
C52   C     C_R   0.000000 0.500000 0.104581 -0.022060
C53   C     C_R   0.500000 1.000000 0.104581 -0.022060
C54   C     C_R   0.500000 0.000000 0.215093 0.315073
C55   C     C_R   1.000000 0.500000 0.215093 0.315072
C56   C     C_R   0.499999 0.999999 0.784906 0.315071
C57   C     C_R   0.891789 0.500000 0.500000 0.555648
C58   C     C_R   1.000000 0.500000 0.784907 0.315072
C59   C     C_R   0.000000 0.500000 0.715093 0.315074
C60   C     C_R   0.500001 0.999998 0.715093 0.315070
C61   C     C_R   1.000000 0.500000 0.284907 0.315072
C62   C     C_R   0.500000 0.000000 0.284907 0.315071
C63   C     C_R   0.392995 0.500000 0.500000 0.542854
C64   C     C_R   0.500000 0.392995 0.500000 0.542854
C65   C     C_R   0.607005 0.500000 0.500000 0.542854
C66   C     C_R   0.500000 0.607005 0.500000 0.542854
C67   C     C_R   0.892995 1.000000 0.000000 0.542854
C68   C     C_R   0.500000 0.891789 0.500000 0.555647
C69   C     C_R   0.000000 0.892995 0.000000 0.542854
C70   C     C_R   0.107005 0.000000 0.000000 0.542853
C71   C     C_R   1.000000 0.107005 0.000000 0.542853
C72   C     C_R   0.500000 0.000000 0.433446 0.549111
C73   C     C_R   1.000000 0.500000 0.433446 0.549111
C74   C     C_R   0.500000 1.000000 0.566554 0.549107
C75   C     C_R   0.000000 0.500000 0.566554 0.549110
C76   C     C_R   1.000000 0.500000 0.933446 0.549111
C77   C     C_R   0.500000 1.000000 0.933446 0.549113
C78   C     C_R   1.000000 0.500000 0.066554 0.549111
C79   C     C_R   0.108211 0.500000 0.500000 0.555648
C80   C     C_R   0.500000 0.000000 0.066554 0.549110
C81   C     C_1   0.500000 0.169333 0.500000 -0.019556
C82   C     C_1   0.830667 0.500000 0.500000 -0.019555
C83   C     C_1   0.500000 0.830667 0.500000 -0.019556
C84   C     C_1   0.169333 0.500000 0.500000 -0.019556
C85   C     C_1   1.000000 0.669333 1.000000 -0.019555
C86   C     C_1   0.330667 0.000000 0.000000 -0.019555
C87   C     C_1   0.000000 0.330667 0.000000 -0.019555
C88   C     C_1   0.669333 1.000000 0.000000 -0.019555
C89   C     C_1   0.500000 0.220539 0.500000 -0.034393
C90   C     C_R   0.000000 0.608211 0.000000 0.555648
C91   C     C_1   0.779461 0.500000 0.500000 -0.034392
C92   C     C_1   0.500000 0.779461 0.500000 -0.034393
C93   C     C_1   0.220539 0.500000 0.500000 -0.034392
C94   C     C_1   1.000000 0.720539 1.000000 -0.034392
C95   C     C_1   0.279461 0.000000 0.000000 -0.034391
C96   C     C_1   0.000000 0.279461 0.000000 -0.034392
C97   C     C_1   0.720539 1.000000 1.000000 -0.034391
C98   C     C_1   0.500000 0.280664 0.500000 -0.032207
C99   C     C_1   0.719336 0.500000 0.500000 -0.032206
C100  C     C_1   0.500000 0.719336 0.500000 -0.032207
C101  C     C_R   0.391789 0.000000 0.000000 0.555649
C102  C     C_1   0.280664 0.500000 0.500000 -0.032206
C103  C     C_1   1.000000 0.780664 1.000000 -0.032206
C104  C     C_1   0.219336 0.000000 0.000000 -0.032206
C105  C     C_1   0.000000 0.219336 0.000000 -0.032206
C106  C     C_1   0.780664 1.000000 1.000000 -0.032206
C107  C     C_1   0.500000 0.331871 0.500000 -0.015524
C108  C     C_1   0.668129 0.500000 0.500000 -0.015524
C109  C     C_1   0.500000 0.668129 0.500000 -0.015525
C110  C     C_1   0.331871 0.500000 0.500000 -0.015524
C111  C     C_1   0.000000 0.831871 1.000000 -0.015524
C112  C     C_R   0.000000 0.391789 0.000000 0.555649
C113  C     C_1   0.168129 0.000000 0.000000 -0.015524
C114  C     C_1   0.000000 0.168129 0.000000 -0.015524
C115  C     C_1   0.831871 1.000000 1.000000 -0.015524
C116  C     C_R   0.451150 0.014786 0.377318 -0.111981
C117  C     C_R   0.985212 0.451151 0.377318 -0.111981
C118  C     C_R   0.548850 0.985214 0.377318 -0.111981
C119  C     C_R   0.014788 0.548849 0.377318 -0.111981
C120  C     C_R   0.451158 0.985189 0.622682 -0.111981
C121  C     C_R   0.985213 0.548850 0.622682 -0.111982
C122  C     C_R   0.548843 0.014808 0.622682 -0.111979
C123  C     C_R   0.608211 1.000000 0.000000 0.555649
C124  C     C_R   0.014787 0.451150 0.622682 -0.111981
C125  C     C_R   0.951149 0.514783 0.877318 -0.111981
C126  C     C_R   0.485230 0.951145 0.877317 -0.111981
C127  C     C_R   0.048850 0.485217 0.877318 -0.111981
C128  C     C_R   0.514768 0.048855 0.877317 -0.111981
C129  C     C_R   0.951150 0.485215 0.122682 -0.111981
C130  C     C_R   0.485212 0.048849 0.122682 -0.111981
C131  C     C_R   0.048850 0.514785 0.122682 -0.111981
C132  C     C_R   0.514787 0.951151 0.122682 -0.111981
C133  C     C_R   0.450365 0.015770 0.341033 0.006062
C134  C     C_R   0.500000 0.000000 0.395419 -0.022060
C135  C     C_R   0.984228 0.450366 0.341033 0.006062
C136  C     C_R   0.549635 0.984230 0.341033 0.006062
C137  C     C_R   0.015772 0.549634 0.341033 0.006062
C138  C     C_R   0.450374 0.984202 0.658967 0.006064
C139  C     C_R   0.984228 0.549635 0.658967 0.006062
C140  C     C_R   0.549628 0.015793 0.658967 0.006063
C141  C     C_R   0.015772 0.450366 0.658967 0.006062
C142  C     C_R   0.950364 0.515768 0.841033 0.006062
C143  C     C_R   0.484247 0.950359 0.841032 0.006062
C144  C     C_R   0.049635 0.484232 0.841033 0.006062
Cu1   Cu    Cu3+1 0.555710 0.000000 0.500000 0.936446
Cu2   Cu    Cu3+1 0.500000 0.500000 0.534110 0.963820
Cu3   Cu    Cu3+1 1.000000 0.000000 0.965890 0.963826
Cu4   Cu    Cu3+1 1.000000 0.000000 0.034110 0.963823
Cu5   Cu    Cu3+1 0.000000 0.555710 0.500000 0.936445
Cu6   Cu    Cu3+1 0.444290 0.000000 0.500000 0.936447
Cu7   Cu    Cu3+1 1.000000 0.444290 0.500000 0.936445
Cu8   Cu    Cu3+1 0.055710 0.500000 0.000000 0.936443
Cu9   Cu    Cu3+1 0.500000 0.055710 0.000000 0.936443
Cu10  Cu    Cu3+1 0.944290 0.500000 0.000000 0.936444
Cu11  Cu    Cu3+1 0.500000 0.944290 0.000000 0.936443
Cu12  Cu    Cu3+1 0.500000 0.500000 0.465890 0.963823
H1    H     H_    0.414040 0.026151 0.391939 0.138886
H2    H     H_    0.473878 0.914031 0.891939 0.138890
H3    H     H_    0.085961 0.473853 0.891939 0.138886
H4    H     H_    0.526120 0.085969 0.891939 0.138890
H5    H     H_    0.914040 0.473850 0.108060 0.138886
H6    H     H_    0.473846 0.085959 0.108060 0.138885
H7    H     H_    0.085960 0.526150 0.108061 0.138886
H8    H     H_    0.526154 0.914041 0.108060 0.138885
H9    H     H_    0.331581 0.025959 0.359919 0.151207
H10   H     H_    0.364469 0.095379 0.357844 0.156474
H11   H     H_    0.315477 0.073221 0.325020 0.146834
H12   H     H_    0.973845 0.414041 0.391939 0.138885
H13   H     H_    0.410295 0.066856 0.301963 0.159597
H14   H     H_    0.381095 0.997246 0.306583 0.175777
H15   H     H_    0.974036 0.331582 0.359919 0.151207
H16   H     H_    0.904616 0.364471 0.357844 0.156474
H17   H     H_    0.926774 0.315479 0.325020 0.146834
H18   H     H_    0.933141 0.410297 0.301963 0.159597
H19   H     H_    0.002750 0.381095 0.306583 0.175778
H20   H     H_    0.668419 0.974044 0.359919 0.151207
H21   H     H_    0.635533 0.904623 0.357845 0.156474
H22   H     H_    0.684524 0.926783 0.325020 0.146833
H23   H     H_    0.585960 0.973849 0.391939 0.138886
H24   H     H_    0.589706 0.933145 0.301963 0.159597
H25   H     H_    0.618905 0.002755 0.306583 0.175778
H26   H     H_    0.025964 0.668417 0.359919 0.151207
H27   H     H_    0.095383 0.635529 0.357844 0.156474
H28   H     H_    0.073225 0.684521 0.325020 0.146834
H29   H     H_    0.066859 0.589703 0.301963 0.159597
H30   H     H_    0.997250 0.618905 0.306583 0.175778
H31   H     H_    0.331596 0.973938 0.640080 0.151205
H32   H     H_    0.364530 0.904541 0.642156 0.156477
H33   H     H_    0.315523 0.926668 0.674979 0.146835
H34   H     H_    0.026155 0.585959 0.391939 0.138885
H35   H     H_    0.410333 0.933099 0.698038 0.159599
H36   H     H_    0.381090 0.002690 0.693414 0.175775
H37   H     H_    0.974034 0.668418 0.640080 0.151207
H38   H     H_    0.904616 0.635527 0.642156 0.156475
H39   H     H_    0.926773 0.684520 0.674979 0.146835
H40   H     H_    0.933143 0.589703 0.698037 0.159598
H41   H     H_    0.002751 0.618907 0.693416 0.175778
H42   H     H_    0.668406 0.026037 0.640081 0.151209
H43   H     H_    0.635487 0.095441 0.642154 0.156474
H44   H     H_    0.684488 0.073306 0.674979 0.146835
H45   H     H_    0.414054 0.973806 0.608060 0.138879
H46   H     H_    0.589673 0.066898 0.698036 0.159596
H47   H     H_    0.618906 0.997303 0.693417 0.175779
H48   H     H_    0.025966 0.331582 0.640080 0.151206
H49   H     H_    0.095384 0.364473 0.642156 0.156475
H50   H     H_    0.073228 0.315480 0.674979 0.146834
H51   H     H_    0.066857 0.410297 0.698037 0.159597
H52   H     H_    0.997249 0.381093 0.693416 0.175778
H53   H     H_    0.831580 0.525948 0.859919 0.151207
H54   H     H_    0.864462 0.595370 0.857845 0.156475
H55   H     H_    0.815473 0.573209 0.825020 0.146834
H56   H     H_    0.973847 0.585959 0.608060 0.138885
H57   H     H_    0.910291 0.566852 0.801964 0.159597
H58   H     H_    0.881096 0.497240 0.806582 0.175779
H59   H     H_    0.474106 0.831572 0.859918 0.151207
H60   H     H_    0.404672 0.864430 0.857844 0.156473
H61   H     H_    0.426851 0.815448 0.825020 0.146832
H62   H     H_    0.433175 0.910270 0.801963 0.159596
H63   H     H_    0.502796 0.881097 0.806581 0.175776
H64   H     H_    0.168420 0.474051 0.859919 0.151207
H65   H     H_    0.135537 0.404629 0.857845 0.156474
H66   H     H_    0.184527 0.426791 0.825020 0.146834
H67   H     H_    0.585947 0.026192 0.608060 0.138879
H68   H     H_    0.089708 0.433149 0.801963 0.159597
H69   H     H_    0.118904 0.502760 0.806583 0.175778
H70   H     H_    0.525887 0.168428 0.859917 0.151208
H71   H     H_    0.595323 0.135573 0.857844 0.156473
H72   H     H_    0.573142 0.184553 0.825019 0.146833
H73   H     H_    0.566823 0.089730 0.801964 0.159596
H74   H     H_    0.497201 0.118901 0.806580 0.175776
H75   H     H_    0.831581 0.474044 0.140081 0.151207
H76   H     H_    0.864467 0.404623 0.142156 0.156475
H77   H     H_    0.815475 0.426783 0.174979 0.146833
H78   H     H_    0.026153 0.414041 0.608060 0.138885
H79   H     H_    0.910293 0.433146 0.198037 0.159597
H80   H     H_    0.881094 0.502757 0.193417 0.175778
H81   H     H_    0.474036 0.168418 0.140081 0.151207
H82   H     H_    0.404617 0.135529 0.142155 0.156475
H83   H     H_    0.426775 0.184521 0.174979 0.146833
H84   H     H_    0.433142 0.089704 0.198037 0.159597
H85   H     H_    0.502751 0.118906 0.193417 0.175778
H86   H     H_    0.168419 0.525957 0.140081 0.151206
H87   H     H_    0.135533 0.595377 0.142156 0.156475
H88   H     H_    0.184524 0.573217 0.174980 0.146833
H89   H     H_    0.914039 0.526146 0.891939 0.138886
H90   H     H_    0.089707 0.566854 0.198037 0.159597
H91   H     H_    0.118906 0.497243 0.193417 0.175777
H92   H     H_    0.525963 0.831582 0.140081 0.151207
H93   H     H_    0.595383 0.864471 0.142155 0.156474
H94   H     H_    0.573224 0.815479 0.174979 0.146834
H95   H     H_    0.566858 0.910296 0.198037 0.159597
H96   H     H_    0.497249 0.881094 0.193417 0.175778
N1    N     N_R   0.534837 0.034939 0.267181 -0.243253
N2    N     N_R   0.534956 0.965179 0.767181 -0.243250
N3    N     N_R   0.965164 0.465059 0.767181 -0.243253
N4    N     N_R   0.465043 0.034819 0.767181 -0.243251
N5    N     N_R   0.034838 0.465062 0.232819 -0.243253
N6    N     N_R   0.534937 0.034840 0.232819 -0.243253
N7    N     N_R   0.965162 0.534938 0.232819 -0.243253
N8    N     N_R   0.465063 0.965161 0.232819 -0.243253
N9    N     N_R   0.034937 0.465161 0.267181 -0.243253
N10   N     N_R   0.465163 0.965061 0.267181 -0.243252
N11   N     N_R   0.965062 0.534839 0.267181 -0.243253
N12   N     N_R   0.534857 0.965079 0.732819 -0.243255
N13   N     N_R   0.034935 0.534841 0.732819 -0.243255
N14   N     N_R   0.465143 0.034918 0.732818 -0.243251
N15   N     N_R   0.965065 0.465159 0.732819 -0.243254
N16   N     N_R   0.034835 0.534941 0.767181 -0.243253
O1    O     O_R   0.547030 0.081100 0.499900 -0.499303
O2    O     O_R   0.418900 0.047030 0.999900 -0.499302
O3    O     O_R   0.952970 0.418900 0.999900 -0.499301
O4    O     O_R   0.581100 0.952970 0.999900 -0.499302
O5    O     O_R   0.047030 0.418900 0.000100 -0.499301
O6    O     O_R   0.418900 0.952970 0.000100 -0.499299
O7    O     O_R   0.952970 0.581100 0.000100 -0.499301
O8    O     O_R   0.581100 0.047030 0.000100 -0.499299
O9    O     O_R   0.547030 0.999700 0.449980 -0.510333
O10   O     O_R   0.000300 0.547030 0.449980 -0.510333
O11   O     O_R   0.452970 0.000300 0.449980 -0.510333
O12   O     O_R   0.918900 0.547030 0.499900 -0.499301
O13   O     O_R   0.999700 0.452970 0.449980 -0.510333
O14   O     O_R   0.547030 0.000300 0.550020 -0.510331
O15   O     O_R   0.000300 0.452970 0.550020 -0.510333
O16   O     O_R   0.452970 0.999700 0.550020 -0.510330
O17   O     O_R   0.999700 0.547030 0.550020 -0.510333
O18   O     O_R   0.047030 0.499700 0.949980 -0.510333
O19   O     O_R   0.500300 0.047030 0.949980 -0.510335
O20   O     O_R   0.952970 0.500300 0.949980 -0.510334
O21   O     O_R   0.499700 0.952970 0.949980 -0.510335
O22   O     O_R   0.047030 0.500300 0.050020 -0.510334
O23   O     O_R   0.452970 0.918900 0.499900 -0.499303
O24   O     O_R   0.500300 0.952970 0.050020 -0.510333
O25   O     O_R   0.952970 0.499700 0.050020 -0.510333
O26   O     O_R   0.499700 0.047030 0.050020 -0.510333
O27   O     O_R   0.419660 0.499650 0.470270 -0.498691
O28   O     O_R   0.500350 0.419660 0.470270 -0.498691
O29   O     O_R   0.580340 0.500350 0.470270 -0.498691
O30   O     O_R   0.499650 0.580340 0.470270 -0.498691
O31   O     O_R   0.419660 0.500350 0.529730 -0.498692
O32   O     O_R   0.500350 0.580340 0.529730 -0.498692
O33   O     O_R   0.580340 0.499650 0.529730 -0.498692
O34   O     O_R   0.081100 0.452970 0.499900 -0.499301
O35   O     O_R   0.499650 0.419660 0.529730 -0.498692
O36   O     O_R   0.919660 0.999650 0.970270 -0.498691
O37   O     O_R   0.000350 0.919660 0.970270 -0.498691
O38   O     O_R   0.080340 0.000350 0.970270 -0.498691
O39   O     O_R   0.999650 0.080340 0.970270 -0.498691
O40   O     O_R   0.919660 0.000350 0.029730 -0.498692
O41   O     O_R   0.000350 0.080340 0.029730 -0.498692
O42   O     O_R   0.080340 0.999650 0.029730 -0.498692
O43   O     O_R   0.999650 0.919660 0.029730 -0.498692
O44   O     O_R   0.547030 0.918900 0.500100 -0.499300
O45   O     O_R   0.918900 0.452970 0.500100 -0.499301
O46   O     O_R   0.452970 0.081100 0.500100 -0.499299
O47   O     O_R   0.081100 0.547030 0.500100 -0.499301
O48   O     O_R   0.047030 0.581100 0.999900 -0.499301

loop_
_geom_bond_atom_site_label_1
_geom_bond_atom_site_label_2
_ccdc_geom_bond_type
C123  O4    A    
Cu6   O23   S    
C54   N8    A    
C19   C20   S    
C18   H10   S    
C50   H96   S    
N5    N9    A    
N7    N11   A    
C43   H80   S    
Cu7   O13   S    
Cu8   O18   S    
C126  C143  A    
Cu5   O12   S    
C70   O38   A    
C48   H90   S    
C14   C143  A    
C125  H89   S    
N1    N6    A    
C65   O29   A    
C71   O41   A    
C65   C108  S    
C88   C97   T    
C124  H78   S    
Cu2   O35   S    
C100  C109  T    
C21   C22   S    
C40   H64   S    
C10   C140  A    
C37   H62   S    
C31   H44   S    
C2    C117  A    
C78   O22   A    
C45   C47   S    
C30   H46   S    
Cu8   O22   S    
C112  O5    A    
C116  C133  A    
C82   C91   T    
C10   C60   S    
C43   C44   S    
C37   C38   S    
C46   C77   S    
C47   H82   S    
C26   H35   S    
C63   O27   A    
C64   O28   A    
Cu7   O34   S    
C27   H31   S    
C35   C127  A    
C7    C132  A    
C5    C130  A    
C20   H16   S    
C42   H72   S    
C17   C133  S    
C54   N6    A    
C39   H68   S    
C120  C138  A    
C117  C135  A    
C118  C136  A    
C17   H14   S    
C68   C83   S    
Cu1   O9    S    
C34   H57   S    
C23   H30   S    
C85   C90   S    
C4    C43   S    
Cu2   O32   S    
C106  C115  T    
C28   H41   S    
C59   N15   A    
C40   H65   S    
C19   H18   S    
C61   N9    A    
C29   H37   S    
C66   O32   A    
C24   C121  A    
C84   C93   T    
C16   C54   S    
C86   C95   T    
Cu2   O33   S    
C68   O23   A    
C10   C138  A    
C19   C135  S    
C31   H42   S    
C8    C62   S    
Cu6   O46   S    
C56   N2    A    
Cu3   Cu4   S    
Cu11  O4    S    
C99   C108  T    
C33   H49   S    
C9    C61   S    
Cu5   Cu7   S    
C79   C84   S    
C1    O1    A    
C117  H12   S    
C35   C125  A    
Cu6   O11   S    
Cu9   O19   S    
Cu10  O20   S    
C60   N14   A    
C32   H52   S    
Cu1   Cu6   S    
C118  C134  A    
C27   H32   S    
C130  H6    S    
N2    N12   A    
C1    O46   A    
C64   O35   A    
C76   O18   A    
C28   C139  S    
C77   O19   A    
Cu11  O6    S    
C112  O3    A    
C49   H87   S    
C42   H70   S    
C70   C113  S    
C35   C76   S    
C59   N13   A    
Cu12  O29   S    
C53   C80   S    
C61   N11   A    
C39   C40   S    
C3    C128  A    
C80   O24   A    
C78   O25   A    
C65   O33   A    
C29   H39   S    
C66   O30   A    
C15   C55   S    
C17   C18   S    
C129  H5    S    
C11   C141  A    
C79   O34   A    
C2    C73   S    
C90   O48   A    
C47   H83   S    
C9    C135  A    
C56   N4    A    
C101  O6    A    
C13   C120  A    
C25   H26   S    
C73   O13   A    
Cu12  O27   S    
C7    C16   A    
C7    C50   S    
Cu8   Cu10  S    
C18   H11   S    
Cu9   O26   S    
C63   O31   A    
C89   C98   S    
C121  C139  A    
C122  C140  A    
C43   H79   S    
C44   H77   S    
Cu1   O44   S    
N3    N15   A    
C28   H40   S    
C55   N7    A    
C124  C141  A    
C19   H19   S    
C104  C113  T    
C57   O12   A    
C39   C144  S    
Cu7   O45   S    
C57   C82   S    
C76   O20   A    
C91   C99   S    
Cu11  O21   S    
Cu4   O41   S    
C62   N1    A    
C96   C105  S    
C45   H85   S    
Cu11  O24   S    
C8    C136  A    
C41   C42   S    
C60   N12   A    
C57   O45   A    
Cu9   O2    S    
C119  H34   S    
C38   H59   S    
C31   H43   S    
C95   C104  S    
C30   H47   S    
Cu3   O38   S    
C92   C100  S    
C26   C27   S    
C52   C129  A    
C28   C29   S    
C44   H75   S    
Cu8   O5    S    
C30   C31   S    
C11   C59   S    
C116  C134  A    
C1    C81   S    
C103  C111  T    
C121  H56   S    
C51   H94   S    
C11   C139  A    
C47   H81   S    
C9    C137  A    
Cu9   Cu11  S    
C25   H28   S    
C36   H53   S    
C81   C89   T    
C74   O16   A    
C38   H61   S    
C79   O47   A    
C69   O43   A    
C52   C78   S    
C18   H9    S    
C23   C137  S    
C34   H58   S    
C71   O39   A    
C23   H29   S    
C26   H36   S    
C42   H71   S    
C5    C45   S    
C98   C107  T    
C71   C114  S    
C40   H66   S    
C55   N5    A    
C132  H8    S    
C72   C134  S    
C131  H7    S    
C75   O17   A    
C50   C51   S    
C58   N3    A    
Cu6   O16   S    
C32   C141  S    
C3    C14   A    
Cu4   O43   S    
C97   C106  S    
C48   C49   S    
C94   C103  S    
C122  H67   S    
C102  C110  T    
C37   H63   S    
Cu10  O3    S    
Cu12  O30   S    
Cu3   O36   S    
C34   C142  S    
C37   C143  S    
C52   C131  A    
C6    C131  A    
C26   C138  S    
C93   C102  S    
C22   H20   S    
C24   C75   S    
C4    C129  A    
C87   C112  S    
C73   O10   A    
C33   H48   S    
C67   O36   A    
C32   C33   S    
C51   H92   S    
C63   C110  S    
C12   C142  A    
C127  C144  A    
C66   C109  S    
C39   H69   S    
C36   H55   S    
C20   H15   S    
C13   C74   S    
C74   O14   A    
C58   N16   A    
C68   O44   A    
C69   O37   A    
C70   O42   A    
C50   H95   S    
C14   C56   S    
Cu10  O25   S    
C75   O15   A    
C22   H22   S    
C62   N10   A    
C49   H86   S    
Cu4   O40   S    
Cu2   O31   S    
C21   H25   S    
C83   C92   T    
C6    C48   S    
C46   C128  A    
C48   H91   S    
C77   O21   A    
C17   H13   S    
C29   H38   S    
Cu3   O39   S    
C24   C124  A    
Cu1   O1    S    
C72   O9    A    
C67   C115  S    
C5    C16   A    
C6    C15   A    
C21   H24   S    
C90   O7    A    
C21   C136  S    
C34   C36   S    
C12   C58   S    
C118  H23   S    
C120  H45   S    
C88   C123  S    
Cu1   O14   S    
Cu5   O47   S    
C67   O40   A    
C126  H2    S    
C33   H50   S    
C30   C140  S    
Cu12  O28   S    
C119  C137  A    
C105  C114  T    
N8    N10   A    
C53   C132  A    
C12   C144  A    
Cu7   O15   S    
C85   C94   T    
C20   H17   S    
C125  C142  A    
C87   C96   T    
Cu5   O10   S    
C41   H74   S    
C32   H51   S    
C80   O26   A    
C41   H73   S    
C127  H3    S    
C49   H88   S    
C123  O8    A    
C128  H4    S    
C64   C107  S    
Cu4   O42   S    
N4    N14   A    
C3    C41   S    
C8    C133  A    
Cu5   O17   S    
C46   C126  A    
C38   H60   S    
C2    C119  A    
C101  O2    A    
Cu3   O37   S    
Cu8   O48   S    
C72   O11   A    
C4    C15   A    
C44   H76   S    
C45   H84   S    
C116  H1    S    
C13   C122  A    
C69   C111  S    
Cu9   O8    S    
C23   C25   S    
Cu10  O7    S    
C51   H93   S    
N13   N16   A    
Cu2   Cu12  S    
C53   C130  A    
C27   H33   S    
C22   H21   S    
C86   C101  S    
C25   H27   S    
C36   H54   S    
