data_mof_unit_9689.cif
_audit_creation_date              2012-12-10T18:37:17-0500
_audit_creation_method            fapswitch 2.2
_symmetry_space_group_name_H-M    P1
_symmetry_Int_Tables_number       1
_space_group_crystal_system       triclinic
_cell_length_a                    15.281101
_cell_length_b                    13.86404
_cell_length_c                    11.215749
_cell_angle_alpha                 90.205722
_cell_angle_beta                  88.633635
_cell_angle_gamma                 90.698394
_cell_volume                      2375.27881468

loop_
_atom_site_label
_atom_site_type_symbol
_atom_type_description
_atom_site_fract_x
_atom_site_fract_y
_atom_site_fract_z
_atom_type_partial_charge
C1    C     C_R   0.330116 0.499658 0.495690 0.822543
C2    C     C_3   0.584177 0.455593 0.921895 0.530810
C3    C     C_R   0.107721 0.563492 0.381889 -0.029937
C4    C     C_R   0.089297 0.441826 0.535119 -0.047102
C5    C     C_R   0.198453 0.559944 0.394249 -0.249806
C6    C     C_R   0.179204 0.441024 0.550126 -0.181567
C7    C     C_R   0.234819 0.499757 0.480039 0.003591
C8    C     C_R   0.053031 0.505026 0.453667 0.276182
C9    C     C_R   0.907033 0.444399 0.394403 0.333683
C10   C     C_R   0.914978 0.581577 0.526757 0.317236
C11   C     C_R   0.822334 0.424976 0.440377 0.326647
C12   C     C_R   0.823462 0.590106 0.517157 0.239430
C13   C     C_R   0.772668 0.504336 0.488894 -0.357479
C14   C     C_R   0.957389 0.513880 0.452979 -0.288842
C15   C     C_R   0.585191 0.111649 0.522576 0.323603
C16   C     C_R   0.571190 0.887814 0.427943 0.278680
C17   C     C_R   0.500157 0.499945 0.259015 0.962358
C18   C     C_R   0.575874 0.213030 0.526374 -0.140935
C19   C     C_R   0.566198 0.786852 0.439443 0.097013
C20   C     C_R   0.428099 0.202157 0.472371 0.538656
C21   C     C_R   0.433872 0.795583 0.548908 0.591303
C22   C     C_R   0.436235 0.100564 0.456794 0.225859
C23   C     C_R   0.445431 0.896927 0.562453 0.277753
C24   C     C_R   0.512986 0.053731 0.489342 -0.113906
C25   C     C_R   0.511875 0.945172 0.494605 -0.118041
C26   C     C_R   0.672239 0.500894 0.498526 0.977143
C27   C     C_R   0.494274 0.500737 0.740605 1.014072
C28   C     C_3   0.472091 0.607156 0.066708 0.085631
C29   C     C_3   0.427933 0.424345 0.074130 0.081390
C30   C     C_3   0.481569 0.616796 0.923754 0.619794
C31   C     C_3   0.405520 0.443667 0.937188 0.636041
C32   C     C_3   0.598108 0.470159 0.064452 0.504659
C33   C     C_3   0.502565 0.499850 0.120148 -0.499054
C34   C     C_3   0.492327 0.504193 0.879527 -0.379556
Cu1   Cu    Cu3+1 0.499990 0.596430 0.500000 1.145206
Cu2   Cu    Cu3+1 0.499990 0.403570 0.500000 1.083531
H1    H     H_    0.630327 0.255191 0.553357 0.265482
H2    H     H_    0.613220 0.743169 0.394915 0.258037
H3    H     H_    0.400693 0.602022 0.081017 0.124223
H4    H     H_    0.371710 0.451583 0.127984 0.093450
H5    H     H_    0.080183 0.612487 0.318247 0.161147
H6    H     H_    0.047365 0.396880 0.591666 0.154681
H7    H     H_    0.240282 0.604959 0.338022 0.118119
H8    H     H_    0.203675 0.396634 0.619330 0.185283
N1    N     N_R   0.500020 0.258690 0.500000 -0.261755
N2    N     N_R   0.500020 0.741310 0.500000 -0.237612
O1    O     O_R   0.371450 0.581430 0.500010 -0.558151
O2    O     O_R   0.371450 0.418570 0.500010 -0.522437
O3    O     O_R   0.499980 0.581440 0.317690 -0.503031
O4    O     O_R   0.499980 0.418560 0.317690 -0.505464
O5    O     O_R   0.628540 0.581440 0.499990 -0.524813
O6    O     O_R   0.628540 0.418560 0.499990 -0.587144
O7    O     O_R   0.500010 0.581440 0.682310 -0.507333
O8    O     O_R   0.500010 0.418560 0.682310 -0.541061
S1    S     S_3+6 0.479803 0.721009 0.153782 0.024835
O9    O     O_2   0.571108 0.736040 0.194989 -0.179086
O10   O     O_2   0.455552 0.811148 0.090728 -0.333872
O11   O     O_3   0.409770 0.718265 0.272266 -0.561732
H9    H     H_    0.350533 0.713986 0.238967 0.303303
S2    S     S_3+6 0.416103 0.296387 0.121199 0.083355
O12   O     O_2   0.321101 0.277520 0.151115 -0.292333
O13   O     O_2   0.442617 0.227917 0.023526 -0.213234
O14   O     O_3   0.470309 0.261794 0.241098 -0.478260
H10   H     H_    0.484695 0.193140 0.227929 0.328333
S3    S     S_3+6 0.808785 0.303179 0.487818 0.044826
O15   O     O_2   0.751869 0.247094 0.404925 -0.191001
O16   O     O_2   0.896256 0.254414 0.488093 -0.255154
O17   O     O_3   0.767809 0.298131 0.627167 -0.647456
H11   H     H_    0.818301 0.285663 0.678468 0.345860
S4    S     S_3+6 0.785386 0.709592 0.496686 0.057383
O18   O     O_2   0.710236 0.731036 0.580770 -0.264477
O19   O     O_2   0.855223 0.785085 0.514753 -0.212798
O20   O     O_3   0.757127 0.717304 0.353332 -0.510192
H12   H     H_    0.767262 0.785576 0.330609 0.389258
O21   O     O_3   0.668778 0.074767 0.533902 -0.478467
C35   C     C_3   0.674795 0.012371 0.632930 0.128091
H13   H     H_    0.665147 0.936446 0.605273 0.203561
H14   H     H_    0.626564 0.027594 0.705777 0.065147
C36   C     C_3   0.766878 0.019771 0.681168 -0.619112
H15   H     H_    0.783896 0.095936 0.701858 0.242471
H16   H     H_    0.771247 0.975916 0.763441 0.196773
H17   H     H_    0.814849 0.992386 0.613598 0.288224
O22   O     O_3   0.640443 0.927532 0.362279 -0.536945
C37   C     C_3   0.609863 0.968369 0.256023 0.137460
H18   H     H_    0.590833 0.044401 0.272235 0.143981
H19   H     H_    0.553254 0.927899 0.218918 0.193598
C38   C     C_3   0.683275 0.968206 0.162121 -0.634980
H20   H     H_    0.703746 0.893013 0.142968 0.271540
H21   H     H_    0.660295 0.001234 0.078554 0.188645
H22   H     H_    0.740312 0.010405 0.194354 0.270603
O23   O     O_3   0.350200 0.244823 0.443814 -0.513567
C39   C     C_3   0.281113 0.212392 0.521020 0.034208
H23   H     H_    0.274234 0.263135 0.596067 0.186381
H24   H     H_    0.290341 0.140819 0.563131 0.175190
C40   C     C_3   0.196441 0.208560 0.452490 -0.627457
H25   H     H_    0.198590 0.148625 0.386676 0.255340
H26   H     H_    0.139964 0.196648 0.515063 0.210517
H27   H     H_    0.187558 0.277232 0.404046 0.281916
O24   O     O_3   0.358797 0.750016 0.592092 -0.566605
C41   C     C_3   0.283035 0.786927 0.538245 0.088846
H28   H     H_    0.256026 0.731166 0.478441 0.171032
H29   H     H_    0.293986 0.852338 0.482180 0.166823
C42   C     C_3   0.214048 0.809586 0.633941 -0.671336
H30   H     H_    0.240168 0.861657 0.699621 0.246667
H31   H     H_    0.193429 0.742448 0.680973 0.248895
H32   H     H_    0.156573 0.842621 0.592355 0.251505
O25   O     O_3   0.366187 0.045357 0.417442 -0.561580
C43   C     C_3   0.365378 0.046244 0.291782 0.097943
H33   H     H_    0.431259 0.032988 0.251298 0.112616
H34   H     H_    0.340531 0.116260 0.260362 0.235717
C44   C     C_3   0.304320 0.966890 0.248443 -0.741770
H35   H     H_    0.237576 0.976578 0.287656 0.244478
H36   H     H_    0.300955 0.969266 0.149683 0.223986
H37   H     H_    0.329272 0.895478 0.274850 0.254040
O26   O     O_3   0.385406 0.947785 0.632146 -0.554855
C45   C     C_3   0.425963 0.983447 0.735672 0.013557
H38   H     H_    0.469769 0.045386 0.713980 0.133451
H39   H     H_    0.464354 0.927114 0.780476 0.167831
C46   C     C_3   0.356265 0.019545 0.823367 -0.714055
H40   H     H_    0.311723 0.959510 0.850588 0.219623
H41   H     H_    0.387764 0.049415 0.903966 0.248511
H42   H     H_    0.317469 0.077014 0.781608 0.258624
O27   O     O_3   0.399327 0.645174 0.873872 -0.554483
C47   C     C_3   0.369377 0.741577 0.884484 0.255733
H43   H     H_    0.348862 0.764063 0.796213 0.205381
H44   H     H_    0.418256 0.796503 0.905052 0.200245
C48   C     C_3   0.287719 0.749740 0.963587 -0.815893
H45   H     H_    0.296765 0.715606 0.050803 0.253005
H46   H     H_    0.272431 0.826838 0.979210 0.204408
H47   H     H_    0.231545 0.715970 0.917922 0.243212
O28   O     O_3   0.329814 0.505061 0.938751 -0.588259
C49   C     C_3   0.248685 0.464823 0.982189 0.171469
H48   H     H_    0.255676 0.398950 0.035012 0.210230
H49   H     H_    0.206452 0.447516 0.905532 0.207303
C50   C     C_3   0.200594 0.535454 0.063540 -0.865402
H50   H     H_    0.168301 0.591316 0.010555 0.255753
H51   H     H_    0.148851 0.496538 0.115785 0.260837
H52   H     H_    0.246300 0.568852 0.127253 0.226526
S5    S     S_3+6 0.564959 0.707757 0.862744 0.080742
O29   O     O_2   0.526978 0.757675 0.757984 -0.369467
O30   O     O_2   0.648734 0.668154 0.815417 -0.194595
O31   O     O_3   0.592034 0.796026 0.958503 -0.446869
H53   H     H_    0.620652 0.846990 0.909049 0.347020
S6    S     S_3+6 0.369239 0.340385 0.842712 0.045015
O32   O     O_2   0.299900 0.278297 0.902433 -0.288717
O33   O     O_2   0.328368 0.385894 0.737347 -0.376428
O34   O     O_3   0.446031 0.265660 0.790718 -0.468044
H54   H     H_    0.415828 0.223512 0.732897 0.329294
S7    S     S_3+6 0.680891 0.560013 0.111686 0.074670
O35   O     O_2   0.678660 0.652217 0.044721 -0.204986
O36   O     O_2   0.665158 0.581632 0.241168 -0.249830
O37   O     O_3   0.784966 0.521725 0.103396 -0.499333
H55   H     H_    0.819469 0.570381 0.147730 0.393861
S8    S     S_3+6 0.646679 0.359173 0.128922 0.091065
O38   O     O_2   0.600729 0.267339 0.097937 -0.276921
O39   O     O_2   0.739561 0.344148 0.088364 -0.233512
O40   O     O_3   0.652534 0.367623 0.276705 -0.457917
H56   H     H_    0.625737 0.306935 0.306985 0.401720
O41   O     O_3   0.651040 0.499218 0.845413 -0.589888
C51   C     C_3   0.740504 0.472948 0.848409 0.015004
H57   H     H_    0.755269 0.425299 0.772228 0.136942
H58   H     H_    0.758996 0.437792 0.929257 0.228763
C52   C     C_3   0.802075 0.558598 0.828585 -0.494414
H59   H     H_    0.798178 0.611357 0.902461 0.296796
H60   H     H_    0.870548 0.532837 0.821388 0.197585
H61   H     H_    0.786145 0.594964 0.744676 0.263240
O42   O     O_3   0.569598 0.354085 0.900586 -0.528031
C53   C     C_3   0.635010 0.301192 0.838931 0.266149
H62   H     H_    0.697596 0.304522 0.884832 0.138367
H63   H     H_    0.639775 0.326406 0.745758 0.179396
C54   C     C_3   0.613838 0.193370 0.838681 -0.645782
H64   H     H_    0.675468 0.152206 0.833549 0.168501
H65   H     H_    0.578018 0.169790 0.920312 0.300487
H66   H     H_    0.574781 0.173758 0.760834 0.199632
S9    S     S_3+6 0.952246 0.376314 0.273765 0.080592
O43   O     O_2   0.030601 0.321547 0.313278 -0.289245
O44   O     O_2   0.885680 0.306595 0.225871 -0.150368
O45   O     O_3   0.983605 0.453351 0.165136 -0.559960
H67   H     H_    0.997934 0.411974 0.095354 0.374161
S10   S     S_3+6 0.976510 0.655570 0.626060 0.012623
O46   O     O_2   0.031789 0.724610 0.553040 -0.283886
O47   O     O_2   0.918072 0.711434 0.710202 -0.246986
O48   O     O_3   0.042130 0.586969 0.707912 -0.575486
H68   H     H_    0.072236 0.632672 0.761728 0.366141

loop_
_geom_bond_atom_site_label_1
_geom_bond_atom_site_label_2
_ccdc_geom_bond_type
C50   H52   S    
C15   O21   S    
S1    O9    D    
O40   H56   S    
Cu1   O7    S    
C40   H25   S    
C11   C13   A    
O20   H12   S    
C15   C18   A    
O34   H54   S    
C37   C38   S    
C4    C8    A    
Cu1   O1    S    
O45   H67   S    
C40   H27   S    
C50   H50   S    
S9    O44   D    
C43   H33   S    
C12   C13   A    
C54   H65   S    
S2    O14   S    
S2    O13   D    
C52   H60   S    
C18   H1    S    
C35   H14   S    
S7    O36   D    
C21   O24   S    
S5    O31   S    
O26   C45   S    
C29   C33   S    
C45   H38   S    
C2    C32   S    
C31   S6    S    
C41   H28   S    
C31   O28   S    
C37   H18   S    
C42   H31   S    
C53   C54   S    
C3    H5    S    
C32   S7    S    
O22   C37   S    
C43   H34   S    
C2    O41   S    
S3    O16   D    
Cu1   O3    S    
O25   C43   S    
C35   C36   S    
Cu2   O2    S    
S4    O18   D    
C44   H37   S    
C49   H48   S    
S8    O39   D    
C20   N1    A    
Cu2   O6    S    
S10   O48   S    
C2    C34   S    
C53   H63   S    
C5    H7    S    
C6    H8    S    
C27   O7    A    
C17   C33   S    
S6    O34   S    
C39   H24   S    
C20   O23   S    
C28   S1    S    
S10   O47   D    
S9    O45   S    
C46   H41   S    
C27   C34   S    
C16   C19   A    
C54   H66   S    
C27   O8    A    
C30   C34   S    
C51   C52   S    
O27   C47   S    
C52   H61   S    
C35   H13   S    
S8    O40   S    
C4    C6    A    
C3    C8    A    
C10   C14   A    
S7    O37   S    
C17   O3    A    
O42   C53   S    
C5    C7    A    
C9    C14   A    
O17   H11   S    
C28   H3    S    
O11   H9    S    
C16   O22   S    
O14   H10   S    
S2    O12   D    
Cu1   Cu2   S    
C51   H58   S    
O21   C35   S    
C48   H46   S    
O48   H68   S    
C19   H2    S    
C26   O6    A    
O41   C51   S    
C29   S2    S    
C46   H40   S    
S3    O17   S    
S4    O20   S    
C41   H29   S    
C31   C34   S    
Cu2   N1    S    
C44   H36   S    
C24   C25   S    
C9    C11   A    
C54   H64   S    
S8    O38   D    
C10   C12   A    
C47   C48   S    
C32   S8    S    
S6    O33   D    
C53   H62   S    
C20   C22   A    
C28   C33   S    
C21   C23   A    
Cu1   O5    S    
C22   C24   A    
C13   C26   S    
S1    O11   S    
C39   C40   S    
C48   H45   S    
C18   N1    A    
O23   C39   S    
Cu2   O4    S    
S10   O46   D    
C47   H44   S    
C21   N2    A    
C46   H42   S    
C16   C25   A    
C50   H51   S    
C12   S4    S    
C40   H26   S    
C15   C24   A    
C8    C14   S    
C30   S5    S    
C44   H35   S    
C1    C7    S    
C1    O1    A    
C37   H19   S    
S6    O32   D    
C3    C5    A    
C17   O4    A    
C36   H17   S    
C19   N2    A    
S5    O29   D    
C43   C44   S    
C1    O2    A    
C45   C46   S    
C6    C7    A    
C36   H16   S    
O24   C41   S    
C10   S10   S    
C32   C33   S    
S1    O10   D    
C48   H47   S    
C29   C31   S    
S9    O43   D    
C26   O5    A    
C51   H57   S    
S5    O30   D    
C4    H6    S    
C49   C50   S    
C29   H4    S    
C28   C30   S    
C39   H23   S    
C45   H39   S    
C9    S9    S    
C42   H32   S    
C41   C42   S    
O28   C49   S    
C52   H59   S    
Cu2   O8    S    
C23   O26   S    
C36   H15   S    
C11   S3    S    
C23   C25   A    
C30   O27   S    
C38   H20   S    
C49   H49   S    
S3    O15   D    
C38   H22   S    
C42   H30   S    
C38   H21   S    
O31   H53   S    
S4    O19   D    
O37   H55   S    
S7    O35   D    
Cu1   N2    S    
C2    O42   S    
C22   O25   S    
C47   H43   S    
