data_mof_unit_41981.cif
_audit_creation_date              2013-03-05T15:48:43-0500
_audit_creation_method            fapswitch 2.2
_symmetry_space_group_name_H-M    P1
_symmetry_Int_Tables_number       1
_space_group_crystal_system       triclinic
_cell_length_a                    22.24586
_cell_length_b                    7.107021
_cell_length_c                    19.430142
_cell_angle_alpha                 90.112089
_cell_angle_beta                  99.41623
_cell_angle_gamma                 89.931865
_cell_volume                      3030.54157363

loop_
_atom_site_label
_atom_site_type_symbol
_atom_site_description
_atom_site_fract_x
_atom_site_fract_y
_atom_site_fract_z
_atom_type_partial_charge
O1    O     O_R   0.448420 0.506120 0.415750 -0.583601
O2    O     O_R   0.551580 0.006120 0.584250 -0.583383
O3    O     O_R   0.436490 0.174470 0.555610 -0.572328
O4    O     O_R   0.563510 0.674470 0.444390 -0.570846
C1    C     C_R   0.421535 0.344422 0.575427 0.936472
C2    C     C_R   0.578504 0.844057 0.424586 0.934623
O5    O     O_R   0.441310 0.176330 0.414520 -0.587656
O6    O     O_R   0.558690 0.676330 0.585480 -0.586765
O7    O     O_R   0.556430 0.007110 0.442150 -0.576588
O8    O     O_R   0.443570 0.507110 0.557850 -0.574834
C3    C     C_R   0.427334 0.344619 0.388617 0.945215
C4    C     C_R   0.572654 0.844793 0.611381 0.946426
O9    O     O_3   0.537770 0.339560 0.509230 -0.273206
O10   O     O_3   0.462230 0.839560 0.490770 -0.272663
V1    V     V_3+5 0.492990 0.064280 0.498290 1.221545
V2    V     V_3+5 0.507010 0.564280 0.501710 1.223801
C5    C     C_R   0.867131 0.979938 0.696463 -0.133196
C6    C     C_R   0.133109 0.486154 0.303363 -0.138233
H1    H     H_    0.954709 0.007386 0.760644 0.127443
H2    H     H_    0.045535 0.513622 0.239185 0.127163
H3    H     H_    0.784350 0.977296 0.581854 0.162303
H4    H     H_    0.216024 0.486468 0.417849 0.156601
H5    H     H_    0.885429 0.008525 0.649162 0.148918
H6    H     H_    0.114935 0.517597 0.350567 0.147593
C7    C     C_R   0.884881 0.941828 0.821796 -0.112583
C8    C     C_R   0.115119 0.442692 0.178213 -0.112382
C9    C     C_R   0.589331 0.814608 0.738994 -0.244065
C10   C     C_R   0.410452 0.310076 0.261104 -0.248742
C11   C     C_R   0.625791 0.810115 0.804863 0.402187
C12   C     C_R   0.373915 0.303890 0.195297 0.402181
C13   C     C_R   0.688711 0.841982 0.810568 -0.267662
C14   C     C_R   0.311076 0.337591 0.189554 -0.267983
C15   C     C_R   0.716296 0.878521 0.751269 0.042876
C16   C     C_R   0.283648 0.377657 0.248751 0.042571
C17   C     C_R   0.677986 0.883563 0.684499 0.100201
C18   C     C_R   0.322052 0.384607 0.315447 0.103090
C19   C     C_R   0.780676 0.909704 0.756050 0.118362
C20   C     C_R   0.219329 0.410452 0.243941 0.118091
C21   C     C_R   0.804614 0.946279 0.693869 0.144663
C22   C     C_R   0.195551 0.450690 0.306003 0.151154
C23   C     C_R   0.766155 0.949933 0.629326 -0.177889
C24   C     C_R   0.234100 0.456265 0.370469 -0.190353
C25   C     C_R   0.703983 0.918887 0.624595 -0.175276
C26   C     C_R   0.296206 0.423519 0.375241 -0.178946
C27   C     C_R   0.822422 0.906852 0.820070 -0.210068
C28   C     C_R   0.177495 0.405785 0.179997 -0.211352
C29   C     C_R   0.906752 0.978914 0.759859 -0.152242
C30   C     C_R   0.093415 0.483457 0.240027 -0.151096
C31   C     C_R   0.614365 0.851122 0.678982 -0.217760
C32   C     C_R   0.385597 0.350259 0.321014 -0.216662
H7    H     H_    0.808095 0.880527 0.869510 0.129637
H8    H     H_    0.191706 0.376796 0.130640 0.129995
H9    H     H_    0.540829 0.788398 0.734054 0.167372
H10   H     H_    0.458868 0.282222 0.266085 0.163521
H11   H     H_    0.715049 0.837317 0.862124 0.185925
H12   H     H_    0.284671 0.331477 0.138053 0.185701
H13   H     H_    0.676324 0.923105 0.573292 0.110739
H14   H     H_    0.323935 0.429284 0.426484 0.110165
C33   C     C_3   0.811678 0.778282 0.267052 -0.361858
C34   C     C_3   0.188865 0.270371 0.734335 -0.336361
C35   C     C_3   0.772237 0.113039 0.234748 -0.329354
C36   C     C_3   0.225929 0.609677 0.764079 -0.345045
C37   C     C_3   0.719243 0.091352 0.280536 -0.461316
C38   C     C_3   0.278331 0.590703 0.717677 -0.422981
H15   H     H_    0.791541 0.902540 0.361798 0.193468
H16   H     H_    0.209976 0.382713 0.638547 0.182650
H17   H     H_    0.755052 0.200937 0.190078 0.238015
H18   H     H_    0.242395 0.699377 0.808646 0.240880
H19   H     H_    0.734523 0.146125 0.333861 0.239549
H20   H     H_    0.261925 0.645865 0.664482 0.219589
C39   C     C_1   0.623518 0.852121 0.378516 -0.151332
C40   C     C_1   0.376629 0.353336 0.621581 -0.134095
C41   C     C_3   0.789116 0.917203 0.204034 -0.085281
C42   C     C_3   0.210876 0.413997 0.796031 -0.096886
C43   C     C_3   0.769213 0.798156 0.322873 -0.429750
C44   C     C_3   0.232179 0.282137 0.678876 -0.411377
C45   C     C_3   0.705332 0.880013 0.289269 -0.033817
C46   C     C_3   0.294986 0.377627 0.710942 -0.033433
C47   C     C_3   0.679568 0.809567 0.211457 0.036458
C48   C     C_3   0.321958 0.315890 0.789498 0.037285
C49   C     C_3   0.727728 0.837860 0.159257 0.351436
C50   C     C_3   0.272841 0.338763 0.840987 0.356603
C51   C     C_1   0.660360 0.862020 0.338843 0.148852
C52   C     C_1   0.339855 0.362745 0.661347 0.120092
C53   C     C_1   0.836682 0.933863 0.157772 0.227816
C54   C     C_1   0.163373 0.431001 0.842420 0.223525
C55   C     C_1   0.875166 0.942551 0.120105 -0.136590
C56   C     C_1   0.124875 0.440877 0.880035 -0.135939
H21   H     H_    0.808343 0.633341 0.247060 0.164099
H22   H     H_    0.192387 0.126821 0.755654 0.166871
H23   H     H_    0.641416 0.905453 0.193250 0.141606
H24   H     H_    0.357331 0.421399 0.807170 0.146938
O11   O     O_R   0.056480 0.288780 0.942210 -0.587942
O12   O     O_R   0.943520 0.788780 0.057790 -0.587339
O13   O     O_R   0.058700 0.616820 0.085490 -0.587688
O14   O     O_R   0.941300 0.116820 0.914510 -0.587608
C57   C     C_R   0.072670 0.448815 0.111460 0.929805
C58   C     C_R   0.927321 0.948635 0.888548 0.929437
O15   O     O_R   0.063520 0.618570 0.944410 -0.568909
O16   O     O_R   0.936480 0.118570 0.055590 -0.569280
O17   O     O_R   0.948420 0.787670 0.915740 -0.585618
O18   O     O_R   0.051580 0.287670 0.084260 -0.585376
C59   C     C_R   0.078721 0.450015 0.924638 0.947090
C60   C     C_R   0.921290 0.950420 0.075411 0.947351
O19   O     O_3   0.962260 0.453430 0.990800 -0.270514
O20   O     O_3   0.037740 0.953430 0.009200 -0.270473
V3    V     V_3+5 0.007000 0.728750 0.001710 1.226885
V4    V     V_3+5 0.993000 0.228750 0.998290 1.226912
C61   C     C_2   0.878403 0.793276 0.301658 1.055477
O21   O     O_2   0.898159 0.681468 0.347648 -0.605961
O22   O     O_R   0.917719 0.928229 0.281497 -0.804527
H25   H     H_    0.960508 0.919442 0.308913 0.334588
C62   C     C_2   0.121600 0.284044 0.700555 1.063620
O23   O     O_2   0.099961 0.162818 0.659139 -0.585966
O24   O     O_R   0.083353 0.426460 0.717955 -0.807361
H26   H     H_    0.040048 0.414997 0.692153 0.334187
C63   C     C_2   0.827805 0.218175 0.271415 1.141452
O25   O     O_2   0.840555 0.221443 0.335073 -0.595168
O26   O     O_R   0.865604 0.309240 0.231167 -0.778840
H27   H     H_    0.902158 0.370775 0.260593 0.335095
C64   C     C_2   0.169935 0.712932 0.727788 1.138543
O27   O     O_2   0.156671 0.714341 0.664167 -0.586047
O28   O     O_R   0.132189 0.803723 0.768366 -0.781576
H28   H     H_    0.094675 0.860922 0.739301 0.342053
C65   C     C_2   0.660611 0.197666 0.253537 1.128427
O29   O     O_2   0.647805 0.240581 0.192078 -0.511784
O30   O     O_R   0.618359 0.228204 0.298437 -0.757023
H29   H     H_    0.576936 0.268470 0.272942 0.357961
C66   C     C_2   0.335360 0.706096 0.743802 1.076423
O31   O     O_2   0.346289 0.759842 0.804214 -0.508450
O32   O     O_R   0.378908 0.731641 0.700177 -0.772845
H30   H     H_    0.418471 0.786486 0.725414 0.363362
N1    N     N_R   0.740701 0.663276 0.122946 0.265549
O33   O     O_R   0.745329 0.502361 0.154258 -0.405191
O34   O     O_R   0.750077 0.669148 0.058537 -0.291394
N2    N     N_R   0.260778 0.162011 0.876136 0.265684
O35   O     O_R   0.260383 0.001040 0.844883 -0.383728
O36   O     O_R   0.247337 0.165936 0.938902 -0.300053
N3    N     N_R   0.701184 0.972778 0.103922 0.254608
O37   O     O_R   0.736167 0.077589 0.072346 -0.327027
O38   O     O_R   0.645420 0.947595 0.072447 -0.212797
N4    N     N_R   0.297981 0.473720 0.897102 0.253775
O39   O     O_R   0.262348 0.581445 0.926858 -0.328775
O40   O     O_R   0.353351 0.449389 0.929902 -0.214698
N5    N     N_R   0.645718 0.632497 0.203656 0.260196
O41   O     O_R   0.614226 0.586701 0.251729 -0.395870
O42   O     O_R   0.623744 0.579369 0.140322 -0.186661
N6    N     N_R   0.360727 0.147307 0.799953 0.263680
O43   O     O_R   0.400265 0.121179 0.758417 -0.416879
O44   O     O_R   0.377691 0.090564 0.863902 -0.172417
C67   C     C_2   0.766058 0.625531 0.366797 1.176006
O45   O     O_2   0.787153 0.627110 0.428942 -0.574176
O46   O     O_R   0.736693 0.467189 0.338173 -0.775028
H31   H     H_    0.728691 0.476358 0.285798 0.286315
C68   C     C_2   0.232895 0.103669 0.634860 1.070010
O47   O     O_2   0.188630 0.067513 0.590894 -0.512473
O48   O     O_R   0.283105 0.986207 0.638379 -0.781368
H32   H     H_    0.316034 0.019988 0.677722 0.326678
N7    N     N_R   0.598930 0.771815 0.866053 0.264161
O49   O     O_R   0.540310 0.749531 0.861225 -0.285890
O50   O     O_R   0.632794 0.757654 0.927139 -0.251932
N8    N     N_R   0.400608 0.261853 0.134221 0.263514
O51   O     O_R   0.459166 0.237671 0.139063 -0.291731
O52   O     O_R   0.366647 0.246126 0.073234 -0.252948

loop_
_geom_bond_atom_site_label_1
_geom_bond_atom_site_label_2
_geom_bond_distance
_ccdc_geom_bond_type
O17   V3    1.988215 S    
O15   C59   1.317846 A    
O4    V2    1.974150 S    
O48   H32   0.997546 S    
C33   C43   1.556610 S    
C9    C11   1.399059 A    
O22   H25   1.013817 S    
O1    C3    1.316576 A    
C50   N4    1.489691 S    
O2    C4    1.316242 A    
O11   C59   1.316296 A    
C2    O7    1.323786 A    
N5    O41   1.298094 A    
O3    V1    1.971232 S    
O28   H28   1.013154 S    
C11   N7    1.441816 S    
H4    C24   1.084166 S    
O5    C3    1.315574 A    
O19   V3    2.190476 S    
C5    H5    1.083958 S    
C6    H6    1.083934 S    
C20   C22   1.422237 A    
C44   C46   1.586394 S    
C62   O23   1.221930 D    
C1    C40   1.448766 S    
C63   O26   1.398547 S    
O11   V4    1.967309 S    
C5    C21   1.404186 A    
C54   C56   1.215329 T    
C47   N5    1.462143 S    
C68   O48   1.386438 S    
O20   V3    1.734279 S    
C27   H7    1.077221 S    
O24   H26   1.013906 S    
C28   H8    1.077189 S    
O16   C60   1.317571 A    
C66   O32   1.399893 S    
C33   H21   1.098490 S    
C35   C37   1.596629 S    
C6    C22   1.404140 A    
C36   C38   1.591552 S    
C61   O22   1.397811 S    
C33   C61   1.529815 S    
C10   C32   1.396858 A    
C39   C51   1.215697 T    
C37   H19   1.106391 S    
C26   H14   1.082807 S    
O14   C58   1.314189 A    
C17   C31   1.420833 A    
C67   O45   1.221856 D    
C13   C15   1.415797 A    
O18   V4    1.987493 S    
C38   H20   1.110407 S    
C17   C25   1.405004 A    
C7    C29   1.395564 A    
C47   H23   1.100533 S    
C57   O18   1.314847 A    
C8    C30   1.395578 A    
C53   C55   1.215610 T    
O14   V4    1.997492 S    
O12   C60   1.316807 A    
O6    V2    1.997496 S    
C50   N2    1.476662 S    
C23   C25   1.388891 A    
C34   C62   1.535552 S    
C24   C26   1.388891 A    
C42   C50   1.598475 S    
C41   C49   1.597190 S    
N5    O42   1.302930 A    
C4    C31   1.479631 S    
N8    O52   1.301605 A    
C45   C47   1.605988 S    
C2    C39   1.449478 S    
O19   V4    1.733305 S    
O12   V3    1.965656 S    
O16   V4    1.974185 S    
C64   O28   1.398722 S    
C35   C63   1.518518 S    
N6    O43   1.300278 A    
C21   C23   1.397988 A    
C43   C67   1.504121 S    
C47   C49   1.604311 S    
C10   H10   1.083553 S    
O5    V1    1.998943 S    
C35   C41   1.582117 S    
C34   C44   1.561067 S    
C15   C19   1.437362 A    
C14   C16   1.415723 A    
C48   H24   1.100626 S    
C35   H17   1.087523 S    
C22   C24   1.397977 A    
N7    O49   1.301845 A    
O10   V1    1.734722 S    
O6    C4    1.315526 A    
H16   C44   1.115184 S    
C9    H9    1.083782 S    
C25   H13   1.082826 S    
H1    C29   1.083754 S    
O1    V2    1.986339 S    
C37   C65   1.524037 S    
C42   C54   1.501572 S    
O2    V1    1.987055 S    
C43   C45   1.574849 S    
C41   C53   1.501197 S    
C64   O27   1.223092 D    
C40   C52   1.215401 T    
O13   V3    1.998939 S    
H3    C23   1.084208 S    
N2    O36   1.302546 A    
O9    V1    2.190626 S    
C65   O29   1.220689 D    
O10   V2    2.189253 S    
C18   C26   1.404921 A    
O4    C2    1.325425 A    
C12   N8    1.441837 S    
C19   C27   1.425579 A    
O30   H29   1.013421 S    
C7    C27   1.406776 A    
C56   C59   1.449197 S    
C18   C32   1.420853 A    
C9    C31   1.396833 A    
N3    O37   1.302425 A    
N1    O34   1.302708 A    
N8    O51   1.301836 A    
C37   C45   1.549132 S    
C49   N3    1.489637 S    
C33   C41   1.590109 S    
H2    C30   1.083741 S    
C16   C20   1.437315 A    
C38   C46   1.568872 S    
C5    C29   1.392495 A    
N6    O44   1.302746 A    
N2    O35   1.293518 A    
O3    C1    1.325518 A    
C6    C30   1.392458 A    
O26   H27   1.013469 S    
O13   C57   1.314169 A    
C49   N1    1.477474 S    
C34   H22   1.099731 S    
C58   O17   1.314572 A    
O15   V3    1.971267 S    
C44   C68   1.529906 S    
H15   C43   1.115737 S    
C36   H18   1.088596 S    
C10   C12   1.399039 A    
N7    O50   1.301582 A    
C66   O31   1.219814 D    
C1    O8    1.323422 A    
C11   C13   1.404501 A    
C3    C32   1.479915 S    
O8    V2    1.963024 S    
C63   O25   1.223106 D    
C12   C14   1.404376 A    
N3    O38   1.302622 A    
N1    O33   1.292503 A    
O20   V4    2.189102 S    
C34   C42   1.588412 S    
C15   C17   1.431445 A    
C48   C50   1.605571 S    
C46   C48   1.607659 S    
C67   O46   1.372170 S    
O7    V1    1.961448 S    
C20   C28   1.425623 A    
C8    C28   1.406750 A    
C8    C57   1.474863 S    
C55   C60   1.449814 S    
C46   C52   1.500069 S    
C7    C58   1.474824 S    
C48   N6    1.470288 S    
C38   C66   1.526382 S    
C16   C18   1.431524 A    
C19   C21   1.422301 A    
O9    V2    1.733749 S    
C68   O47   1.220627 D    
C65   O30   1.399543 S    
C45   C51   1.503718 S    
N4    O39   1.302145 A    
C36   C42   1.582448 S    
C13   H11   1.075124 S    
O46   H31   1.006231 S    
C61   O21   1.223323 D    
C14   H12   1.075102 S    
C36   C64   1.516513 S    
N4    O40   1.302422 A    
O32   H30   1.012829 S    
C62   O24   1.397645 S    
