data_mof_unit_66540.cif
_audit_creation_date              2012-12-10T18:59:15-0500
_audit_creation_method            fapswitch 2.2
_symmetry_space_group_name_H-M    P1
_symmetry_Int_Tables_number       1
_space_group_crystal_system       triclinic
_cell_length_a                    10.923261
_cell_length_b                    10.859222
_cell_length_c                    9.627803
_cell_angle_alpha                 91.320096
_cell_angle_beta                  91.267253
_cell_angle_gamma                 96.136827
_cell_volume                      1134.83890712

loop_
_atom_site_label
_atom_site_type_symbol
_atom_type_description
_atom_site_fract_x
_atom_site_fract_y
_atom_site_fract_z
_atom_type_partial_charge
C1    C     C_R   0.486715 0.262840 0.498536 0.845970
C2    C     C_R   0.072114 0.590408 0.593667 -0.117820
C3    C     C_R   0.130571 0.510768 0.501808 -0.044666
C4    C     C_R   0.058996 0.428007 0.410472 -0.283333
C5    C     C_R   0.930805 0.416675 0.412926 -0.033729
C6    C     C_R   0.871988 0.498446 0.497095 -0.084938
C7    C     C_R   0.580867 0.082824 0.554221 -0.074185
C8    C     C_R   0.480281 0.129675 0.497695 -0.187342
C9    C     C_R   0.385394 0.048420 0.431927 0.347008
C10   C     C_R   0.392742 0.917431 0.435885 0.401186
C11   C     C_R   0.499678 0.873408 0.495656 -0.311964
C12   C     C_R   0.263585 0.506422 0.500078 0.851057
C13   C     C_R   0.600131 0.959780 0.537235 -0.084201
C14   C     C_3   0.675838 0.972420 0.670580 0.372682
C15   C     C_3   0.628770 0.096381 0.700119 -0.291969
C16   C     C_R   0.572157 0.585813 0.078312 0.115826
C17   C     C_R   0.430277 0.411412 0.070375 -0.145155
C18   C     C_R   0.426083 0.413627 0.921085 0.573905
C19   C     C_R   0.582442 0.580890 0.932694 0.108475
C20   C     C_3   0.598367 0.721893 0.937167 0.205181
C21   C     C_3   0.566853 0.720256 0.090439 0.238975
C22   C     C_R   0.505916 0.738805 0.500468 0.969619
C23   C     C_R   0.736511 0.492162 0.499837 0.851567
C24   C     C_R   0.131971 0.672814 0.700339 0.357291
C25   C     C_R   0.054595 0.732900 0.790920 0.305037
C26   C     C_R   0.943388 0.760655 0.737119 -0.205381
C27   C     C_R   0.891200 0.698437 0.620124 0.455060
C28   C     C_R   0.943637 0.593299 0.572519 -0.123959
Cu1   Cu    Cu3+1 0.499990 0.499980 0.640670 1.046041
Cu2   Cu    Cu3+1 0.500010 0.500020 0.359330 1.010343
H1    H     H_    0.103499 0.367619 0.341009 0.150748
H2    H     H_    0.552728 0.089378 0.775619 0.118678
H3    H     H_    0.374890 0.339559 0.123685 0.160213
H4    H     H_    0.531535 0.761453 0.868271 0.115586
H5    H     H_    0.635453 0.761312 0.169504 0.085612
H6    H     H_    0.901311 0.833249 0.784810 0.259444
H7    H     H_    0.640853 0.901624 0.743076 0.126893
N1    N     N_R   0.500790 0.500930 0.147930 -0.193996
N2    N     N_R   0.500790 0.500890 0.852020 -0.236120
O1    O     O_R   0.500000 0.319640 0.618810 -0.555610
O2    O     O_R   0.500010 0.319680 0.381230 -0.574797
O3    O     O_R   0.319640 0.499980 0.618820 -0.525822
O4    O     O_R   0.319650 0.500020 0.381230 -0.580644
O5    O     O_R   0.499990 0.680320 0.618770 -0.569656
O6    O     O_R   0.500000 0.680360 0.381190 -0.527062
O7    O     O_R   0.680350 0.499980 0.618770 -0.543736
O8    O     O_R   0.680360 0.500020 0.381180 -0.598077
O9    O     O_3   0.806724 0.978116 0.657453 -0.563195
C29   C     C_3   0.859506 0.045244 0.544344 -0.224664
H8    H     H_    0.877575 0.145423 0.568631 0.160853
H9    H     H_    0.806393 0.029978 0.445053 0.164454
H10   H     H_    0.951660 0.014710 0.527178 0.142480
C30   C     C_1   0.719309 0.204115 0.732219 0.355089
N3    N     N_1   0.790036 0.288874 0.759269 -0.304529
O10   O     O_3   0.352513 0.323974 0.844288 -0.567400
C31   C     C_3   0.227455 0.332651 0.872405 -0.319528
H11   H     H_    0.203367 0.429466 0.865487 0.167877
H12   H     H_    0.203210 0.294388 0.975437 0.156555
H13   H     H_    0.170076 0.276120 0.792838 0.189408
O11   O     O_3   0.722960 0.769694 0.917292 -0.582017
C32   C     C_3   0.752954 0.887539 0.985725 -0.345233
H14   H     H_    0.797534 0.875651 0.088550 0.167368
H15   H     H_    0.673359 0.941942 0.996878 0.131996
H16   H     H_    0.820437 0.947281 0.926963 0.216799
O12   O     O_3   0.445582 0.750111 0.111263 -0.549607
C33   C     C_3   0.445299 0.880254 0.109733 -0.224158
H17   H     H_    0.467439 0.917761 0.006085 0.085677
H18   H     H_    0.510337 0.927627 0.189343 0.153543
H19   H     H_    0.351201 0.903696 0.131246 0.236950
O13   O     O_3   0.259828 0.696451 0.711071 -0.553478
C34   C     C_3   0.299862 0.818390 0.761132 -0.208479
H20   H     H_    0.305581 0.820649 0.875537 0.214678
H21   H     H_    0.242244 0.889359 0.722378 0.135061
H22   H     H_    0.393975 0.846746 0.728317 0.129613
O14   O     O_3   0.092975 0.783746 0.919627 -0.588291
C35   C     C_3   0.110413 0.686652 0.010428 -0.255947
H23   H     H_    0.188438 0.635401 0.978399 0.185521
H24   H     H_    0.024766 0.621873 0.018432 0.160016
H25   H     H_    0.133861 0.727148 0.115568 0.204775
O15   O     O_3   0.791037 0.741446 0.553507 -0.545187
C36   C     C_3   0.822298 0.772176 0.415269 -0.305340
H26   H     H_    0.824609 0.689484 0.346506 0.163458
H27   H     H_    0.912663 0.829169 0.410080 0.130036
H28   H     H_    0.751093 0.825955 0.370948 0.164436
C37   C     C_1   0.861670 0.321587 0.326928 0.210288
N4    N     N_1   0.806195 0.245475 0.258086 -0.304329
O16   O     O_3   0.290020 0.094838 0.359828 -0.582774
C38   C     C_3   0.212516 0.149000 0.454054 -0.366170
H29   H     H_    0.245807 0.247631 0.474752 0.167848
H30   H     H_    0.202853 0.100254 0.554527 0.144597
H31   H     H_    0.119240 0.145553 0.405330 0.176026
O17   O     O_3   0.306236 0.829078 0.371520 -0.545687
C39   C     C_3   0.183127 0.850256 0.393722 -0.255781
H32   H     H_    0.168429 0.887944 0.499245 0.133724
H33   H     H_    0.125310 0.760240 0.382710 0.160895
H34   H     H_    0.149806 0.909469 0.311757 0.203539

loop_
_geom_bond_atom_site_label_1
_geom_bond_atom_site_label_2
_ccdc_geom_bond_type
C33   H18   S    
O16   C38   S    
O14   C35   S    
C39   H32   S    
Cu1   O3    S    
C1    C8    S    
Cu2   O6    S    
C19   C20   S    
C35   H25   S    
O10   C31   S    
C36   H26   S    
C24   O13   S    
C7    C8    A    
C30   N3    T    
C26   C27   A    
C16   C21   S    
C15   C30   S    
C35   H24   S    
C12   O4    A    
C5    C6    A    
C33   H19   S    
C31   H11   S    
Cu2   N1    S    
C32   H15   S    
C12   O3    A    
C3    C12   S    
C1    O1    A    
C22   O5    A    
C8    C9    A    
C29   H9    S    
Cu2   O2    S    
O13   C34   S    
C20   O11   S    
C9    C10   A    
C5    C37   S    
C7    C15   S    
C33   H17   S    
C10   O17   S    
C39   H33   S    
C23   O7    A    
C13   C14   S    
C17   H3    S    
C36   H27   S    
C6    C28   A    
C23   O8    A    
Cu2   O8    S    
C15   H2    S    
C24   C25   A    
C27   O15   S    
C34   H21   S    
C4    C5    A    
C14   O9    S    
C25   C26   A    
C37   N4    T    
O11   C32   S    
C25   O14   S    
C32   H16   S    
C18   N2    A    
Cu1   Cu2   S    
C38   H31   S    
C29   H10   S    
Cu1   N2    S    
C17   C18   A    
C35   H23   S    
C19   N2    A    
C18   O10   S    
C1    O2    A    
O9    C29   S    
C38   H30   S    
C29   H8    S    
C39   H34   S    
Cu1   O5    S    
C2    C24   A    
Cu2   O4    S    
C3    C4    A    
C36   H28   S    
C26   H6    S    
C21   O12   S    
C20   C21   S    
O15   C36   S    
C34   H22   S    
C21   H5    S    
C11   C22   S    
C31   H13   S    
Cu1   O7    S    
C2    C3    A    
C20   H4    S    
C34   H20   S    
C9    O16   S    
C14   H7    S    
C11   C13   A    
C16   C19   A    
C6    C23   S    
Cu1   O1    S    
O17   C39   S    
C31   H12   S    
C17   N1    A    
C32   H14   S    
C4    H1    S    
C10   C11   A    
C7    C13   A    
C22   O6    A    
C38   H29   S    
O12   C33   S    
C27   C28   A    
C14   C15   S    
C2    C28   A    
C16   N1    A    
