data_mof_unit_47094.cif
_audit_creation_date              2012-12-10T20:38:16-0500
_audit_creation_method            fapswitch 2.2
_symmetry_space_group_name_H-M    P1
_symmetry_Int_Tables_number       1
_space_group_crystal_system       triclinic
_cell_length_a                    9.849684
_cell_length_b                    10.698946
_cell_length_c                    16.705777
_cell_angle_alpha                 90.118922
_cell_angle_beta                  85.054585
_cell_angle_gamma                 89.790005
_cell_volume                      1753.9048554

loop_
_atom_site_label
_atom_site_type_symbol
_atom_type_description
_atom_site_fract_x
_atom_site_fract_y
_atom_site_fract_z
_atom_type_partial_charge
C1    C     C_R   0.500685 0.739568 0.495220 0.884682
C2    C     C_R   0.348706 0.437174 0.779665 -0.198183
C3    C     C_R   0.447599 0.328489 0.158871 -0.243665
C4    C     C_R   0.432461 0.375418 0.236360 -0.165617
C5    C     C_R   0.649765 0.481677 0.213857 -0.255573
C6    C     C_R   0.664118 0.437141 0.135220 0.436389
C7    C     C_R   0.560879 0.362088 0.107161 0.026142
C8    C     C_2   0.452338 0.407525 0.988453 -0.346588
C9    C     C_2   0.552502 0.345738 0.021221 0.419656
C10   C     C_R   0.532020 0.454271 0.263566 -0.092410
C11   C     C_R   0.396495 0.935677 0.534030 0.002545
C12   C     C_R   0.480756 0.499735 0.653436 0.872166
C13   C     C_R   0.502537 0.871907 0.490791 -0.083099
C14   C     C_R   0.616098 0.937109 0.452960 0.083953
C15   C     C_R   0.615821 0.066942 0.460066 -0.210099
C16   C     C_R   0.503292 0.128691 0.498976 -0.087524
C17   C     C_R   0.397433 0.062691 0.538725 0.037168
C18   C     C_3   0.247035 0.074260 0.534690 -0.478808
C19   C     C_3   0.245088 0.932811 0.528357 0.255088
C20   C     C_R   0.922182 0.587799 0.542987 0.217389
C21   C     C_R   0.935287 0.420619 0.452013 -0.118297
C22   C     C_R   0.079384 0.420552 0.452045 -0.118367
C23   C     C_R   0.500464 0.260344 0.499502 0.891874
C24   C     C_R   0.064951 0.587951 0.542857 0.284567
C25   C     C_3   0.058213 0.606627 0.631483 -0.511174
C26   C     C_3   0.904297 0.605554 0.631769 -0.514562
C27   C     C_R   0.519115 0.493956 0.346904 0.880639
C28   C     C_R   0.467846 0.487555 0.740316 -0.045168
C29   C     C_R   0.578446 0.517456 0.783868 -0.213389
C30   C     C_R   0.573048 0.491167 0.865117 -0.052766
C31   C     C_R   0.457290 0.434086 0.903205 0.212267
C32   C     C_R   0.343204 0.411379 0.861360 -0.129411
H1    H     H_    0.669255 0.560013 0.755118 0.153235
H2    H     H_    0.698989 0.121494 0.432084 0.154254
H3    H     H_    0.195097 0.110050 0.591936 0.174627
H4    H     H_    0.219377 0.123757 0.479861 0.235519
H5    H     H_    0.189241 0.887009 0.580872 0.100203
H6    H     H_    0.886498 0.354812 0.414567 0.147712
H7    H     H_    0.139586 0.354674 0.414629 0.143631
H8    H     H_    0.098954 0.525432 0.663323 0.215757
H9    H     H_    0.343106 0.349562 0.275099 0.164969
H10   H     H_    0.099237 0.698766 0.648082 0.201479
H11   H     H_    0.857581 0.522815 0.663162 0.223981
H12   H     H_    0.855959 0.696880 0.648929 0.208420
H13   H     H_    0.728375 0.540406 0.235428 0.178716
H14   H     H_    0.251958 0.370771 0.891373 0.163852
H15   H     H_    0.367016 0.271986 0.137466 0.173933
H16   H     H_    0.262003 0.413731 0.746958 0.155167
H17   H     H_    0.371417 0.453024 0.026450 0.159732
H18   H     H_    0.659218 0.514867 0.898305 0.192702
N1    N     N_R   0.857140 0.500860 0.500530 -0.112137
N2    N     N_R   0.142780 0.500820 0.500530 -0.109043
O1    O     O_R   0.385310 0.683210 0.499990 -0.569682
O2    O     O_R   0.614650 0.683240 0.500000 -0.642195
O3    O     O_R   0.371780 0.500000 0.615800 -0.627336
O4    O     O_R   0.601120 0.500040 0.615800 -0.611199
O5    O     O_R   0.385350 0.316760 0.500000 -0.626116
O6    O     O_R   0.614690 0.316790 0.500010 -0.623231
O7    O     O_R   0.398880 0.499960 0.384200 -0.603015
O8    O     O_R   0.628220 0.500000 0.384200 -0.626293
Zn1   Zn    Zn3+2 0.346870 0.499980 0.499990 0.972239
Zn2   Zn    Zn3+2 0.653130 0.500020 0.500010 0.944067
Cl1   Cl    Cl    0.805935 0.486948 0.072022 -0.587604
C33   C     C_3   0.730627 0.868831 0.402616 -0.369737
C34   C     C_3   0.817708 0.949550 0.341997 -0.395387
C35   C     C_3   0.911919 0.868391 0.285958 -0.735237
H19   H     H_    0.978465 0.809805 0.321167 0.290905
H20   H     H_    0.851241 0.806668 0.249217 0.252803
H21   H     H_    0.977203 0.929017 0.244928 0.261439
H22   H     H_    0.750655 0.004891 0.305057 0.237520
H23   H     H_    0.881910 0.014263 0.374544 0.240657
H24   H     H_    0.799365 0.824291 0.443702 0.229513
H25   H     H_    0.683934 0.794129 0.367677 0.210217
Cl2   Cl    Cl    0.196807 0.880764 0.432959 -0.644436
Cl3   Cl    Cl    0.679587 0.259043 0.963854 -0.544421

loop_
_geom_bond_atom_site_label_1
_geom_bond_atom_site_label_2
_ccdc_geom_bond_type
C10   C27   S    
O6    Zn2   S    
C23   O6    A    
C35   H20   S    
C24   N2    A    
C26   H12   S    
C11   C19   S    
C12   C28   S    
O8    Zn2   S    
C28   C29   A    
C20   N1    A    
C3    C7    A    
N2    Zn1   S    
C25   H8    S    
C5    C6    A    
C35   H21   S    
C4    H9    S    
C34   H22   S    
C29   H1    S    
C2    C32   A    
C18   C19   S    
C1    O1    A    
C19   H5    S    
O1    Zn1   S    
C21   H6    S    
C20   C24   A    
C16   C17   A    
C33   H25   S    
C18   H3    S    
C15   H2    S    
C35   H19   S    
C30   H18   S    
C21   C22   A    
N1    Zn2   S    
C26   H11   S    
O7    Zn1   S    
C24   C25   S    
C8    C9    D    
O2    Zn2   S    
C2    H16   S    
C25   C26   S    
C34   H23   S    
C5    H13   S    
C6    Cl1   S    
C1    O2    A    
C29   C30   A    
C31   C32   A    
C14   C33   S    
C17   C18   S    
C12   O4    A    
C16   C23   S    
O4    Zn2   S    
C1    C13   S    
C4    C10   A    
C3    C4    A    
C21   N1    A    
C22   N2    A    
C23   O5    A    
C11   C17   A    
C8    C31   S    
C32   H14   S    
C19   Cl2   S    
C25   H10   S    
O5    Zn1   S    
C6    C7    A    
C27   O8    A    
C33   C34   S    
C5    C10   A    
C27   O7    A    
C11   C13   A    
C30   C31   A    
C20   C26   S    
C22   H7    S    
O3    Zn1   S    
C3    H15   S    
C33   H24   S    
C12   O3    A    
C7    C9    S    
C34   C35   S    
C14   C15   A    
C2    C28   A    
C9    Cl3   S    
C13   C14   A    
C18   H4    S    
C8    H17   S    
C15   C16   A    
