data_mof_unit_35656.cif
_audit_creation_date              2012-12-10T19:46:41-0500
_audit_creation_method            fapswitch 2.2
_symmetry_space_group_name_H-M    P1
_symmetry_Int_Tables_number       1
_space_group_crystal_system       triclinic
_cell_length_a                    12.871244
_cell_length_b                    15.077519
_cell_length_c                    14.270624
_cell_angle_alpha                 90.318415
_cell_angle_beta                  94.337856
_cell_angle_gamma                 91.333339
_cell_volume                      2760.69347851

loop_
_atom_site_label
_atom_site_type_symbol
_atom_type_description
_atom_site_fract_x
_atom_site_fract_y
_atom_site_fract_z
_atom_type_partial_charge
C1    C     C_R   0.506192 0.327889 0.500336 0.918410
C2    C     C_R   0.535770 0.952386 0.498715 0.058033
C3    C     C_R   0.405011 0.490932 0.100361 -0.315807
C4    C     C_R   0.569421 0.552539 0.899453 -0.305712
C5    C     C_R   0.408945 0.485056 0.198971 -0.125724
C6    C     C_R   0.572078 0.548942 0.801179 -0.095875
C7    C     C_R   0.588504 0.521304 0.208276 0.221135
C8    C     C_R   0.424886 0.451151 0.790319 0.215853
C9    C     C_R   0.591372 0.510317 0.110101 0.373380
C10   C     C_R   0.424813 0.447687 0.889627 0.378055
C11   C     C_R   0.497349 0.500595 0.053101 0.019726
C12   C     C_R   0.499292 0.672450 0.500253 0.914128
C13   C     C_R   0.496746 0.500569 0.946326 0.023945
C14   C     C_R   0.299364 0.502885 0.483461 0.911812
C15   C     C_R   0.701124 0.497285 0.516516 0.913758
C16   C     C_R   0.811791 0.486458 0.523723 -0.129994
C17   C     C_R   0.189409 0.512950 0.475324 -0.113430
C18   C     C_R   0.034015 0.578605 0.403337 0.511203
C19   C     C_R   0.967458 0.416400 0.589514 0.495173
C20   C     C_R   0.143303 0.578450 0.417152 0.000021
C21   C     C_R   0.859052 0.423355 0.584762 0.066498
C22   C     C_R   0.131215 0.457114 0.528618 -0.303633
C23   C     C_R   0.523333 0.232310 0.501624 -0.251145
C24   C     C_R   0.869337 0.537290 0.464269 -0.289012
C25   C     C_R   0.024970 0.466730 0.527808 -0.041169
C26   C     C_R   0.975765 0.527513 0.464328 -0.011704
C27   C     C_R   0.515407 0.092836 0.582906 -0.303580
C28   C     C_R   0.490270 0.908455 0.419100 -0.291958
C29   C     C_R   0.515606 0.184621 0.586007 0.416238
C30   C     C_R   0.480234 0.816402 0.417476 0.405594
C31   C     C_3   0.679377 0.567952 0.259808 -0.789407
C32   C     C_3   0.335708 0.405954 0.733151 -0.733927
C33   C     C_3   0.721137 0.428755 0.055916 0.099507
C34   C     C_R   0.505776 0.769090 0.501067 -0.256396
C35   C     C_3   0.804999 0.431500 0.986237 -0.843304
C36   C     C_3   0.383444 0.314404 0.953934 0.074527
C37   C     C_3   0.308251 0.269515 0.016998 -0.837306
C38   C     C_3   0.794883 0.362572 0.642818 -0.841517
C39   C     C_3   0.209473 0.651400 0.377409 -0.792076
C40   C     C_3   0.017032 0.609591 0.244070 0.080490
C41   C     C_3   0.925924 0.610903 0.170241 -0.817282
C42   C     C_3   0.033878 0.400450 0.740761 0.077818
C43   C     C_3   0.060911 0.331188 0.815228 -0.808021
C44   C     C_3   0.597520 0.209354 0.732042 0.126257
C45   C     C_R   0.551825 0.188439 0.419523 0.434969
C46   C     C_3   0.617213 0.283526 0.804236 -0.850772
C47   C     C_3   0.494972 0.781012 0.262975 0.139960
C48   C     C_3   0.439632 0.735390 0.177345 -0.821708
C49   C     C_3   0.555277 0.194915 0.255715 0.125788
C50   C     C_3   0.550600 0.263077 0.177866 -0.842841
C51   C     C_3   0.487983 0.811276 0.733256 0.116135
C52   C     C_3   0.474199 0.750063 0.815651 -0.819378
C53   C     C_R   0.542153 0.815061 0.584271 0.427669
C54   C     C_R   0.563387 0.096278 0.422420 -0.322400
C55   C     C_R   0.566454 0.905031 0.579140 -0.310185
C56   C     C_R   0.539452 0.048711 0.501612 0.071649
H1    H     H_    0.830630 0.585953 0.419210 0.205855
H2    H     H_    0.629417 0.588586 0.767439 0.186703
H3    H     H_    0.653841 0.608445 0.318219 0.249173
H4    H     H_    0.738749 0.519117 0.283372 0.247311
H5    H     H_    0.714407 0.617210 0.213432 0.226220
H6    H     H_    0.361753 0.368509 0.673428 0.279080
H7    H     H_    0.292970 0.356655 0.773482 0.228609
H8    H     H_    0.278701 0.456615 0.710035 0.219325
H9    H     H_    0.657555 0.382797 0.026339 0.130528
H10   H     H_    0.755294 0.401873 0.123525 0.145366
H11   H     H_    0.871417 0.474974 0.013255 0.255282
H12   H     H_    0.169953 0.407437 0.572414 0.200526
H13   H     H_    0.833804 0.363623 0.975418 0.204901
H14   H     H_    0.772513 0.457161 0.917605 0.257519
H15   H     H_    0.461909 0.317910 0.992439 0.133468
H16   H     H_    0.386315 0.272796 0.889697 0.161645
H17   H     H_    0.229520 0.263038 0.979674 0.256972
H18   H     H_    0.336050 0.202384 0.036253 0.207942
H19   H     H_    0.303244 0.309157 0.082236 0.256413
H20   H     H_    0.840167 0.306800 0.673775 0.262625
H21   H     H_    0.765497 0.401133 0.701240 0.238731
H22   H     H_    0.728641 0.332681 0.598213 0.233713
H23   H     H_    0.497062 0.056551 0.645043 0.143725
H24   H     H_    0.163259 0.711082 0.359889 0.247755
H25   H     H_    0.272149 0.673710 0.430617 0.242281
H26   H     H_    0.245093 0.627259 0.313840 0.243631
H27   H     H_    0.053441 0.543267 0.239832 0.130169
H28   H     H_    0.074002 0.661294 0.224443 0.166149
H29   H     H_    0.882373 0.673161 0.176007 0.264303
H30   H     H_    0.955087 0.607247 0.099089 0.207628
H31   H     H_    0.874013 0.552476 0.179371 0.270545
H32   H     H_    0.963802 0.435490 0.761842 0.142736
H33   H     H_    0.099603 0.449435 0.739725 0.148722
H34   H     H_    0.459959 0.945742 0.358812 0.150755
H35   H     H_    0.127402 0.291451 0.795300 0.262706
H36   H     H_    0.082247 0.364338 0.883915 0.222333
H37   H     H_    0.992667 0.285970 0.822465 0.240828
H38   H     H_    0.669552 0.204101 0.693575 0.131553
H39   H     H_    0.585053 0.146161 0.769850 0.129535
H40   H     H_    0.556734 0.281436 0.855020 0.220288
H41   H     H_    0.694287 0.275500 0.843367 0.204149
H42   H     H_    0.616165 0.348813 0.769036 0.278564
H43   H     H_    0.570481 0.748083 0.280016 0.139617
H44   H     H_    0.510584 0.851274 0.243978 0.114852
H45   H     H_    0.590031 0.060557 0.363223 0.130705
H46   H     H_    0.368529 0.771974 0.153861 0.243229
H47   H     H_    0.492187 0.733426 0.119154 0.204241
H48   H     H_    0.416523 0.666740 0.195200 0.271075
H49   H     H_    0.478696 0.158447 0.252850 0.126793
H50   H     H_    0.618609 0.148704 0.242175 0.135244
H51   H     H_    0.542767 0.228539 0.108756 0.188559
H52   H     H_    0.482859 0.306298 0.184142 0.266087
H53   H     H_    0.623107 0.304523 0.182701 0.245229
H54   H     H_    0.408841 0.823718 0.698942 0.133619
H55   H     H_    0.523118 0.874817 0.761840 0.127627
H56   H     H_    0.603873 0.938799 0.640262 0.145991
H57   H     H_    0.551314 0.736350 0.852101 0.250511
H58   H     H_    0.425215 0.782155 0.866297 0.199710
H59   H     H_    0.434751 0.687223 0.790392 0.266614
H60   H     H_    0.329168 0.488429 0.062473 0.224576
H61   H     H_    0.623352 0.597958 0.937824 0.218206
H62   H     H_    0.337468 0.473256 0.232489 0.165275
N1    N     N_R   0.500000 0.499980 0.252470 -0.096811
N2    N     N_R   0.500000 0.500020 0.747530 -0.116199
O1    O     O_R   0.500010 0.369070 0.579480 -0.593073
O2    O     O_3   0.347053 0.399444 0.929870 -0.633123
O3    O     O_3   0.982780 0.629776 0.334047 -0.625887
O4    O     O_3   0.016793 0.358119 0.652041 -0.619008
O5    O     O_3   0.508115 0.227571 0.671434 -0.592611
O6    O     O_3   0.431198 0.774090 0.339159 -0.593935
O7    O     O_3   0.578325 0.238855 0.342779 -0.578329
O8    O     O_3   0.554007 0.772153 0.670141 -0.585865
O9    O     O_R   0.499990 0.630930 0.420520 -0.600250
O10   O     O_R   0.500010 0.369060 0.420520 -0.556490
O11   O     O_R   0.499990 0.630940 0.579480 -0.564749
O12   O     O_R   0.346360 0.499990 0.566340 -0.640942
O13   O     O_R   0.653640 0.500010 0.433660 -0.629065
O14   O     O_R   0.346360 0.499980 0.407390 -0.627557
O15   O     O_R   0.653640 0.500020 0.592610 -0.624710
O16   O     O_3   0.686222 0.515579 0.070497 -0.632819
Zn1   Zn    Zn3+2 0.500000 0.500010 0.606140 0.957774
Zn2   Zn    Zn3+2 0.500000 0.499990 0.393860 0.967154

loop_
_geom_bond_atom_site_label_1
_geom_bond_atom_site_label_2
_ccdc_geom_bond_type
C37   H18   S    
C30   O6    S    
C16   C21   A    
C23   C45   A    
C12   O11   A    
C29   O5    S    
C55   H56   S    
C27   C29   A    
C31   H5    S    
C54   H45   S    
C18   C26   A    
C42   O4    S    
C38   H20   S    
C52   H57   S    
C41   H30   S    
C5    N1    A    
C51   O8    S    
C23   C29   A    
C36   C37   S    
C19   C21   A    
C24   C26   A    
C27   H23   S    
C2    C55   A    
C15   O15   A    
C31   H3    S    
C15   C16   S    
C48   H48   S    
C17   C20   A    
C47   H43   S    
O15   Zn1   S    
O1    Zn1   S    
C4    C13   A    
C40   H28   S    
C33   C35   S    
C22   H12   S    
C21   C38   S    
C35   H14   S    
C24   H1    S    
C22   C25   A    
C36   H15   S    
C18   O3    S    
C46   H42   S    
O13   Zn2   S    
C16   C24   A    
C50   H52   S    
C14   C17   S    
C40   H27   S    
C41   H31   S    
C6    N2    A    
C44   C46   S    
C33   H10   S    
C53   C55   A    
C49   O7    S    
C54   C56   A    
C19   O4    S    
C7    C31   S    
C12   O9    A    
C30   C34   A    
C33   H9    S    
C51   C52   S    
C8    C32   S    
C7    N1    A    
C3    C11   A    
C32   H8    S    
C4    C6    A    
C1    O10   A    
C20   C39   S    
C27   C56   A    
C49   H49   S    
C14   O14   A    
C10   O2    S    
C25   C26   A    
C48   H47   S    
C50   H53   S    
C43   H35   S    
C47   H44   S    
C31   H4    S    
C36   O2    S    
O11   Zn1   S    
C53   O8    S    
C47   C48   S    
C35   H11   S    
C48   H46   S    
C9    C11   A    
C39   H25   S    
C40   C41   S    
C46   H41   S    
C45   C54   A    
C1    C23   S    
C51   H54   S    
C50   H51   S    
O9    Zn2   S    
C4    H61   S    
C42   H32   S    
C42   C43   S    
C12   C34   S    
O10   Zn2   S    
C8    N2    A    
C47   O6    S    
C52   H59   S    
C7    C9    A    
C40   O3    S    
C37   H17   S    
C51   H55   S    
N1    Zn2   S    
C17   C22   A    
C39   H26   S    
C3    C5    A    
C10   C13   A    
O14   Zn2   S    
C28   H34   S    
C44   O5    S    
C49   H50   S    
C15   O13   A    
C38   H21   S    
C52   H58   S    
C32   H7    S    
C41   H29   S    
C38   H22   S    
C43   H36   S    
C5    H62   S    
C3    H60   S    
C42   H33   S    
C39   H24   S    
C28   C30   A    
O12   Zn1   S    
C32   H6    S    
C44   H39   S    
C2    C56   S    
C11   C13   S    
C33   O16   S    
C45   O7    S    
C14   O12   A    
C43   H37   S    
C18   C20   A    
C6    H2    S    
C37   H19   S    
C19   C25   A    
C1    O1    A    
C44   H38   S    
C9    O16   S    
C46   H40   S    
C35   H13   S    
C34   C53   A    
C8    C10   A    
C49   C50   S    
C2    C28   A    
N2    Zn1   S    
C36   H16   S    
