data_mof_unit_31784.cif
_audit_creation_date              2012-10-26T20:20:45-0400
_audit_creation_method            fapswitch 2.2
_symmetry_space_group_name_H-M    P1
_symmetry_Int_Tables_number       1
_space_group_crystal_system       triclinic
_cell_length_a                    8.732619
_cell_length_b                    10.832199
_cell_length_c                    9.540224
_cell_angle_alpha                 89.277616
_cell_angle_beta                  98.16222
_cell_angle_gamma                 90.583032
_cell_volume                      893.198116412

loop_
_atom_site_label
_atom_site_type_symbol
_atom_type_description
_atom_site_fract_x
_atom_site_fract_y
_atom_site_fract_z
_atom_type_partial_charge
C1    C     C_R   0.498236 0.262267 0.500818 0.566362
C2    C     C_R   0.424911 0.059976 0.600997 0.114220
C3    C     C_R   0.501194 0.871574 0.496970 0.020920
C4    C     C_R   0.498814 0.128425 0.503034 0.020920
C5    C     C_R   0.393120 0.431393 0.061774 0.342391
C6    C     C_R   0.606879 0.568607 0.938226 0.342395
C7    C     C_R   0.393333 0.432550 0.912234 -0.040625
C8    C     C_R   0.606665 0.567454 0.087766 -0.040598
C9    C     C_3   0.578023 0.888207 0.155294 -0.293737
C10   C     C_3   0.422160 0.111878 0.844707 -0.293726
C11   C     C_R   0.501766 0.737733 0.499183 0.566362
C12   C     C_R   0.203731 0.499933 0.463615 0.547412
C13   C     C_R   0.796269 0.500067 0.536385 0.547405
C14   C     C_2   0.037705 0.500032 0.443722 -0.151561
C15   C     C_2   0.962295 0.499968 0.556277 -0.151561
C16   C     C_R   0.574149 0.068232 0.403898 -0.155499
C17   C     C_R   0.425862 0.931766 0.596108 -0.155515
C18   C     C_R   0.575105 0.940021 0.399013 0.114220
Cu1   Cu    Cu3+1 0.500000 0.500020 0.640660 1.011073
Cu2   Cu    Cu3+1 0.500000 0.499980 0.359340 1.011096
H1    H     H_    0.977318 0.500214 0.335897 0.134216
H2    H     H_    0.646753 0.839566 0.084173 0.130349
H3    H     H_    0.230475 0.089989 0.693333 0.241988
H4    H     H_    0.434239 0.014081 0.880575 0.126282
H5    H     H_    0.353421 0.160457 0.915876 0.130343
H6    H     H_    0.538365 0.156165 0.852688 0.173448
H7    H     H_    0.216915 0.319006 0.046636 0.283690
H8    H     H_    0.783092 0.680987 0.953363 0.283685
H9    H     H_    0.022682 0.499786 0.664103 0.134218
H10   H     H_    0.633520 0.120946 0.330252 0.130998
H11   H     H_    0.366500 0.879053 0.669761 0.130996
H12   H     H_    0.308280 0.379159 0.844335 0.118394
H13   H     H_    0.691717 0.620846 0.155665 0.118385
H14   H     H_    0.769613 0.909921 0.306819 0.241997
H15   H     H_    0.566136 0.986021 0.119453 0.126263
H16   H     H_    0.461747 0.844038 0.147211 0.173411
N1    N     N_R   0.500040 0.500030 0.852080 -0.218221
N2    N     N_R   0.499960 0.499970 0.147920 -0.218211
N3    N     N_2   0.655855 0.881025 0.299472 -0.498467
N4    N     N_2   0.344196 0.118964 0.700570 -0.498467
O1    O     O_R   0.499990 0.319660 0.618740 -0.485693
O2    O     O_3   0.712857 0.638983 0.877548 -0.661083
O3    O     O_R   0.500010 0.680340 0.381260 -0.485661
O4    O     O_R   0.499990 0.319630 0.381170 -0.472365
O5    O     O_R   0.500010 0.680370 0.618830 -0.472368
O6    O     O_R   0.274840 0.500010 0.591370 -0.521110
O7    O     O_R   0.725160 0.499990 0.408630 -0.521116
O8    O     O_R   0.274830 0.499980 0.353800 -0.443386
O9    O     O_R   0.725170 0.500020 0.646200 -0.443391
O10   O     O_3   0.287145 0.361015 0.122451 -0.661082

loop_
_geom_bond_atom_site_label_1
_geom_bond_atom_site_label_2
_ccdc_geom_bond_type
C4    C16   A    
C9    H16   S    
C2    C4    A    
C18   N3    S    
Cu1   O5    S    
C11   O3    A    
C15   H9    S    
Cu2   N2    S    
Cu1   O9    S    
C1    O4    A    
Cu1   Cu2   S    
H7    O10   S    
C12   O8    A    
C1    C4    S    
C10   H6    S    
C7    N1    A    
Cu1   O6    S    
Cu1   O1    S    
C5    N2    A    
C2    C17   A    
Cu2   O8    S    
C8    N2    A    
C13   O9    A    
C10   H5    S    
C1    O1    A    
Cu2   O4    S    
C12   C14   S    
C3    C17   A    
C5    C7    A    
C8    H13   S    
C13   C15   S    
C17   H11   S    
C9    H2    S    
C11   O5    A    
Cu2   O7    S    
C3    C11   S    
C16   H10   S    
H3    N4    S    
C2    N4    S    
C5    O10   S    
C9    N3    S    
Cu2   O3    S    
C14   H1    S    
C3    C18   A    
C16   C18   A    
C6    O2    S    
H8    O2    S    
C9    H15   S    
C14   C15   D    
C10   N4    S    
C6    C8    A    
C7    H12   S    
Cu1   N1    S    
C10   H4    S    
C13   O7    A    
H14   N3    S    
C6    N1    A    
C12   O6    A    
