data_mof_unit_15350.cif
_audit_creation_date              2013-03-05T15:58:07-0500
_audit_creation_method            fapswitch 2.2
_symmetry_space_group_name_H-M    P1
_symmetry_Int_Tables_number       1
_space_group_crystal_system       triclinic
_cell_length_a                    15.082103
_cell_length_b                    13.680312
_cell_length_c                    10.771413
_cell_angle_alpha                 89.928004
_cell_angle_beta                  90.176598
_cell_angle_gamma                 90.02241
_cell_volume                      2222.43027346

loop_
_atom_site_label
_atom_site_type_symbol
_atom_site_description
_atom_site_fract_x
_atom_site_fract_y
_atom_site_fract_z
_atom_type_partial_charge
O1    O     O_R   0.370250 0.582280 0.500040 -0.579155
O2    O     O_R   0.370250 0.417720 0.500040 -0.575283
C1    C     C_R   0.328462 0.500017 0.501698 0.881324
O3    O     O_R   0.499970 0.582270 0.317700 -0.530279
O4    O     O_R   0.499970 0.417730 0.317700 -0.545313
C2    C     C_R   0.494021 0.500255 0.259812 0.877443
Cu1   Cu    Cu3+1 0.499990 0.597420 0.500010 1.001957
Cu2   Cu    Cu3+1 0.499990 0.402580 0.500010 0.995031
O5    O     O_R   0.629730 0.582260 0.499980 -0.599531
O6    O     O_R   0.629730 0.417740 0.499980 -0.603007
O7    O     O_R   0.500000 0.582270 0.682320 -0.600937
O8    O     O_R   0.500000 0.417730 0.682320 -0.594163
C3    C     C_R   0.671545 0.500014 0.499676 0.805893
C4    C     C_R   0.497960 0.500090 0.740144 0.798104
C5    C     C_3   0.458028 0.606280 0.068145 0.531327
C6    C     C_3   0.422592 0.417853 0.068379 0.539932
C7    C     C_3   0.470455 0.604760 0.924477 -0.433961
C8    C     C_3   0.421002 0.429136 0.923231 -0.435685
H1    H     H_    0.411888 0.633466 0.873623 0.194219
H2    H     H_    0.356390 0.458428 0.889875 0.194249
H3    H     H_    0.524871 0.655176 0.896605 0.214823
H4    H     H_    0.427594 0.356697 0.877529 0.211055
H5    H     H_    0.633425 0.529336 0.107306 0.220583
H6    H     H_    0.607404 0.406144 0.112674 0.215587
H7    H     H_    0.637286 0.521786 0.895417 0.177951
H8    H     H_    0.602990 0.396633 0.900331 0.218865
C9    C     C_3   0.583392 0.476489 0.073600 -0.428696
C10   C     C_3   0.488212 0.501037 0.121339 -0.225271
C11   C     C_3   0.493739 0.500787 0.877555 -0.036621
C12   C     C_3   0.585041 0.471631 0.931037 -0.345134
C13   C     C_R   0.814774 0.588871 0.494422 -0.228925
C14   C     C_R   0.768390 0.500022 0.499314 -0.071512
C15   C     C_R   0.814730 0.411164 0.504046 -0.240234
C16   C     C_R   0.907101 0.410547 0.504474 0.107592
C17   C     C_R   0.953554 0.500022 0.499868 0.070870
C18   C     C_R   0.907154 0.589490 0.494671 0.106132
C19   C     C_R   0.953755 0.322025 0.509636 -0.197037
C20   C     C_R   0.046196 0.322035 0.510349 -0.176636
C21   C     C_R   0.092903 0.410564 0.505870 0.104400
C22   C     C_R   0.046507 0.500030 0.500559 0.064125
C23   C     C_R   0.092963 0.589505 0.495991 0.102312
C24   C     C_R   0.046314 0.678020 0.490633 -0.175277
C25   C     C_R   0.953871 0.678013 0.489978 -0.194260
C26   C     C_R   0.185268 0.411193 0.506564 -0.182804
C27   C     C_R   0.231639 0.500044 0.501964 -0.048108
C28   C     C_R   0.185328 0.588894 0.496776 -0.183625
H9    H     H_    0.779125 0.657642 0.490423 0.154467
H10   H     H_    0.779052 0.342384 0.507765 0.154806
H11   H     H_    0.918756 0.252878 0.513207 0.147243
H12   H     H_    0.081151 0.252897 0.514429 0.152283
H13   H     H_    0.220923 0.342429 0.510631 0.160755
H14   H     H_    0.221020 0.657664 0.493010 0.166708
H15   H     H_    0.081318 0.747162 0.487011 0.153961
H16   H     H_    0.918919 0.747152 0.485891 0.147838
C29   C     C_R   0.441404 0.793144 0.573542 0.031642
C30   C     C_R   0.441644 0.206661 0.573909 0.042586
N1    N     N_R   0.499930 0.743810 0.499950 -0.191002
N2    N     N_R   0.499930 0.256190 0.499950 -0.186732
C31   C     C_R   0.558702 0.793367 0.426817 0.098895
C32   C     C_R   0.558046 0.206842 0.425742 0.083005
C33   C     C_R   0.559777 0.896454 0.424529 -0.003118
C34   C     C_R   0.559428 0.103748 0.423954 -0.003358
C35   C     C_R   0.499841 0.948163 0.499847 0.087599
C36   C     C_R   0.499781 0.051842 0.499743 0.090123
C37   C     C_R   0.440049 0.896245 0.575399 -0.004388
C38   C     C_R   0.440127 0.103557 0.575510 -0.003955
C39   C     C_R   0.619037 0.948816 0.349002 -0.152581
C40   C     C_R   0.618805 0.051557 0.348624 -0.171690
C41   C     C_R   0.380714 0.051174 0.650795 -0.168382
C42   C     C_R   0.380633 0.948430 0.650673 -0.171347
H17   H     H_    0.395919 0.752056 0.631091 0.125325
H18   H     H_    0.396392 0.247598 0.631816 0.122108
H19   H     H_    0.604453 0.752451 0.369686 0.153501
H20   H     H_    0.603269 0.247922 0.367785 0.128579
H21   H     H_    0.665520 0.910330 0.290202 0.160673
H22   H     H_    0.665144 0.090171 0.289576 0.150233
H23   H     H_    0.334308 0.089638 0.709734 0.153503
H24   H     H_    0.334153 0.909810 0.709500 0.154385
N3    N     N_R   0.512231 0.688661 0.116864 0.119437
O9    O     O_R   0.597219 0.693168 0.097281 -0.423275
O10   O     O_R   0.473722 0.766282 0.161192 -0.301453
N4    N     N_R   0.454175 0.318229 0.101492 0.124205
O11   O     O_R   0.514981 0.274276 0.036616 -0.402909
O12   O     O_R   0.413641 0.267668 0.186738 -0.284042
N5    N     N_R   0.363781 0.624834 0.101039 0.135314
O13   O     O_R   0.342060 0.641476 0.215994 -0.284492
O14   O     O_R   0.300845 0.626126 0.017968 -0.352255
N6    N     N_R   0.330964 0.427939 0.116171 0.150349
O15   O     O_R   0.264645 0.395003 0.050689 -0.319111
O16   O     O_R   0.317636 0.440381 0.234240 -0.327753

loop_
_geom_bond_atom_site_label_1
_geom_bond_atom_site_label_2
_geom_bond_distance
_ccdc_geom_bond_type
C6    C10   1.611573 S    
C35   C37   1.408021 A    
C42   H24   1.083355 S    
C16   C19   1.401781 A    
C7    C11   1.550886 S    
C23   C24   1.401735 A    
C3    C14   1.460634 S    
C41   H23   1.083356 S    
C17   C18   1.411098 A    
H6    C9    1.110273 S    
Cu1   Cu2   2.665471 S    
C27   C28   1.403088 A    
Cu1   O7    1.974384 S    
C19   C20   1.394199 A    
O1    Cu1   1.967603 S    
C24   H15   1.083785 S    
C20   C21   1.401693 A    
O7    C4    1.284973 A    
N1    C31   1.366892 A    
C38   C41   1.405921 A    
N2    C32   1.367143 A    
C37   C42   1.405897 A    
C28   H14   1.084514 S    
C32   C34   1.410678 A    
C16   C17   1.411026 A    
C33   C35   1.407907 A    
O5    C3    1.290076 A    
C34   C36   1.408023 A    
Cu2   N2    2.002662 S    
C5    N3    1.487257 S    
C30   H18   1.082719 S    
C23   C28   1.393089 A    
H5    C9    1.105657 S    
C31   H19   1.082550 S    
C5    N5    1.487989 S    
C13   H9    1.084523 S    
C9    C12   1.537399 S    
O3    Cu1   1.974901 S    
C29   C37   1.410783 A    
N5    O14   1.302570 A    
C2    C10   1.493874 S    
C31   C33   1.410529 A    
C39   C40   1.405541 A    
O3    C2    1.287266 A    
C21   C22   1.411087 A    
N3    O10   1.302452 A    
N5    O13   1.302163 A    
C1    C27   1.460306 S    
C7    H3    1.113527 S    
N3    O9    1.301094 A    
O1    C1    1.289765 A    
C36   C38   1.408025 A    
C11   C12   1.543412 S    
C19   H11   1.083782 S    
C33   C39   1.405813 A    
C25   H16   1.083785 S    
C13   C14   1.403203 A    
Cu2   O8    1.974902 S    
C6    N4    1.486539 S    
C15   C16   1.393183 A    
C8    C11   1.551649 S    
C26   H13   1.084522 S    
Cu2   O6    1.967634 S    
C22   C23   1.411036 A    
O8    C4    1.288508 A    
H8    C12   1.112189 S    
N4    O12   1.302635 A    
C29   N1    1.367156 A    
C39   H21   1.083372 S    
C24   C25   1.394238 A    
C4    C11   1.481718 S    
C26   C27   1.403013 A    
H7    C12   1.113396 S    
C5    C7    1.559550 S    
C8    H4    1.111700 S    
O2    Cu2   1.967765 S    
N6    O16   1.299585 A    
O6    C3    1.289967 A    
O4    Cu2   1.974383 S    
C21   C26   1.393083 A    
C20   H12   1.083789 S    
C40   H22   1.083337 S    
C34   C40   1.405907 A    
C14   C15   1.403234 A    
C17   C22   1.401908 A    
C5    C10   1.614085 S    
O4    C2    1.292040 A    
C30   C38   1.410745 A    
C32   H20   1.082686 S    
C7    H1    1.109620 S    
C30   N2    1.367121 A    
O2    C1    1.290634 A    
C8    H2    1.112237 S    
C41   C42   1.405575 A    
C35   C36   1.418359 A    
Cu1   O5    1.967795 S    
N6    O15   1.302706 A    
C6    C8    1.570962 S    
N4    O11   1.302430 A    
C9    C10   1.563100 S    
C6    N6    1.482756 S    
C15   H10   1.084507 S    
C13   C18   1.393297 A    
C18   C25   1.401772 A    
Cu1   N1    2.002661 S    
C29   H17   1.082703 S    
