data_mof_unit_66056.cif
_audit_creation_date              2013-03-05T16:44:44-0500
_audit_creation_method            fapswitch 2.2
_symmetry_space_group_name_H-M    P1
_symmetry_Int_Tables_number       1
_space_group_crystal_system       triclinic
_cell_length_a                    17.904321
_cell_length_b                    19.176631
_cell_length_c                    19.206603
_cell_angle_alpha                 94.584683
_cell_angle_beta                  99.029627
_cell_angle_gamma                 103.903919
_cell_volume                      6274.15241044

loop_
_atom_site_label
_atom_site_type_symbol
_atom_site_description
_atom_site_fract_x
_atom_site_fract_y
_atom_site_fract_z
_atom_type_partial_charge
Zn1   Zn    Zn3+2 0.565550 0.451340 0.451340 1.032433
Zn2   Zn    Zn3+2 0.429430 0.430690 0.543050 1.087862
Zn3   Zn    Zn3+2 0.439490 0.544930 0.432570 1.135741
Zn4   Zn    Zn3+2 0.565540 0.573040 0.573050 1.111668
O1    O     O_3   0.500000 0.500000 0.500000 -0.550796
O2    O     O_R   0.540910 0.554790 0.665460 -0.606673
O3    O     O_R   0.550840 0.462270 0.351610 -0.647809
O4    O     O_R   0.445650 0.335310 0.524600 -0.600577
O5    O     O_R   0.462600 0.647620 0.458330 -0.590279
O6    O     O_R   0.321500 0.427480 0.506110 -0.624201
O7    O     O_R   0.674970 0.575130 0.575140 -0.600256
O8    O     O_R   0.328550 0.507430 0.428780 -0.584244
O9    O     O_R   0.674980 0.489960 0.489960 -0.636365
O10   O     O_R   0.540930 0.349770 0.460420 -0.609572
O11   O     O_R   0.550820 0.667300 0.556650 -0.610543
O12   O     O_R   0.445640 0.455160 0.644460 -0.604317
O13   O     O_R   0.462610 0.527770 0.338470 -0.585089
C1    C     C_R   0.492864 0.505521 0.688387 0.896523
C2    C     C_R   0.507001 0.493313 0.311895 0.883306
C3    C     C_R   0.491552 0.309098 0.491299 0.899954
C4    C     C_R   0.508414 0.691330 0.509521 0.962821
C5    C     C_R   0.288243 0.458954 0.459272 0.916922
C6    C     C_R   0.712503 0.539675 0.541057 0.869099
C7    C     C_R   0.798350 0.553639 0.562743 -0.184271
C8    C     C_R   0.203399 0.442768 0.445043 -0.159581
C9    C     C_R   0.921787 0.609826 0.643479 0.219026
C10   C     C_R   0.840287 0.598811 0.625488 0.216400
C11   C     C_R   0.838500 0.519674 0.519683 -0.244293
C12   C     C_R   0.918998 0.525693 0.538961 0.063671
C13   C     C_R   0.961042 0.572537 0.601049 -0.017565
C14   C     C_R   0.958735 0.485935 0.498337 0.106369
C15   C     C_R   0.041484 0.500367 0.515486 0.102747
C16   C     C_R   0.080178 0.542952 0.580090 -0.125421
C17   C     C_R   0.040980 0.578423 0.621738 -0.106232
C18   C     C_R   0.918329 0.429110 0.444173 -0.186386
C19   C     C_R   0.957965 0.387910 0.408765 -0.109859
C20   C     C_R   0.039703 0.404680 0.422177 0.029206
C21   C     C_R   0.082450 0.465883 0.471484 -0.043834
C22   C     C_R   0.079855 0.361138 0.388091 0.300125
C23   C     C_R   0.161203 0.378791 0.402537 -0.219038
C24   C     C_R   0.164760 0.489290 0.475892 0.219932
H1    H     H_    0.074051 0.609532 0.671151 0.208532
H2    H     H_    0.191861 0.343567 0.378681 0.207285
H3    H     H_    0.923463 0.342806 0.370473 0.204074
H4    H     H_    0.805510 0.489362 0.470256 0.187557
H5    H     H_    0.140486 0.546283 0.601664 0.194615
H6    H     H_    0.855428 0.411471 0.431103 0.166595
C25   C     C_R   0.509027 0.491199 0.235465 -0.164488
C26   C     C_R   0.443493 0.495226 0.185579 0.292760
C27   C     C_R   0.450907 0.500183 0.114624 -0.238488
C28   C     C_R   0.521729 0.498919 0.091797 0.219838
C29   C     C_R   0.585167 0.491777 0.141072 0.297108
C30   C     C_R   0.578941 0.488487 0.212283 -0.267383
C31   C     C_R   0.472687 0.447582 0.870252 0.255454
C32   C     C_R   0.477351 0.443393 0.797686 0.205751
C33   C     C_R   0.483525 0.515703 0.909679 0.200991
N1    N     N_2   0.528966 0.499290 0.019176 -0.074658
N2    N     N_2   0.477936 0.521671 0.982277 -0.141828
C34   C     C_R   0.490791 0.507455 0.764598 -0.144712
H7    H     H_    0.629463 0.485066 0.249828 0.209659
C35   C     C_R   0.500980 0.574567 0.804601 -0.184270
C36   C     C_R   0.496572 0.578479 0.876396 -0.168525
H8    H     H_    0.510936 0.624025 0.779849 0.224526
H9    H     H_    0.400027 0.502072 0.076742 0.217908
H10   H     H_    0.503694 0.630658 0.906427 0.201950
C37   C     C_R   0.514472 0.769506 0.512812 -0.292708
C38   C     C_R   0.518067 0.803637 0.450206 0.187773
C39   C     C_R   0.525724 0.878559 0.453467 0.226451
C40   C     C_R   0.529832 0.919236 0.518866 0.154064
C41   C     C_R   0.528462 0.885833 0.580651 -0.240700
C42   C     C_R   0.519177 0.811126 0.578457 0.268527
C43   C     C_R   0.555703 0.137652 0.513292 -0.157898
C44   C     C_R   0.558361 0.210887 0.512957 0.218365
C45   C     C_R   0.484373 0.084440 0.491233 0.228411
N3    N     N_2   0.537125 0.994512 0.523949 -0.126029
N4    N     N_2   0.478922 0.009147 0.489557 -0.100626
C46   C     C_R   0.489218 0.232114 0.490447 -0.148562
H11   H     H_    0.609579 0.122652 0.530649 0.205479
H12   H     H_    0.531689 0.918106 0.630510 0.220578
C47   C     C_R   0.417910 0.178911 0.467935 0.220857
C48   C     C_R   0.416266 0.105766 0.468042 -0.163230
H13   H     H_    0.361460 0.065077 0.450092 0.204910
Br1   Br    Br    0.027504 0.274877 0.324008 -0.354192
Br2   Br    Br    0.469603 0.350524 0.745919 -0.317229
Br3   Br    Br    0.447579 0.360362 0.914902 -0.296995
Br4   Br    Br    0.681992 0.487492 0.112519 -0.330264
N5    N     N_R   0.368263 0.490687 0.204986 0.240355
O14   O     O_R   0.340007 0.441188 0.243238 -0.359598
O15   O     O_R   0.322705 0.527657 0.175095 -0.302608
Br5   Br    Br    0.657554 0.279757 0.547025 -0.412942
N6    N     N_R   0.207504 0.562502 0.503588 0.197687
O16   O     O_R   0.181137 0.616420 0.482747 -0.310918
O17   O     O_R   0.272428 0.575722 0.549524 -0.392601
N7    N     N_R   0.511611 0.778300 0.642669 0.239822
O18   O     O_R   0.549807 0.813446 0.703633 -0.320901
O19   O     O_R   0.458259 0.718477 0.641813 -0.357335
Br6   Br    Br    0.321709 0.203068 0.433621 -0.389381
Br7   Br    Br    0.538481 0.926623 0.370079 -0.284455
N8    N     N_R   0.517504 0.763024 0.383920 0.251280
O20   O     O_R   0.570765 0.728229 0.378223 -0.375071
O21   O     O_R   0.463614 0.760576 0.329113 -0.267093
N9    N     N_R   0.964059 0.657879 0.705930 0.225163
O22   O     O_R   0.944877 0.647354 0.767569 -0.266259
O23   O     O_R   0.017895 0.715281 0.700405 -0.306878
N10   N     N_R   0.801071 0.634136 0.671327 0.251792
O24   O     O_R   0.759206 0.596898 0.711870 -0.305972
O25   O     O_R   0.815926 0.704408 0.679854 -0.277928

loop_
_geom_bond_atom_site_label_1
_geom_bond_atom_site_label_2
_geom_bond_distance
_ccdc_geom_bond_type
N5    O14   1.301569 A    
C32   C34   1.414823 A    
C47   Br6   1.921353 S    
C27   H9    1.082863 S    
C26   N5    1.437789 S    
C18   C19   1.387573 A    
C17   H1    1.081918 S    
C7    C10   1.415270 A    
C18   H6    1.077198 S    
C48   H13   1.083246 S    
C42   N7    1.439154 S    
O6    C5    1.272602 A    
N10   O25   1.300888 A    
C9    C10   1.405416 A    
C12   C13   1.420447 A    
C45   N4    1.420972 S    
C3    C46   1.465508 S    
Zn1   O1    1.962857 S    
C19   C20   1.397758 A    
C44   Br5   1.922598 S    
C40   C41   1.393654 A    
C8    C23   1.394018 A    
C4    C37   1.472345 S    
C10   N10   1.433273 S    
O8    C5    1.274852 A    
O9    C6    1.288051 A    
C35   H8    1.083860 S    
C43   H11   1.082619 S    
Zn3   O8    1.930705 S    
C23   H2    1.084051 S    
N8    O20   1.301320 A    
C39   C40   1.406565 A    
C5    C8    1.451936 S    
C6    C7    1.480220 S    
C40   N3    1.411832 S    
C41   C42   1.398396 A    
C28   N1    1.421325 S    
C15   C21   1.424016 A    
Zn2   O12   1.925908 S    
C38   N8    1.435691 S    
C37   C38   1.417147 A    
C16   H5    1.078829 S    
N9    O22   1.301056 A    
C30   H7    1.083443 S    
C27   C28   1.410050 A    
C25   C30   1.403722 A    
O2    C1    1.273331 A    
C31   C33   1.411219 A    
C11   H4    1.076459 S    
C34   C35   1.401778 A    
C13   C17   1.398478 A    
C38   C39   1.405427 A    
O10   C3    1.284058 A    
C21   C24   1.420333 A    
C43   C45   1.409444 A    
C8    C24   1.402260 A    
N6    O16   1.301395 A    
C2    C25   1.471657 S    
C43   C44   1.394309 A    
C28   C29   1.400927 A    
C20   C22   1.411189 A    
N9    O23   1.301124 A    
N3    N4    1.247055 D    
C20   C21   1.422396 A    
Zn3   O5    1.918941 S    
N6    O17   1.301773 A    
C37   C42   1.416773 A    
O11   C4    1.275644 A    
C16   C17   1.383379 A    
N7    O18   1.301526 A    
O4    C3    1.284258 A    
Zn4   O7    1.944035 S    
N7    O19   1.301620 A    
Zn4   O2    1.933383 S    
C25   C26   1.415342 A    
C24   N6    1.440907 S    
C9    C13   1.413367 A    
O3    C2    1.289000 A    
N5    O15   1.301362 A    
C33   C36   1.395412 A    
C19   H3    1.081455 S    
Zn2   O1    1.934749 S    
Zn1   O9    1.922522 S    
C45   C48   1.396751 A    
Zn2   O6    1.935687 S    
C22   C23   1.390722 A    
C29   C30   1.394763 A    
C46   C47   1.409983 A    
C31   C32   1.406358 A    
C11   C12   1.404760 A    
C36   H10   1.083292 S    
N8    O21   1.301058 A    
C41   H12   1.083550 S    
Zn1   O3    1.927356 S    
C14   C15   1.419613 A    
Zn2   O4    1.933742 S    
C7    C11   1.396615 A    
C47   C48   1.396070 A    
Zn3   O1    1.944212 S    
C31   Br3   1.929775 S    
N10   O24   1.301164 A    
C15   C16   1.408119 A    
Zn4   O11   1.931315 S    
C29   Br4   1.916366 S    
C22   Br1   1.922768 S    
C12   C14   1.426912 A    
C9    N9    1.436621 S    
O5    C4    1.275459 A    
N1    N2    1.247042 D    
O7    C6    1.276282 A    
O13   C2    1.286326 A    
C33   N2    1.411066 S    
Zn3   O13   1.936840 S    
C14   C18   1.413065 A    
C35   C36   1.390626 A    
C39   Br7   1.927816 S    
C1    C34   1.467778 S    
Zn4   O1    1.920026 S    
O12   C1    1.269960 A    
C26   C27   1.398330 A    
C44   C46   1.409784 A    
Zn1   O10   1.919463 S    
C32   Br2   1.932449 S    
