data_mof_unit_40251.cif
_audit_creation_date              2012-12-11T16:24:21-0500
_audit_creation_method            fapswitch 2.2
_symmetry_space_group_name_H-M    P1
_symmetry_Int_Tables_number       1
_space_group_crystal_system       triclinic
_cell_length_a                    14.758219
_cell_length_b                    14.770876
_cell_length_c                    33.262411
_cell_angle_alpha                 96.101316
_cell_angle_beta                  96.304925
_cell_angle_gamma                 61.215214
_cell_volume                      6304.64939245

loop_
_atom_site_label
_atom_site_type_symbol
_atom_type_description
_atom_site_fract_x
_atom_site_fract_y
_atom_site_fract_z
_atom_type_partial_charge
C1    C     C_R   0.390939 0.699552 0.446105 0.546178
C2    C     C_1   0.314232 0.339808 0.229122 -0.015096
C3    C     C_1   0.319437 0.343946 0.265469 -0.015190
C4    C     C_R   0.405780 0.386348 0.434013 0.544279
C5    C     C_R   0.291419 0.294296 0.101798 0.019566
C6    C     C_R   0.756279 0.373235 0.410156 0.022079
C7    C     C_R   0.789608 0.434887 0.393654 -0.129479
C8    C     C_R   0.818826 0.414183 0.353952 -0.118766
C9    C     C_R   0.815506 0.331320 0.330109 0.035570
C10   C     C_R   0.791670 0.263911 0.347835 -0.120537
C11   C     C_R   0.762188 0.284758 0.387588 -0.131281
C12   C     C_R   0.329494 0.347507 0.308768 0.041677
C13   C     C_R   0.834828 0.311889 0.204732 0.347234
C14   C     C_R   0.826966 0.321776 0.286233 0.347246
C15   C     C_R   0.835751 0.390259 0.142239 -0.118380
C16   C     C_R   0.700689 0.410002 0.447525 0.546317
C17   C     C_R   0.865777 0.379059 0.103039 -0.127331
C18   C     C_R   0.909189 0.198012 0.099116 -0.130607
C19   C     C_R   0.879048 0.209261 0.138417 -0.119501
C20   C     C_R   0.846794 0.304331 0.160962 0.033984
C21   C     C_R   0.907446 0.281713 0.081892 0.022102
C22   C     C_R   0.370794 0.754431 0.409053 0.021965
C23   C     C_R   0.411154 0.264797 0.328475 -0.108122
C24   C     C_R   0.276922 0.783560 0.385665 -0.130027
C25   C     C_R   0.266831 0.811450 0.346111 -0.119476
C26   C     C_R   0.350305 0.810989 0.329311 0.035065
C27   C     C_R   0.440593 0.791454 0.353956 -0.119679
C28   C     C_R   0.393574 0.701438 0.561233 0.543196
C29   C     C_R   0.450795 0.763322 0.393553 -0.130582
C30   C     C_R   0.343956 0.827939 0.204255 0.348312
C31   C     C_R   0.346346 0.821309 0.285541 0.348163
C32   C     C_R   0.259125 0.831095 0.135050 -0.118945
C33   C     C_R   0.239288 0.861865 0.095519 -0.128475
C34   C     C_R   0.431181 0.273949 0.370235 -0.124477
C35   C     C_R   0.381862 0.901540 0.104891 -0.126113
C36   C     C_R   0.401763 0.870653 0.144488 -0.120303
C37   C     C_R   0.337271 0.840024 0.160498 0.034777
C38   C     C_R   0.297191 0.902201 0.080791 0.025788
C39   C     C_R   0.371666 0.369105 0.585103 0.022350
C40   C     C_R   0.407397 0.388854 0.549011 0.545724
C41   C     C_R   0.285052 0.448425 0.603899 -0.131322
C42   C     C_R   0.265901 0.439112 0.642971 -0.121615
C43   C     C_R   0.333165 0.350428 0.663800 0.034922
C44   C     C_R   0.414036 0.267473 0.643548 -0.120891
C45   C     C_R   0.393928 0.252713 0.165953 -0.107946
C46   C     C_R   0.433026 0.276652 0.604517 -0.129754
C47   C     C_R   0.318537 0.347947 0.788523 0.347275
C48   C     C_R   0.325406 0.347749 0.707366 0.346593
C49   C     C_R   0.218247 0.403192 0.850408 -0.120151
C50   C     C_R   0.207075 0.383619 0.889166 -0.130097
C51   C     C_R   0.386250 0.249320 0.893116 -0.127047
C52   C     C_R   0.701399 0.413619 0.562675 0.543192
C53   C     C_R   0.397373 0.268834 0.854441 -0.118926
C54   C     C_R   0.312110 0.342470 0.831989 0.034855
C55   C     C_R   0.289636 0.303042 0.909994 0.022265
C56   C     C_R   0.384973 0.234341 0.124099 -0.124201
C57   C     C_R   0.754499 0.380464 0.602881 0.020030
C58   C     C_R   0.778491 0.447635 0.629556 -0.125969
C59   C     C_R   0.807002 0.426963 0.670338 -0.110212
C60   C     C_R   0.812338 0.338891 0.684813 0.040889
C61   C     C_R   0.794954 0.268366 0.658065 -0.111208
C62   C     C_R   0.766480 0.288779 0.617273 -0.125802
C63   C     C_R   0.886282 0.212486 0.822746 -0.112590
C64   C     C_R   0.369815 0.366376 0.392580 0.019891
C65   C     C_R   0.913525 0.201373 0.864185 -0.130246
C66   C     C_R   0.871940 0.382080 0.873377 -0.122523
C67   C     C_R   0.209915 0.377847 0.121743 -0.124608
C68   C     C_R   0.844458 0.393022 0.832006 -0.109928
C69   C     C_R   0.854582 0.307555 0.806504 0.042114
C70   C     C_1   0.839560 0.316130 0.763478 -0.022669
C71   C     C_1   0.828104 0.325117 0.727505 -0.022840
C72   C     C_R   0.910196 0.285208 0.889668 0.021347
C73   C     C_R   0.376624 0.756350 0.601732 0.019971
C74   C     C_R   0.282234 0.790694 0.619353 -0.125888
C75   C     C_R   0.273275 0.822599 0.660402 -0.110518
C76   C     C_R   0.283265 0.446167 0.372851 -0.125727
C77   C     C_R   0.358251 0.820791 0.684252 0.041071
C78   C     C_R   0.219077 0.395910 0.163634 -0.107686
C79   C     C_R   0.450545 0.792621 0.666552 -0.111618
C80   C     C_R   0.459661 0.760947 0.625436 -0.127395
C81   C     C_R   0.409406 0.850606 0.834966 -0.133917
C82   C     C_R   0.391329 0.870817 0.876450 0.007898
C83   C     C_R   0.207814 0.928992 0.858267 -0.145465
C84   C     C_R   0.227444 0.906816 0.817527 -0.116989
C85   C     C_R   0.327418 0.870327 0.805724 0.032011
C86   C     C_1   0.344048 0.853288 0.763297 -0.016801
C87   C     C_1   0.352510 0.839555 0.727319 -0.021970
C88   C     C_R   0.263551 0.436821 0.331061 -0.108431
C89   C     C_R   0.309866 0.331296 0.185818 0.041407
C90   C     C_R   0.287924 0.915244 0.888225 0.040192
C91   C     C_R   0.963510 0.264218 0.045524 0.547032
C92   C     C_R   0.272777 0.259442 0.060026 0.540879
C93   C     C_R   0.259314 0.959567 0.043748 0.556643
C94   C     C_R   0.962568 0.267612 0.930723 0.542376
C95   C     C_R   0.270826 0.264059 0.945385 0.540638
C96   C     C_R   0.256570 0.963942 0.929164 0.584660
C97   C     C_2   0.482634 0.841941 0.905817 0.228764
Cr1   Cr    Cr6+3 0.576280 0.580550 0.506370 1.012590
Cr2   Cr    Cr6+3 0.346780 0.572400 0.496520 1.012783
Cr3   Cr    Cr6+3 0.576960 0.347070 0.497150 1.012652
Cr4   Cr    Cr6+3 0.087320 0.083240 0.984860 1.016984
Cr5   Cr    Cr6+3 0.087720 0.316210 0.996740 1.016114
Cr6   Cr    Cr6+3 0.317350 0.090340 0.995890 1.060778
H1    H     H_    0.449096 0.169555 0.109631 0.131448
H2    H     H_    0.523846 0.742064 0.411003 0.129803
H3    H     H_    0.174406 0.860142 0.077432 0.132457
H4    H     H_    0.464654 0.202640 0.183021 0.118630
H5    H     H_    0.195400 0.828273 0.328099 0.136690
H6    H     H_    0.505752 0.791808 0.341989 0.135886
H7    H     H_    0.209478 0.805656 0.146282 0.136170
H8    H     H_    0.428377 0.931529 0.094222 0.134433
H9    H     H_    0.463479 0.877027 0.163231 0.135678
H10   H     H_    0.235920 0.520393 0.589552 0.129140
H11   H     H_    0.499657 0.213705 0.590620 0.129942
H12   H     H_    0.737632 0.235352 0.399631 0.129332
H13   H     H_    0.131772 0.426750 0.901538 0.131905
H14   H     H_    0.202168 0.503833 0.657645 0.132391
H15   H     H_    0.465954 0.197226 0.658537 0.132727
H16   H     H_    0.462331 0.195235 0.311320 0.117819
H17   H     H_    0.151505 0.461372 0.834014 0.133606
H18   H     H_    0.451661 0.187717 0.908708 0.133831
H19   H     H_    0.471398 0.222275 0.841369 0.134759
H20   H     H_    0.943025 0.125708 0.875746 0.122548
H21   H     H_    0.894116 0.145951 0.803175 0.109004
H22   H     H_    0.799193 0.199839 0.669037 0.111120
H23   H     H_    0.862181 0.445296 0.090286 0.134344
H24   H     H_    0.748451 0.235533 0.597560 0.126351
H25   H     H_    0.769675 0.518983 0.619499 0.126866
H26   H     H_    0.819572 0.467033 0.819656 0.110910
H27   H     H_    0.868439 0.448084 0.892170 0.131409
H28   H     H_    0.498264 0.211151 0.384539 0.129306
H29   H     H_    0.820607 0.481864 0.690894 0.112839
H30   H     H_    0.487434 0.818997 0.825408 0.096707
H31   H     H_    0.516724 0.790975 0.684832 0.110865
H32   H     H_    0.533555 0.734574 0.612847 0.126930
H33   H     H_    0.216982 0.788006 0.601971 0.127171
H34   H     H_    0.838983 0.466288 0.341357 0.135208
H35   H     H_    0.163710 0.921185 0.795062 0.114510
H36   H     H_    0.128131 0.962578 0.866021 0.128444
H37   H     H_    0.201443 0.844439 0.673916 0.110466
H38   H     H_    0.234594 0.518340 0.389191 0.128709
H39   H     H_    0.153796 0.457139 0.178887 0.118539
H40   H     H_    0.136841 0.425327 0.105441 0.131342
H41   H     H_    0.199994 0.501069 0.315931 0.117036
H42   H     H_    0.787064 0.502910 0.410487 0.130528
H43   H     H_    0.554579 0.832655 0.896020 0.090347
H44   H     H_    0.789628 0.198711 0.330323 0.134450
H45   H     H_    0.808991 0.465128 0.158567 0.138466
H46   H     H_    0.940476 0.122111 0.083404 0.132390
H47   H     H_    0.887195 0.141948 0.151916 0.137608
H48   H     H_    0.213447 0.778601 0.396954 0.130532
N1    N     N_R   0.828655 0.395667 0.227935 -0.229225
N2    N     N_R   0.423004 0.827859 0.269045 -0.230162
N3    N     N_R   0.421454 0.831826 0.229177 -0.229657
N4    N     N_R   0.239637 0.422426 0.766691 -0.234243
N5    N     N_R   0.243342 0.422740 0.726902 -0.235127
N6    N     N_R   0.404094 0.273431 0.729233 -0.234361
N7    N     N_R   0.400573 0.273340 0.768957 -0.234139
N8    N     N_R   0.824471 0.400657 0.267834 -0.228821
N9    N     N_R   0.832875 0.237906 0.263064 -0.230091
N10   N     N_R   0.837483 0.232726 0.223085 -0.229650
N11   N     N_R   0.267662 0.821021 0.220791 -0.229606
N12   N     N_R   0.269027 0.817403 0.260593 -0.229339
O1    O     O_R   0.679450 0.499830 0.463150 -0.519170
O2    O     O_R   0.340240 0.172500 0.045430 -0.519315
O3    O     O_R   0.309670 0.000990 0.032050 -0.489205
O4    O     O_R   0.480650 0.664000 0.464630 -0.501445
O5    O     O_R   0.168330 0.982130 0.939200 -0.530178
O6    O     O_R   0.000140 0.178170 0.944610 -0.505232
O7    O     O_R   0.983010 0.336750 0.948660 -0.517228
O8    O     O_R   0.181800 0.312190 0.959860 -0.503807
O9    O     O_R   0.338500 0.175680 0.956950 -0.515626
O10   O     O_R   0.308050 0.003930 0.950020 -0.451401
O11   O     O_3   0.164130 0.163270 0.992500 -0.249695
O12   O     O_R   0.356040 0.477400 0.534170 -0.502139
O13   O     O_R   0.323930 0.675950 0.455370 -0.519963
O14   O     O_R   0.354700 0.475360 0.451930 -0.501896
O15   O     O_R   0.494470 0.320860 0.448390 -0.519277
O16   O     O_R   0.662580 0.357570 0.460050 -0.502099
O17   O     O_R   0.680900 0.502040 0.551870 -0.520158
O18   O     O_R   0.481990 0.666040 0.546870 -0.502752
O19   O     O_R   0.325370 0.678160 0.544080 -0.519012
O20   O     O_2   0.480651 0.823024 0.940457 -0.493469
O21   O     O_R   0.495910 0.323070 0.537100 -0.519710
O22   O     O_R   0.663920 0.359620 0.542290 -0.501708
O23   O     O_3   0.500010 0.500010 0.500010 -0.236215
O24   O     O_R   0.170070 0.978950 0.027680 -0.520243
O25   O     O_R   0.001760 0.175230 0.026640 -0.501895
O26   O     O_R   0.984760 0.333570 0.037150 -0.517251
O27   O     O_R   0.183410 0.309240 0.041890 -0.502155

loop_
_geom_bond_atom_site_label_1
_geom_bond_atom_site_label_2
_ccdc_geom_bond_type
Cr5   O7    S    
C66   C68   A    
C91   O25   A    
C63   C65   A    
C1    O13   A    
C58   H25   S    
N6    N7    A    
C22   C29   A    
C27   C29   A    
C18   C21   A    
C41   C42   A    
C5    C56   A    
C35   C36   A    
C4    O14   A    
C5    C67   A    
C67   H40   S    
C19   H47   S    
C83   H36   S    
C63   H21   S    
C7    C8    A    
C39   C41   A    
C53   C54   A    
C16   O1    A    
C91   O26   A    
C12   C23   A    
C26   C27   A    
C80   H32   S    
C32   H7    S    
C36   C37   A    
Cr2   O14   S    
C75   H37   S    
C78   H39   S    
C94   O6    A    
C23   H16   S    
C62   H24   S    
C17   H23   S    
C49   H17   S    
C1    O4    A    
C49   C54   A    
Cr6   O10   S    
Cr5   O26   S    
C18   C19   A    
C97   H43   S    
C79   H31   S    
C28   O19   A    
Cr2   O19   S    
C3    C12   S    
C92   O2    A    
C66   C72   A    
Cr2   O13   S    
C63   C69   A    
C95   O9    A    
C44   C46   A    
C8    C9    A    
C32   C33   A    
C74   H33   S    
C36   H9    S    
C96   O5    A    
Cr4   O6    S    
C70   C71   T    
Cr4   O25   S    
C11   H12   S    
C9    C10   A    
C76   C88   A    
C50   H13   S    
Cr1   O4    S    
C16   O16   A    
C10   H44   S    
C72   C94   S    
C76   H38   S    
C48   N5    A    
N1    N8    A    
C84   H35   S    
C1    C22   S    
C66   H27   S    
C29   H2    S    
Cr4   O11   S    
C68   H26   S    
C67   C78   A    
C28   C73   S    
C31   N2    A    
C92   O27   A    
C81   C82   A    
C77   C79   A    
C78   C89   A    
C15   C20   A    
C77   C87   S    
C31   N12   A    
C59   H29   S    
C74   C75   A    
C46   H11   S    
C57   C62   A    
C35   C38   A    
C84   C85   A    
C45   C56   A    
C55   C95   S    
C96   O10   A    
C4    O15   A    
C39   C40   S    
C12   C88   A    
C86   C87   T    
C68   C69   A    
C60   C71   S    
C25   C26   A    
C85   C86   S    
Cr6   O11   S    
C17   C21   A    
C30   C37   S    
C14   N9    A    
C60   C61   A    
C51   C53   A    
Cr4   O5    S    
Cr3   O23   S    
C9    C14   S    
C52   O17   A    
C24   H48   S    
C83   C84   A    
C44   H15   S    
C23   C34   A    
C34   C64   A    
C64   C76   A    
C32   C37   A    
C24   C25   A    
C81   H30   S    
C75   C77   A    
C56   H1    S    
C47   C54   S    
C93   O24   A    
C34   H28   S    
Cr6   O2    S    
C30   N3    A    
C39   C46   A    
C43   C44   A    
Cr6   O9    S    
C51   H18   S    
C82   C97   S    
C22   C24   A    
C42   C43   A    
C30   N11   A    
Cr1   O17   S    
C13   N10   A    
C18   H46   S    
C73   C74   A    
C6    C11   A    
C35   H8    S    
C52   C57   S    
N11   N12   A    
C21   C91   S    
Cr5   O8    S    
C15   C17   A    
C83   C90   A    
C45   C89   A    
C13   C20   S    
C26   C31   S    
Cr3   O15   S    
C33   H3    S    
C50   C55   A    
C13   N1    A    
C41   H10   S    
C93   O3    A    
C40   O12   A    
Cr1   O1    S    
C42   H14   S    
C90   C96   S    
C6    C7    A    
Cr5   O11   S    
C65   C72   A    
C48   N6    A    
C4    C64   S    
C33   C38   A    
C82   C90   A    
C14   N8    A    
C53   H19   S    
C43   C48   S    
N9    N10   A    
C19   C20   A    
C2    C3    T    
C58   C59   A    
Cr1   O23   S    
C94   O7    A    
C57   C58   A    
C15   H45   S    
C47   N4    A    
Cr1   O18   S    
C28   O18   A    
C38   C93   S    
Cr5   O27   S    
C73   C80   A    
Cr3   O22   S    
C51   C55   A    
C65   H20   S    
C61   C62   A    
Cr3   O21   S    
C69   C70   S    
C5    C92   S    
C10   C11   A    
C6    C16   S    
C79   C80   A    
C2    C89   S    
C59   C60   A    
Cr2   O12   S    
C27   H6    S    
Cr6   O3    S    
C49   C50   A    
C52   O22   A    
N4    N5    A    
C8    H34   S    
C97   O20   D    
C61   H22   S    
C40   O21   A    
N2    N3    A    
Cr4   O24   S    
Cr3   O16   S    
C95   O8    A    
C88   H41   S    
Cr2   O23   S    
C81   C85   A    
C45   H4    S    
C25   H5    S    
C7    H42   S    
C47   N7    A    
