data_mof_unit_57904.cif
_audit_creation_date              2012-12-10T16:59:20-0500
_audit_creation_method            fapswitch 2.2
_symmetry_space_group_name_H-M    P1
_symmetry_Int_Tables_number       1
_space_group_crystal_system       triclinic
_cell_length_a                    7.741696
_cell_length_b                    8.549027
_cell_length_c                    27.696472
_cell_angle_alpha                 90.957376
_cell_angle_beta                  86.149138
_cell_angle_gamma                 93.617486
_cell_volume                      1825.13655414

loop_
_atom_site_label
_atom_site_type_symbol
_atom_type_description
_atom_site_fract_x
_atom_site_fract_y
_atom_site_fract_z
_atom_type_partial_charge
C1    C     C_R   0.545838 0.794812 0.498744 0.972387
C2    C     C_R   0.489756 0.652546 0.128619 -0.042988
C3    C     C_R   0.508720 0.501887 0.646467 -0.123397
C4    C     C_R   0.489538 0.502557 0.353586 -0.119236
C5    C     C_R   0.494416 0.655092 0.026470 0.047571
C6    C     C_R   0.416998 0.369734 0.975151 0.047773
C7    C     C_R   0.406594 0.371458 0.026462 0.046677
C8    C     C_R   0.505215 0.653321 0.975157 0.047566
C9    C     C_R   0.448335 0.513525 0.051733 0.080515
C10   C     C_R   0.467874 0.510355 0.949854 0.079816
C11   C     C_R   0.530160 0.793755 0.053707 -0.223440
C12   C     C_R   0.454164 0.205190 0.501273 0.975921
C13   C     C_R   0.380805 0.231104 0.947948 -0.219323
C14   C     C_R   0.528703 0.791922 0.103720 -0.114954
C15   C     C_R   0.393926 0.230638 0.897843 -0.115734
C16   C     C_R   0.502826 0.500352 0.593917 0.904528
C17   C     C_R   0.497112 0.500371 0.406081 0.909625
C18   C     C_R   0.555369 0.789549 0.947963 -0.221729
C19   C     C_R   0.357233 0.235123 0.053688 -0.222476
C20   C     C_2   0.570129 0.958248 0.498025 -0.365986
C21   C     C_2   0.429875 0.041755 0.502019 -0.367014
C22   C     C_R   0.549097 0.640040 0.822242 0.576232
C23   C     C_R   0.482435 0.507803 0.898549 -0.047931
C24   C     C_R   0.406307 0.375922 0.178998 0.615296
C25   C     C_R   0.457815 0.368224 0.822228 0.614848
C26   C     C_R   0.495831 0.648096 0.178896 0.562277
C27   C     C_R   0.659881 0.454024 0.718332 0.468347
C28   C     C_R   0.623712 0.459220 0.273100 0.479111
C29   C     C_R   0.655692 0.454613 0.668007 -0.311972
C30   C     C_R   0.631127 0.458013 0.323311 -0.271745
C31   C     C_R   0.366423 0.550967 0.675425 -0.136436
C32   C     C_R   0.340010 0.549605 0.333475 -0.191578
C33   C     C_R   0.370097 0.551561 0.725312 -0.075049
C34   C     C_R   0.445905 0.513636 0.102953 -0.058504
C35   C     C_R   0.332202 0.552527 0.283695 -0.077434
C36   C     C_R   0.515052 0.502605 0.746853 0.157314
C37   C     C_R   0.472344 0.506952 0.253524 0.163181
C38   C     C_R   0.534500 0.645432 0.872815 -0.029643
C39   C     C_R   0.401207 0.374521 0.128652 -0.039178
C40   C     C_R   0.569837 0.785212 0.897862 -0.122191
C41   C     C_R   0.354889 0.237011 0.103729 -0.111369
C42   C     C_R   0.444687 0.367673 0.872803 -0.033563
H1    H     H_    0.252428 0.589467 0.659577 0.196443
H2    H     H_    0.765863 0.417118 0.645623 0.193968
H3    H     H_    0.559970 0.900698 0.122793 0.205066
H4    H     H_    0.364784 0.121409 0.878776 0.195144
H5    H     H_    0.561432 0.906709 0.037794 0.142552
H6    H     H_    0.342436 0.119470 0.963927 0.141546
H7    H     H_    0.586442 0.902404 0.963956 0.143881
H8    H     H_    0.320078 0.123543 0.037761 0.142906
H9    H     H_    0.702600 0.009280 0.494213 0.182110
H10   H     H_    0.297405 0.990724 0.505835 0.181471
H11   H     H_    0.847537 0.510220 0.165105 0.362000
H12   H     H_    0.229573 0.585376 0.356148 0.181413
H13   H     H_    0.967861 0.248522 0.689450 0.367739
H14   H     H_    0.014088 0.383080 0.463395 0.197255
H15   H     H_    0.985912 0.616910 0.536608 0.195662
H16   H     H_    0.259769 0.589700 0.747516 0.212438
H17   H     H_    0.217018 0.590347 0.268332 0.211550
H18   H     H_    0.609331 0.892646 0.878804 0.202064
H19   H     H_    0.318456 0.128994 0.122798 0.197221
H20   H     H_    0.746453 0.421323 0.338844 0.202032
N1    N     N_R   0.511595 0.502628 0.798290 -0.345768
N2    N     N_R   0.458729 0.510179 0.202581 -0.353887
N3    N     N_2   0.950320 0.457960 0.486880 -0.173811
N4    N     N_2   0.049680 0.542040 0.513120 -0.173765
O1    O     O_R   0.389250 0.738570 0.503220 -0.614924
O2    O     O_2   0.361384 0.244187 0.204262 -0.476173
O3    O     O_2   0.540601 0.779588 0.203965 -0.485526
O4    O     O_2   0.416230 0.236152 0.797036 -0.490643
O5    O     O_2   0.950244 0.364009 0.265562 -0.276799
O6    O     O_2   0.751418 0.258745 0.206575 -0.270861
O7    O     O_3   0.872890 0.548884 0.197954 -0.539501
O8    O     O_2   0.913946 0.523095 0.777347 -0.277106
O9    O     O_2   0.799825 0.250485 0.774658 -0.250495
O10   O     O_3   0.002495 0.354120 0.702106 -0.565354
O11   O     O_R   0.610750 0.261430 0.496780 -0.613454
O12   O     O_R   0.678390 0.711630 0.494810 -0.628727
O13   O     O_R   0.321610 0.288370 0.505190 -0.627869
O14   O     O_R   0.355440 0.513440 0.575450 -0.616995
O15   O     O_R   0.644560 0.486560 0.424550 -0.616820
O16   O     O_R   0.644590 0.486500 0.567040 -0.629018
O17   O     O_R   0.355410 0.513500 0.432960 -0.630469
O18   O     O_2   0.599367 0.770837 0.797055 -0.501900
S1    S     S_3+6 0.803921 0.402022 0.235618 0.042951
S2    S     S_3+6 0.846191 0.394205 0.744843 0.038611
Zn1   Zn    Zn3+2 0.306940 0.517990 0.505620 0.958667
Zn2   Zn    Zn3+2 0.693060 0.482010 0.494380 0.959058

loop_
_geom_bond_atom_site_label_1
_geom_bond_atom_site_label_2
_ccdc_geom_bond_type
O17   Zn1   S    
C33   H16   S    
C40   H18   S    
C27   C29   A    
C11   H5    S    
C41   H19   S    
H15   N4    S    
C33   C36   A    
O13   Zn1   S    
O6    S1    D    
C39   C41   A    
C23   C42   A    
C31   H1    S    
C35   C37   A    
C5    C11   A    
O14   Zn1   S    
C30   H20   S    
C11   C14   A    
H14   N3    S    
C22   C38   A    
C12   O13   A    
C24   C39   A    
C35   H17   S    
C25   N1    A    
C3    C29   A    
C26   N2    A    
C18   C40   A    
C22   N1    A    
O5    S1    D    
O11   Zn2   S    
C31   C33   A    
C36   N1    S    
C2    C34   A    
C24   N2    A    
C1    O12   A    
C32   H12   S    
C14   H3    S    
C34   C39   A    
C32   C35   A    
N4    Zn1   S    
C12   C21   S    
C8    C18   A    
C16   O14   A    
C22   O18   S    
C27   S2    S    
C5    C9    A    
C13   H6    S    
O9    S2    D    
C12   O11   A    
C16   O16   A    
C2    C26   A    
O8    S2    D    
C3    C31   A    
O7    S1    S    
C4    C32   A    
H13   O10   S    
C7    C19   A    
C13   C15   A    
C29   H2    S    
C9    C34   A    
C10   C23   A    
C4    C17   S    
O10   S2    S    
C37   N2    S    
N3    Zn2   S    
O12   Zn2   S    
C7    C9    A    
C1    C20   S    
H11   O7    S    
C15   C42   A    
C25   C42   A    
C6    C10   A    
C5    C8    A    
C6    C7    A    
C27   C36   A    
C20   H9    S    
C23   C38   A    
O1    Zn1   S    
C28   C30   A    
C6    C13   A    
C38   C40   A    
C19   H8    S    
C28   C37   A    
O16   Zn2   S    
C1    O1    A    
C17   O15   A    
C2    C14   A    
O15   Zn2   S    
C24   O2    S    
C20   C21   D    
C8    C10   A    
N3    N4    D    
C28   S1    S    
C26   O3    S    
C25   O4    S    
C15   H4    S    
C17   O17   A    
C21   H10   S    
C4    C30   A    
C3    C16   S    
C19   C41   A    
C18   H7    S    
