data_mof_unit_7548.cif
_audit_creation_date              2012-12-11T15:33:40-0500
_audit_creation_method            fapswitch 2.2
_symmetry_space_group_name_H-M    P1
_symmetry_Int_Tables_number       1
_space_group_crystal_system       triclinic
_cell_length_a                    27.188771
_cell_length_b                    7.231326
_cell_length_c                    22.684053
_cell_angle_alpha                 90.000015
_cell_angle_beta                  101.259271
_cell_angle_gamma                 90.0
_cell_volume                      4374.09414355

loop_
_atom_site_label
_atom_site_type_symbol
_atom_type_description
_atom_site_fract_x
_atom_site_fract_y
_atom_site_fract_z
_atom_type_partial_charge
O1    O     O_R   0.207310 0.594030 0.676830 -0.536399
O2    O     O_R   0.792690 0.405970 0.323170 -0.528910
O3    O     O_R   0.292690 0.094030 0.823170 -0.536399
O4    O     O_R   0.707310 0.905970 0.176830 -0.528910
O5    O     O_R   0.197320 0.262370 0.795700 -0.520855
O6    O     O_R   0.802680 0.737630 0.204300 -0.520147
O7    O     O_R   0.302680 0.762370 0.704300 -0.520855
O8    O     O_R   0.697320 0.237630 0.295700 -0.520146
C1    C     C_R   0.184696 0.431980 0.812034 0.783894
C2    C     C_R   0.815981 0.567857 0.189008 0.785280
C3    C     C_R   0.315304 0.931980 0.687966 0.783894
C4    C     C_R   0.684019 0.067857 0.310992 0.785281
O9    O     O_R   0.201410 0.264250 0.675590 -0.525546
O10   O     O_R   0.798590 0.735750 0.324410 -0.536243
O11   O     O_R   0.298590 0.764250 0.824410 -0.525546
O12   O     O_R   0.701410 0.235750 0.175590 -0.536243
O13   O     O_R   0.296810 0.094940 0.702210 -0.537267
O14   O     O_R   0.703190 0.905060 0.297790 -0.535051
O15   O     O_R   0.203190 0.594940 0.797790 -0.537268
O16   O     O_R   0.796810 0.405060 0.202210 -0.535051
C5    C     C_R   0.189968 0.432086 0.653231 0.820782
C6    C     C_R   0.810041 0.567836 0.346679 0.833958
C7    C     C_R   0.310032 0.932086 0.846769 0.820782
C8    C     C_R   0.689959 0.067836 0.153321 0.833958
O17   O     O_3   0.281300 0.427390 0.758870 -0.376805
O18   O     O_3   0.718700 0.572610 0.241130 -0.383803
O19   O     O_3   0.218700 0.927390 0.741130 -0.376805
O20   O     O_3   0.781300 0.072610 0.258870 -0.383802
V1    V     V_3+5 0.244190 0.152150 0.748350 1.583273
V2    V     V_3+5 0.755810 0.847850 0.251650 1.576483
V3    V     V_3+5 0.255810 0.652150 0.751650 1.583273
V4    V     V_3+5 0.744190 0.347850 0.248350 1.576482
C9    C     C_R   0.654848 0.066024 0.094684 -0.304861
C10   C     C_R   0.345191 0.933392 0.905525 -0.299616
C11   C     C_R   0.845152 0.566024 0.405316 -0.304860
C12   C     C_R   0.154808 0.433391 0.594475 -0.299616
C13   C     C_R   0.635004 0.186658 0.993426 -0.146057
C14   C     C_R   0.365515 0.809435 0.006378 -0.139879
C15   C     C_R   0.864996 0.686659 0.506574 -0.146057
C16   C     C_R   0.134485 0.309433 0.493622 -0.139879
C17   C     C_R   0.669985 0.148017 0.045348 0.545346
C18   C     C_R   0.330537 0.846558 0.954400 0.506615
C19   C     C_R   0.830014 0.648018 0.454651 0.545346
C20   C     C_R   0.169463 0.346558 0.545600 0.506616
C21   C     C_R   0.604501 0.011024 0.090023 0.608369
C22   C     C_R   0.395322 0.992031 0.910559 0.631604
C23   C     C_R   0.895499 0.511023 0.409977 0.608369
C24   C     C_R   0.104678 0.492031 0.589441 0.631603
C25   C     C_R   0.569016 0.033244 0.034866 -0.035307
C26   C     C_R   0.430979 0.968967 0.965637 -0.044706
C27   C     C_R   0.930984 0.533244 0.465135 -0.035307
C28   C     C_R   0.069020 0.468966 0.534363 -0.044705
C29   C     C_R   0.584304 0.138260 0.988686 -0.210487
C30   C     C_R   0.415944 0.861677 0.011548 -0.206628
C31   C     C_R   0.915697 0.638261 0.511314 -0.210487
C32   C     C_R   0.084056 0.361675 0.488453 -0.206629
C33   C     C_R   0.518147 0.967740 0.025306 -0.170373
C34   C     C_R   0.481843 0.035151 0.975307 -0.174606
C35   C     C_R   0.981852 0.467740 0.474695 -0.170373
C36   C     C_R   0.018157 0.535151 0.524693 -0.174607
C37   C     C_R   0.497534 0.169954 0.937887 0.663823
C38   C     C_R   0.502643 0.832633 0.062713 0.660864
C39   C     C_R   0.002466 0.669955 0.562113 0.663822
C40   C     C_R   0.997357 0.332632 0.437287 0.660864
C41   C     C_R   0.548419 0.205573 0.940365 0.385847
C42   C     C_R   0.451863 0.795230 0.059993 0.388890
C43   C     C_R   0.951581 0.705574 0.559635 0.385848
C44   C     C_R   0.048137 0.295228 0.440007 0.388890
H1    H     H_    0.647586 0.261078 0.957657 0.201569
H2    H     H_    0.353187 0.732236 0.041767 0.196982
H3    H     H_    0.852414 0.761081 0.542343 0.201569
H4    H     H_    0.146812 0.232234 0.458233 0.196982
C45   C     C_R   0.634576 0.890758 0.374783 -0.244815
C46   C     C_R   0.371383 0.113883 0.633298 -0.271720
C47   C     C_R   0.865424 0.390759 0.125216 -0.244814
C48   C     C_R   0.128617 0.613883 0.866702 -0.271719
H5    H     H_    0.657151 0.769842 0.370622 0.229962
H6    H     H_    0.356872 0.239581 0.648909 0.214638
H7    H     H_    0.842849 0.269843 0.129377 0.229962
H8    H     H_    0.143128 0.739581 0.851091 0.214638
C49   C     C_R   0.598304 0.876821 0.410508 0.641321
C50   C     C_R   0.405667 0.127941 0.594870 0.602475
C51   C     C_R   0.901695 0.376821 0.089492 0.641321
C52   C     C_R   0.094333 0.627941 0.905129 0.602475
C53   C     C_R   0.568727 0.030160 0.419247 -0.309443
C54   C     C_R   0.428713 0.970175 0.576512 -0.282801
C55   C     C_R   0.931273 0.530160 0.080753 -0.309442
C56   C     C_R   0.071287 0.470175 0.923487 -0.282801
C57   C     C_R   0.574789 0.197392 0.388801 0.386230
C58   C     C_R   0.415198 0.796291 0.596634 0.329889
C59   C     C_R   0.925211 0.697392 0.111200 0.386230
C60   C     C_R   0.084802 0.296291 0.903366 0.329889
C61   C     C_R   0.611910 0.211896 0.353135 0.403897
C62   C     C_R   0.375426 0.780828 0.628262 0.370540
C63   C     C_R   0.888090 0.711895 0.146865 0.403896
C64   C     C_R   0.124574 0.280828 0.871738 0.370540
C65   C     C_R   0.643020 0.057996 0.346663 -0.308197
C66   C     C_R   0.354710 0.941244 0.649869 -0.281119
C67   C     C_R   0.856980 0.557996 0.153337 -0.308197
C68   C     C_R   0.145289 0.441244 0.850131 -0.281120
N1    N     N_R   0.524213 0.159851 0.495654 -0.215503
N2    N     N_R   0.474378 0.841423 0.500975 -0.216430
N3    N     N_R   0.975787 0.659851 0.004346 -0.215503
N4    N     N_R   0.025622 0.341424 0.999025 -0.216430
N5    N     N_R   0.491522 0.145852 0.532328 -0.214665
N6    N     N_R   0.507051 0.855211 0.464364 -0.206284
N7    N     N_R   0.008478 0.645852 0.967672 -0.214665
N8    N     N_R   0.992948 0.355211 0.035636 -0.206283
C69   C     C_R   0.465799 0.986213 0.535857 0.567752
C70   C     C_R   0.532588 0.014887 0.460724 0.570087
C71   C     C_R   0.034201 0.486214 0.964143 0.567751
C72   C     C_R   0.967412 0.514888 0.039276 0.570086
O21   O     O_3   0.562331 0.330867 0.900493 -0.530447
C73   C     C_3   0.560729 0.241012 0.844980 -0.154714
H9    H     H_    0.521820 0.199593 0.824049 0.185761
H10   H     H_    0.586063 0.118566 0.850055 0.117364
H11   H     H_    0.574010 0.338873 0.813820 0.160439
O22   O     O_3   0.438161 0.668673 0.099653 -0.531650
C74   C     C_3   0.439941 0.756857 0.155481 -0.189950
H12   H     H_    0.414678 0.879464 0.150879 0.116308
H13   H     H_    0.478895 0.797590 0.176449 0.183043
H14   H     H_    0.426687 0.658051 0.186388 0.156012
O23   O     O_3   0.937669 0.830870 0.599507 -0.530447
C75   C     C_3   0.939271 0.741015 0.655020 -0.154715
H15   H     H_    0.978180 0.699595 0.675951 0.185761
H16   H     H_    0.913937 0.618569 0.649945 0.117364
H17   H     H_    0.925990 0.838877 0.686180 0.160439
O24   O     O_3   0.061839 0.168670 0.400347 -0.531650
C76   C     C_3   0.060059 0.256853 0.344519 -0.189948
H18   H     H_    0.085321 0.379460 0.349121 0.116307
H19   H     H_    0.021105 0.297587 0.323551 0.183042
H20   H     H_    0.073312 0.158047 0.313613 0.156012
F1    F     F_    0.410034 0.041357 0.858926 -0.645759
F2    F     F_    0.589516 0.965521 0.141846 -0.671599
F3    F     F_    0.089966 0.541358 0.641074 -0.645759
F4    F     F_    0.910484 0.465519 0.358154 -0.671599
F5    F     F_    0.282940 0.783641 0.950052 -0.710554
F6    F     F_    0.718212 0.203776 0.049175 -0.661275
F7    F     F_    0.217060 0.283640 0.549948 -0.710554
F8    F     F_    0.781788 0.703778 0.450825 -0.661275
F9    F     F_    0.464181 0.282219 0.902504 -0.609920
F10   F     F_    0.536196 0.721373 0.098255 -0.624458
F11   F     F_    0.035819 0.782220 0.597496 -0.609920
F12   F     F_    0.963804 0.221372 0.401745 -0.624458
F13   F     F_    0.593784 0.714034 0.438777 -0.587189
F14   F     F_    0.414803 0.296310 0.573799 -0.626264
F15   F     F_    0.906215 0.214034 0.061223 -0.587190
F16   F     F_    0.085197 0.796311 0.926201 -0.626264
O25   O     O_3   0.546188 0.352001 0.395050 -0.474817
C77   C     C_3   0.497358 0.329474 0.360365 -0.083468
H21   H     H_    0.472770 0.257968 0.386790 0.141662
H22   H     H_    0.496487 0.253379 0.317424 0.050979
H23   H     H_    0.481122 0.468509 0.348635 0.165038
O26   O     O_3   0.439520 0.638793 0.583546 -0.478643
C78   C     C_3   0.480376 0.606406 0.631270 0.049784
H24   H     H_    0.507055 0.724907 0.637735 0.064681
H25   H     H_    0.501220 0.483488 0.620163 0.187809
H26   H     H_    0.467284 0.575968 0.673789 0.117683
O27   O     O_3   0.953812 0.852000 0.104950 -0.474818
C79   C     C_3   0.002642 0.829472 0.139635 -0.083468
H27   H     H_    0.027230 0.757972 0.113209 0.141665
H28   H     H_    0.003514 0.753372 0.182575 0.050978
H29   H     H_    0.018878 0.968507 0.151367 0.165035
O28   O     O_3   0.060480 0.138793 0.916454 -0.478643
C80   C     C_3   0.019624 0.106406 0.868730 0.049786
H30   H     H_    0.992945 0.224907 0.862265 0.064681
H31   H     H_    0.998779 0.983488 0.879837 0.187809
H32   H     H_    0.032716 0.075969 0.826211 0.117683
O29   O     O_3   0.619642 0.381930 0.328432 -0.521033
C81   C     C_3   0.592031 0.389930 0.268932 -0.092120
H33   H     H_    0.551624 0.412004 0.268529 0.127375
H34   H     H_    0.597300 0.264803 0.242165 0.118333
H35   H     H_    0.605369 0.510529 0.246202 0.179574
O30   O     O_3   0.357118 0.607438 0.637440 -0.535877
C82   C     C_3   0.317850 0.567821 0.588396 -0.056203
H36   H     H_    0.332853 0.542107 0.546896 0.187061
H37   H     H_    0.289044 0.679447 0.580354 0.091034
H38   H     H_    0.298367 0.441047 0.598689 0.180154
O31   O     O_3   0.880359 0.881929 0.171569 -0.521033
C83   C     C_3   0.907970 0.889926 0.231069 -0.092121
H39   H     H_    0.948377 0.911991 0.231472 0.127372
H40   H     H_    0.902699 0.764800 0.257836 0.118335
H41   H     H_    0.894633 0.010529 0.253799 0.179575
O32   O     O_3   0.142882 0.107438 0.862560 -0.535877
C84   C     C_3   0.182150 0.067821 0.911604 -0.056203
H42   H     H_    0.167147 0.042107 0.953104 0.187061
H43   H     H_    0.210956 0.179448 0.919646 0.091034
H44   H     H_    0.201633 0.941047 0.901311 0.180155

loop_
_geom_bond_atom_site_label_1
_geom_bond_atom_site_label_2
_ccdc_geom_bond_type
O17   V3    S    
C51   C55   A    
C14   H2    S    
O1    C5    A    
C80   H30   S    
C55   C59   A    
C23   F4    S    
O19   V1    S    
C9    C21   A    
O29   C81   S    
C24   F3    S    
O3    C7    A    
C10   C18   A    
O1    V3    S    
C11   C23   A    
O24   C76   S    
C48   C52   A    
C73   H9    S    
C84   H42   S    
C25   C33   A    
O23   C75   S    
C82   H37   S    
C5    C12   S    
O7    C3    A    
C6    C11   S    
C61   O29   S    
C21   F2    S    
C26   C30   A    
C3    C66   S    
C40   C44   A    
O9    V1    S    
O28   C80   S    
O10   V2    S    
C14   C18   A    
C13   H1    S    
N6    C70   A    
O4    C8    A    
C63   C67   A    
C20   F7    S    
C84   H43   S    
C78   H25   S    
C81   H33   S    
C62   C66   A    
C60   C64   A    
O13   V1    S    
O32   C84   S    
O2    V4    S    
O3    V1    S    
O30   C82   S    
C28   C36   A    
C4    C65   S    
O22   C74   S    
C56   C71   S    
C1    O15   A    
C15   C31   A    
C39   F11   S    
C56   C60   A    
C2    O16   A    
C16   C32   A    
C77   H23   S    
O2    C6    A    
N2    N6    A    
C10   C22   A    
C58   O26   S    
C11   C19   A    
C44   O24   S    
C16   C20   A    
C59   O27   S    
C83   H41   S    
C76   H20   S    
C13   C29   A    
C60   O28   S    
C34   C37   A    
O11   C7    A    
O15   V3    S    
C35   C36   A    
O12   C8    A    
C78   H26   S    
C57   C61   A    
N7    C71   A    
C38   F10   S    
O16   V4    S    
C45   C49   A    
C50   F14   S    
C83   H40   S    
C58   C62   A    
C82   H38   S    
O5    V1    S    
C52   F16   S    
N1    N5    A    
C39   C43   A    
O7    V3    S    
C38   C42   A    
C26   C34   A    
C79   H29   S    
C52   C56   A    
C48   C68   A    
C33   C38   A    
C54   C69   S    
C46   C66   A    
C53   C70   S    
C54   C58   A    
C53   C57   A    
O18   V4    S    
C84   H44   S    
C15   C19   A    
C55   C72   S    
C40   F12   S    
N1    C70   A    
C50   C54   A    
N8    C72   A    
N3    C72   A    
O8    V4    S    
C45   C65   A    
O5    C1    A    
C73   H10   S    
O27   C79   S    
C14   C30   A    
C21   C25   A    
O8    C4    A    
C7    C10   S    
C47   C67   A    
C35   C40   A    
O9    C5    A    
C19   F8    S    
C76   H19   S    
O26   C78   S    
C74   H13   S    
C62   O30   S    
C75   H17   S    
C51   F15   S    
C63   O31   S    
O6    V2    S    
C80   H32   S    
C49   F13   S    
C36   C39   A    
C46   H6    S    
O14   V2    S    
C77   H22   S    
C12   C20   A    
C27   C35   A    
C61   C65   A    
N4    N8    A    
C29   C41   A    
C83   H39   S    
C75   H16   S    
O21   C73   S    
C46   C50   A    
C74   H14   S    
C37   F9    S    
N5    C69   A    
C3    O13   A    
C15   H3    S    
C16   H4    S    
C64   O32   S    
C41   O21   S    
C48   H8    S    
C43   O23   S    
O6    C2    A    
N4    C71   A    
C23   C27   A    
C74   H12   S    
O11   V3    S    
C30   C42   A    
O12   V4    S    
C22   C26   A    
C8    C9    S    
C9    C17   A    
C79   H27   S    
O10   C6    A    
O20   V2    S    
C76   H18   S    
C31   C43   A    
C82   H36   S    
C32   C44   A    
O25   C77   S    
C22   F1    S    
C47   C51   A    
C33   C34   A    
C81   H34   S    
C25   C29   A    
C64   C68   A    
C57   O25   S    
C1    C68   S    
C12   C24   A    
C27   C31   A    
C13   C17   A    
C2    C67   S    
C49   C53   A    
C73   H11   S    
C59   C63   A    
O31   C83   S    
C37   C41   A    
C24   C28   A    
C80   H31   S    
C42   O22   S    
C4    O14   A    
C78   H24   S    
C45   H5    S    
C77   H21   S    
N2    C69   A    
N3    N7    A    
C17   F6    S    
C47   H7    S    
O4    V2    S    
C28   C32   A    
C79   H28   S    
C75   H15   S    
C18   F5    S    
C81   H35   S    
