data_mof_unit_18410.cif
_audit_creation_date              2012-12-10T21:28:56-0500
_audit_creation_method            fapswitch 2.2
_symmetry_space_group_name_H-M    P1
_symmetry_Int_Tables_number       1
_space_group_crystal_system       triclinic
_cell_length_a                    10.617832
_cell_length_b                    16.140476
_cell_length_c                    16.947492
_cell_angle_alpha                 87.83037
_cell_angle_beta                  90.377207
_cell_angle_gamma                 92.414968
_cell_volume                      2899.71203112

loop_
_atom_site_label
_atom_site_type_symbol
_atom_type_description
_atom_site_fract_x
_atom_site_fract_y
_atom_site_fract_z
_atom_type_partial_charge
Br1   Br    Br    0.295263 0.300605 0.369087 -0.507003
C1    C     C_R   0.497518 0.488890 0.652487 0.832279
C2    C     C_R   0.476727 0.469907 0.900804 0.338533
C3    C     C_R   0.513388 0.402055 0.859253 -0.206491
C4    C     C_R   0.739636 0.499699 0.502018 0.870112
C5    C     C_R   0.519078 0.407515 0.777549 -0.236051
C6    C     C_R   0.518106 0.449999 0.138586 -0.159946
C7    C     C_R   0.521779 0.446145 0.219911 -0.192353
C8    C     C_R   0.494469 0.525618 0.097982 0.323890
C9    C     C_R   0.502907 0.517455 0.261958 -0.034456
C10   C     C_R   0.483432 0.593433 0.221876 -0.225386
C11   C     C_R   0.479392 0.597266 0.139926 -0.193416
C12   C     C_R   0.932107 0.457015 0.570173 0.100040
C13   C     C_R   0.420949 0.760473 0.476228 -0.071858
C14   C     C_R   0.418253 0.847435 0.481147 0.004313
C15   C     C_R   0.520094 0.890573 0.520246 0.233746
C16   C     C_R   0.501486 0.511015 0.347363 0.892129
C17   C     C_R   0.616447 0.843159 0.555690 -0.023955
C18   C     C_R   0.611212 0.755885 0.548894 -0.033661
C19   C     C_R   0.563143 0.151689 0.537445 -0.278116
C20   C     C_R   0.561014 0.238822 0.539876 -0.067099
C21   C     C_R   0.486424 0.109287 0.482593 0.283570
C22   C     C_R   0.407862 0.242553 0.437738 0.400543
C23   C     C_R   0.871839 0.499318 0.507185 -0.086168
C24   C     C_R   0.409065 0.156095 0.432798 -0.322178
C25   C     C_R   0.260405 0.499978 0.502080 0.889657
C26   C     C_R   0.864849 0.416956 0.633489 -0.228458
C27   C     C_R   0.928426 0.377389 0.695443 -0.174439
C28   C     C_R   0.060144 0.377257 0.696127 0.173235
C29   C     C_R   0.127535 0.417247 0.633796 -0.210675
C30   C     C_R   0.063983 0.457250 0.570346 0.066966
C31   C     C_3   0.722531 0.888143 0.600103 -0.403062
C32   C     C_3   0.823102 0.832827 0.637380 -0.367409
C33   C     C_3   0.921952 0.884037 0.682343 -0.877885
C34   C     C_R   0.937987 0.543799 0.447861 -0.210458
C35   C     C_3   0.303670 0.889348 0.446591 -0.396620
C36   C     C_3   0.221253 0.923569 0.510947 -0.324444
C37   C     C_3   0.110785 0.969310 0.474536 -0.868671
C38   C     C_3   0.128226 0.334855 0.763655 -0.441784
C39   C     C_3   0.128610 0.387313 0.837214 -0.336229
C40   C     C_3   0.184017 0.340639 0.908394 -0.847138
C41   C     C_R   0.066601 0.544157 0.448057 -0.196265
C42   C     C_R   0.128345 0.499962 0.507535 -0.074982
C43   C     C_R   0.488329 0.481430 0.737397 -0.016266
C44   C     C_R   0.446830 0.548410 0.778699 -0.242546
C45   C     C_R   0.439986 0.542654 0.860013 -0.174590
H1    H     H_    0.889595 0.576893 0.400571 0.151290
H2    H     H_    0.763149 0.416810 0.636440 0.147635
H3    H     H_    0.348824 0.125117 0.390242 0.169765
H4    H     H_    0.345443 0.726541 0.446733 0.141595
H5    H     H_    0.874767 0.347175 0.743323 0.136159
H6    H     H_    0.229359 0.418214 0.636345 0.142530
H7    H     H_    0.118233 0.577420 0.400860 0.146279
H8    H     H_    0.538882 0.387092 0.249744 0.183258
H9    H     H_    0.533018 0.393642 0.107871 0.152172
H10   H     H_    0.540396 0.345707 0.890498 0.136281
H11   H     H_    0.969406 0.931283 0.642226 0.261367
H12   H     H_    0.550192 0.354971 0.746041 0.151748
H13   H     H_    0.877290 0.915628 0.731407 0.260689
H14   H     H_    0.994121 0.842639 0.707528 0.250161
H15   H     H_    0.778011 0.786419 0.679605 0.223975
H16   H     H_    0.871298 0.799996 0.590407 0.226201
H17   H     H_    0.770161 0.934077 0.558442 0.216066
H18   H     H_    0.679698 0.922927 0.647832 0.211371
H19   H     H_    0.145805 0.021295 0.434609 0.269301
H20   H     H_    0.048895 0.926100 0.440687 0.260477
H21   H     H_    0.054420 0.995356 0.521841 0.246135
H22   H     H_    0.183957 0.871453 0.550043 0.218531
H23   H     H_    0.469165 0.649210 0.253682 0.161348
H24   H     H_    0.276913 0.967122 0.547969 0.242528
H25   H     H_    0.332603 0.938332 0.401945 0.218819
H26   H     H_    0.243808 0.844257 0.413369 0.181579
H27   H     H_    0.122647 0.285363 0.924940 0.255514
H28   H     H_    0.279689 0.320159 0.894871 0.264514
H29   H     H_    0.190688 0.381916 0.959341 0.257994
H30   H     H_    0.185560 0.445813 0.825421 0.234143
H31   H     H_    0.030913 0.403552 0.851697 0.222121
H32   H     H_    0.081364 0.272971 0.776714 0.202221
H33   H     H_    0.227342 0.324259 0.747097 0.206800
H34   H     H_    0.407792 0.595312 0.890837 0.148852
H35   H     H_    0.462557 0.655730 0.108959 0.139251
H36   H     H_    0.419658 0.605172 0.748212 0.164837
H37   H     H_    0.621527 0.271279 0.581178 0.144315
H38   H     H_    0.625659 0.118397 0.576827 0.157702
H39   H     H_    0.682586 0.717793 0.575120 0.141577
N1    N     N_2   0.481702 0.463550 0.983595 -0.211145
N2    N     N_2   0.485973 0.532001 0.015116 -0.207339
N3    N     N_R   0.515300 0.716920 0.509720 -0.111487
N4    N     N_2   0.525867 0.979027 0.530378 -0.199090
N5    N     N_2   0.485605 0.021370 0.473073 -0.174559
N6    N     N_R   0.484690 0.283070 0.490290 -0.111035
O1    O     O_R   0.494530 0.422540 0.612660 -0.644883
O2    O     O_R   0.504350 0.561840 0.618900 -0.617624
O3    O     O_R   0.678320 0.430330 0.496880 -0.618862
O4    O     O_R   0.688140 0.569640 0.503120 -0.625299
O5    O     O_R   0.495650 0.438160 0.381100 -0.581689
O6    O     O_R   0.505470 0.577460 0.387340 -0.629101
O7    O     O_R   0.311860 0.430360 0.496880 -0.574572
O8    O     O_R   0.321680 0.569670 0.503120 -0.634747
Zn1   Zn    Zn3+2 0.493440 0.406980 0.495830 0.979496
Zn2   Zn    Zn3+2 0.506560 0.593020 0.504170 0.935877

loop_
_geom_bond_atom_site_label_1
_geom_bond_atom_site_label_2
_ccdc_geom_bond_type
C26   H2    S    
C5    H12   S    
C44   H36   S    
C6    H9    S    
C34   H1    S    
C4    O3    A    
C6    C7    A    
C44   C45   A    
C36   C37   S    
C30   C42   A    
C35   C36   S    
C41   H7    S    
C29   C30   A    
C27   H5    S    
C9    C16   S    
C14   C15   A    
C36   H22   S    
C17   C18   A    
C34   C41   A    
C40   H28   S    
C20   H37   S    
C1    C43   S    
C32   H16   S    
C21   C24   A    
C33   H11   S    
N6    Zn1   S    
C35   H25   S    
C25   O8    A    
C15   N4    S    
C5    C43   A    
C36   H24   S    
C3    H10   S    
C2    N1    S    
C33   H14   S    
C4    O4    A    
C25   C42   S    
N3    Zn2   S    
C23   C34   A    
C38   H32   S    
C37   H20   S    
C31   H18   S    
C3    C5    A    
C18   N3    A    
C7    H8    S    
C38   C39   S    
N1    N2    D    
C39   H30   S    
C12   C23   A    
C38   H33   S    
C28   C29   A    
C40   H29   S    
C37   H19   S    
O3    Zn1   S    
C28   C38   S    
C32   C33   S    
C21   N5    S    
C16   O5    A    
C19   C20   A    
C1    O1    A    
C25   O7    A    
C15   C17   A    
C39   C40   S    
O8    Zn2   S    
C19   C21   A    
Br1   C22   S    
O7    Zn1   S    
C19   H38   S    
C33   H13   S    
C22   N6    A    
C17   C31   S    
C41   C42   A    
O2    Zn2   S    
C2    C3    A    
C14   C35   S    
C43   C44   A    
O1    Zn1   S    
C20   N6    A    
C6    C8    A    
C29   H6    S    
C27   C28   A    
C39   H31   S    
C12   C30   A    
C1    O2    A    
C31   H17   S    
C18   H39   S    
C10   C11   A    
C10   H23   S    
C2    C45   A    
C31   C32   S    
C13   N3    A    
C8    N2    S    
C45   H34   S    
C13   H4    S    
C4    C23   S    
C32   H15   S    
O5    Zn1   S    
C11   H35   S    
C22   C24   A    
C8    C11   A    
C24   H3    S    
C9    C10   A    
C40   H27   S    
O4    Zn2   S    
C37   H21   S    
C7    C9    A    
C26   C27   A    
C13   C14   A    
C12   C26   A    
N4    N5    D    
C16   O6    A    
O6    Zn2   S    
C35   H26   S    
