data_mof_unit_18315.cif
_audit_creation_date              2012-12-10T20:49:09-0500
_audit_creation_method            fapswitch 2.2
_symmetry_space_group_name_H-M    P1
_symmetry_Int_Tables_number       1
_space_group_crystal_system       triclinic
_cell_length_a                    8.924186
_cell_length_b                    8.122941
_cell_length_c                    10.594111
_cell_angle_alpha                 90.38047
_cell_angle_beta                  90.046037
_cell_angle_gamma                 89.995969
_cell_volume                      767.956666357

loop_
_atom_site_label
_atom_site_type_symbol
_atom_type_description
_atom_site_fract_x
_atom_site_fract_y
_atom_site_fract_z
_atom_type_partial_charge
C1    C     C_R   0.218078 0.500004 0.500087 0.933230
C2    C     C_3   0.634476 0.542175 0.044603 0.034058
C3    C     C_3   0.503668 0.502103 0.875865 -0.096009
C4    C     C_3   0.496332 0.497897 0.124135 -0.096008
C5    C     C_1   0.065226 0.500005 0.500034 -0.188884
C6    C     C_1   0.934774 0.499995 0.499966 -0.188883
C7    C     C_R   0.781922 0.499996 0.499913 0.933231
C8    C     C_R   0.496661 0.499343 0.257408 0.913095
C9    C     C_R   0.503339 0.500657 0.742592 0.913094
C10   C     C_3   0.397046 0.607295 0.040637 0.042827
C11   C     C_3   0.602954 0.392705 0.959363 0.042826
C12   C     C_3   0.535227 0.651658 0.961976 0.075268
C13   C     C_3   0.464773 0.348342 0.038024 0.075269
C14   C     C_3   0.365524 0.457825 0.955397 0.034059
H1    H     H_    0.147129 0.396575 0.980368 0.189475
H2    H     H_    0.673837 0.807198 0.868730 0.191175
H3    H     H_    0.402207 0.113304 0.999887 0.195485
H4    H     H_    0.326160 0.192801 0.131267 0.191175
H5    H     H_    0.180159 0.511118 0.852141 0.181069
H6    H     H_    0.852870 0.603429 0.019632 0.189475
H7    H     H_    0.819843 0.488880 0.147856 0.181069
H8    H     H_    0.236221 0.778266 0.007821 0.188711
H9    H     H_    0.340042 0.815125 0.136808 0.210242
H10   H     H_    0.763780 0.221736 0.992179 0.188710
H11   H     H_    0.659958 0.184874 0.863193 0.210241
H12   H     H_    0.597798 0.886695 0.000114 0.195485
N1    N     N_1   0.500000 0.073640 0.500000 -0.032482
N2    N     N_1   0.500000 0.926360 0.500000 -0.032482
N3    N     N_3   0.219970 0.411301 0.904092 -0.449963
N4    N     N_3   0.780030 0.588699 0.095908 -0.449963
N5    N     N_3   0.284193 0.722411 0.086698 -0.459488
N6    N     N_3   0.715807 0.277589 0.913302 -0.459488
N7    N     N_3   0.573898 0.816465 0.919613 -0.446792
N8    N     N_3   0.426102 0.183535 0.080387 -0.446792
O1    O     O_R   0.285350 0.636850 0.500000 -0.617560
O2    O     O_R   0.714650 0.363150 0.500000 -0.617560
O3    O     O_R   0.714650 0.636850 0.500000 -0.616631
O4    O     O_R   0.285350 0.363150 0.500000 -0.616631
O5    O     O_R   0.499970 0.636850 0.313950 -0.617603
O6    O     O_R   0.500030 0.363150 0.686050 -0.617602
O7    O     O_R   0.500030 0.636850 0.686050 -0.621676
O8    O     O_R   0.499970 0.363150 0.313950 -0.621675
Zn1   Zn    Zn3+2 0.500000 0.682780 0.500000 0.992452
Zn2   Zn    Zn3+2 0.500000 0.317220 0.500000 0.992452

loop_
_geom_bond_atom_site_label_1
_geom_bond_atom_site_label_2
_ccdc_geom_bond_type
O3    Zn1   S    
C2    C4    S    
H10   N6    S    
O4    Zn2   S    
C6    C7    S    
C3    C9    S    
C8    O5    A    
H2    N7    S    
O1    Zn1   S    
C7    O2    A    
N2    Zn1   S    
C9    O7    A    
C2    N4    S    
C4    C8    S    
C2    C12   S    
H11   N6    S    
C7    O3    A    
C13   N8    S    
H6    N4    S    
C13   C14   S    
O7    Zn1   S    
H3    N8    S    
C4    C13   S    
C3    C14   S    
O8    Zn2   S    
C1    O4    A    
C1    C5    S    
C2    C11   S    
C10   C12   S    
C8    O8    A    
C11   N6    S    
H1    N3    S    
H4    N8    S    
C5    C6    T    
O2    Zn2   S    
C11   C13   S    
C3    C11   S    
H8    N5    S    
C14   N3    S    
C4    C10   S    
H5    N3    S    
H7    N4    S    
O6    Zn2   S    
C1    O1    A    
C10   C14   S    
N1    N2    T    
O5    Zn1   S    
C3    C12   S    
H12   N7    S    
C12   N7    S    
N1    Zn2   S    
C9    O6    A    
H9    N5    S    
C10   N5    S    
