data_mof_unit_63979.cif
_audit_creation_date              2012-12-10T17:40:49-0500
_audit_creation_method            fapswitch 2.2
_symmetry_space_group_name_H-M    P1
_symmetry_Int_Tables_number       1
_space_group_crystal_system       triclinic
_cell_length_a                    37.350874
_cell_length_b                    30.365198
_cell_length_c                    21.771331
_cell_angle_alpha                 90.000087
_cell_angle_beta                  54.469958
_cell_angle_gamma                 90.000071
_cell_volume                      20094.8784042

loop_
_atom_site_label
_atom_site_type_symbol
_atom_type_description
_atom_site_fract_x
_atom_site_fract_y
_atom_site_fract_z
_atom_type_partial_charge
C1    C     C_R   0.085228 0.500113 0.415675 0.814176
C2    C     C_R   0.914771 0.500113 0.584324 0.814173
C3    C     C_R   0.585228 0.000113 0.415675 0.814177
C4    C     C_R   0.414771 0.000113 0.584324 0.814178
C5    C     C_R   0.031031 0.528031 0.686840 0.039993
C6    C     C_R   0.968968 0.528030 0.313161 0.039995
C7    C     C_R   0.531032 0.028030 0.686839 0.039997
C8    C     C_R   0.468968 0.028030 0.313160 0.039997
C9    C     C_R   0.001665 0.499980 0.684116 -0.217758
C10   C     C_R   0.998335 0.499980 0.315884 -0.217756
C11   C     C_R   0.501664 0.999980 0.684116 -0.217766
C12   C     C_R   0.498335 0.999980 0.315884 -0.217767
C13   C     C_R   0.971921 0.472872 0.745952 0.233040
C14   C     C_R   0.028079 0.472872 0.254048 0.233040
C15   C     C_R   0.471921 0.972872 0.745952 0.233071
C16   C     C_R   0.528078 0.972871 0.254048 0.233073
C17   C     C_R   0.972582 0.472180 0.809375 0.226910
C18   C     C_R   0.027418 0.472181 0.190625 0.226913
C19   C     C_R   0.472582 0.972180 0.809375 0.226950
C20   C     C_R   0.527417 0.972179 0.190626 0.226949
C21   C     C_R   0.999819 0.501793 0.814458 -0.221065
C22   C     C_R   0.000180 0.501793 0.185542 -0.221066
C23   C     C_R   0.499819 0.001793 0.814457 -0.221037
C24   C     C_R   0.500180 0.001793 0.185542 -0.221034
C25   C     C_R   0.201767 0.459757 0.281868 -0.073057
C26   C     C_R   0.798233 0.459754 0.718117 -0.073063
C27   C     C_R   0.701766 0.959752 0.281886 -0.073033
C28   C     C_R   0.298234 0.959752 0.718116 -0.073032
C29   C     C_R   0.155989 0.461321 0.328283 -0.172413
C30   C     C_R   0.844010 0.461318 0.671704 -0.172418
C31   C     C_R   0.655989 0.961317 0.328298 -0.172429
C32   C     C_R   0.344011 0.961317 0.671704 -0.172427
C33   C     C_R   0.133802 0.500133 0.367514 -0.104924
C34   C     C_R   0.866198 0.500133 0.632485 -0.104933
C35   C     C_R   0.633802 0.000132 0.367515 -0.104928
C36   C     C_R   0.366198 0.000132 0.632485 -0.104926
C37   C     C_R   0.158823 0.537735 0.359329 0.251027
C38   C     C_R   0.841177 0.537738 0.640680 0.251032
C39   C     C_R   0.658824 0.037738 0.359317 0.251053
C40   C     C_R   0.341176 0.037737 0.640681 0.251052
C41   C     C_R   0.204629 0.535711 0.312408 -0.092615
C42   C     C_R   0.795371 0.535714 0.687603 -0.092618
C43   C     C_R   0.704630 0.035713 0.312395 -0.092674
C44   C     C_R   0.295370 0.035712 0.687604 -0.092673
C45   C     C_R   0.000565 0.499974 0.618270 0.832110
C46   C     C_R   0.999435 0.499974 0.381730 0.832108
C47   C     C_R   0.500565 0.999974 0.618270 0.832113
C48   C     C_R   0.499435 0.999974 0.381730 0.832112
C49   C     C_R   0.226104 0.496967 0.273880 0.099788
C50   C     C_R   0.773896 0.496967 0.726118 0.099783
C51   C     C_R   0.726104 0.996965 0.273882 0.099794
C52   C     C_R   0.273896 0.996965 0.726118 0.099793
C53   C     C_R   0.297565 0.495558 0.258169 0.256421
C54   C     C_R   0.702435 0.495586 0.741830 0.256411
C55   C     C_R   0.797565 0.995584 0.258170 0.256392
C56   C     C_R   0.202435 0.995582 0.741830 0.256392
C57   C     C_R   0.343385 0.496807 0.212078 -0.160996
C58   C     C_R   0.656615 0.496835 0.787922 -0.160987
C59   C     C_R   0.843385 0.996833 0.212078 -0.161086
C60   C     C_R   0.156615 0.996832 0.787922 -0.161086
C61   C     C_R   0.366554 0.498166 0.133278 -0.124197
C62   C     C_R   0.633445 0.498166 0.866721 -0.124228
C63   C     C_R   0.866555 0.998164 0.133279 -0.124369
C64   C     C_R   0.133445 0.998164 0.866721 -0.124367
C65   C     C_R   0.343201 0.497797 0.100957 -0.161355
C66   C     C_R   0.656799 0.497770 0.899041 -0.161346
C67   C     C_R   0.843201 0.997765 0.100959 -0.161420
C68   C     C_R   0.156799 0.997767 0.899041 -0.161420
C69   C     C_R   0.297347 0.496640 0.146509 0.261708
C70   C     C_R   0.702652 0.496612 0.853489 0.261701
C71   C     C_R   0.797348 0.996607 0.146512 0.261689
C72   C     C_R   0.202652 0.996609 0.853488 0.261690
C73   C     C_R   0.274269 0.495697 0.225529 -0.054254
C74   C     C_R   0.725731 0.495697 0.774468 -0.054245
C75   C     C_R   0.774269 0.995694 0.225532 -0.054252
C76   C     C_R   0.225731 0.995694 0.774468 -0.054253
C77   C     C_R   1.000000 0.633522 1.000000 -0.029829
C78   C     C_R   0.500000 0.133522 0.000000 -0.029859
C79   C     C_R   0.039317 0.702724 0.951562 -0.144628
C80   C     C_R   0.960683 0.702724 0.048438 -0.144629
C81   C     C_R   0.539322 0.202724 0.951608 -0.144638
C82   C     C_R   0.460678 0.202724 0.048392 -0.144638
C83   C     C_R   0.500000 0.725403 0.999998 -0.008712
C84   C     C_R   1.000000 0.225408 1.000000 -0.008652
C85   C     C_R   0.039336 0.656848 0.951624 -0.175184
C86   C     C_R   0.960664 0.656848 0.048376 -0.175184
C87   C     C_R   0.539340 0.156847 0.951669 -0.175191
C88   C     C_R   0.460660 0.156847 0.048331 -0.175191
C89   C     C_R   1.000000 0.726044 1.000000 0.132433
C90   C     C_R   0.500000 0.226043 1.000000 0.132427
C91   C     C_R   1.000000 0.414853 1.000000 0.827067
C92   C     C_R   0.500000 0.914852 1.000000 0.827022
C93   C     C_R   0.999924 0.500570 0.881271 0.842360
C94   C     C_R   0.000076 0.500570 0.118729 0.842360
C95   C     C_R   0.499924 0.000570 0.881271 0.842364
C96   C     C_R   0.500076 0.000570 0.118728 0.842368
C97   C     C_R   0.466622 0.297865 0.002880 -0.166504
C98   C     C_R   0.533378 0.297865 0.997119 -0.166503
C99   C     C_R   0.966599 0.797866 0.002946 -0.166488
C100  C     C_R   0.033401 0.797866 0.997054 -0.166488
C101  C     C_R   0.000000 0.585118 0.000000 0.747948
C102  C     C_R   0.500000 0.085118 0.000000 0.747944
C103  C     C_R   0.500000 0.415141 1.000000 0.862877
C104  C     C_R   1.000000 0.915141 1.000000 0.862926
C105  C     C_R   0.414926 0.499566 0.085011 0.852665
C106  C     C_R   0.585074 0.499566 0.914989 0.852667
C107  C     C_R   0.914926 0.999566 0.085011 0.852447
C108  C     C_R   0.085074 0.999566 0.914989 0.852445
C109  C     C_R   0.466402 0.343775 0.002951 0.225279
C110  C     C_R   0.533598 0.343775 0.997049 0.225281
C111  C     C_R   0.966380 0.843776 0.003014 0.225264
C112  C     C_R   0.033620 0.843776 0.996985 0.225264
C113  C     C_R   0.500000 0.584876 1.000000 0.866124
C114  C     C_R   1.000000 0.084877 0.000000 0.865764
C115  C     C_R   0.039466 0.297265 0.968573 -0.135490
C116  C     C_R   0.960533 0.297265 0.031427 -0.135489
C117  C     C_R   0.539407 0.797262 0.969181 -0.135471
C118  C     C_R   0.460594 0.797262 0.030816 -0.135472
C119  C     C_R   0.500000 0.632984 1.000000 -0.150326
C120  C     C_R   1.000000 0.132988 0.000000 -0.150637
C121  C     C_R   0.039485 0.343134 0.968462 -0.136719
C122  C     C_R   0.960515 0.343134 0.031538 -0.136719
C123  C     C_R   0.539425 0.843133 0.969070 -0.136700
C124  C     C_R   0.460575 0.843133 0.030928 -0.136702
C125  C     C_R   1.000000 0.366456 1.000000 -0.042255
C126  C     C_R   0.500000 0.866454 1.000000 -0.042528
C127  C     C_R   0.500000 0.274600 1.000000 -0.013699
C128  C     C_R   0.000000 0.774601 1.000000 -0.013684
C129  C     C_R   0.500000 0.367030 1.000000 -0.147977
C130  C     C_R   0.000000 0.867031 1.000000 -0.147962
C131  C     C_R   1.000000 0.273952 1.000000 0.122806
C132  C     C_R   0.500000 0.773949 0.999998 0.122591
C133  C     C_R   0.466886 0.702145 0.063970 -0.160884
C134  C     C_R   0.533114 0.702145 0.936027 -0.160882
C135  C     C_R   0.967066 0.202150 0.064154 -0.161015
C136  C     C_R   0.032934 0.202150 0.935846 -0.161014
C137  C     C_R   0.466660 0.656241 0.064340 0.226315
C138  C     C_R   0.533340 0.656241 0.935658 0.226316
C139  C     C_R   0.966831 0.156248 0.064521 0.226519
C140  C     C_R   0.033168 0.156248 0.935479 0.226519
C141  C     C_R   0.063660 0.553033 0.623593 -0.104165
C142  C     C_R   0.936338 0.553031 0.376409 -0.104173
C143  C     C_R   0.563662 0.053031 0.623591 -0.104166
C144  C     C_R   0.436339 0.053032 0.376408 -0.104164
C145  C     C_R   0.089457 0.583380 0.629593 -0.081872
C146  C     C_R   0.910541 0.583378 0.370411 -0.081873
C147  C     C_R   0.589459 0.083377 0.629589 -0.081880
C148  C     C_R   0.410542 0.083379 0.370409 -0.081880
C149  C     C_R   0.083381 0.589475 0.698296 -0.131523
C150  C     C_R   0.916617 0.589473 0.301708 -0.131518
C151  C     C_R   0.583384 0.089472 0.698292 -0.131506
C152  C     C_R   0.416618 0.089474 0.301706 -0.131505
C153  C     C_R   0.052976 0.563753 0.760309 -0.121775
C154  C     C_R   0.947023 0.563752 0.239693 -0.121777
C155  C     C_R   0.552977 0.063752 0.760307 -0.121769
C156  C     C_R   0.447024 0.063753 0.239692 -0.121769
C157  C     C_R   0.027905 0.531156 0.754525 0.058039
C158  C     C_R   0.972094 0.531156 0.245476 0.058038
C159  C     C_R   0.527906 0.031156 0.754524 0.058029
C160  C     C_R   0.472094 0.031156 0.245476 0.058029
Cu1   Cu    Cu3+1 1.000000 0.544050 0.500000 1.083059
Cu2   Cu    Cu3+1 0.500000 0.044050 0.500000 1.083049
Cu3   Cu    Cu3+1 1.000000 0.455950 0.500000 1.068520
Cu4   Cu    Cu3+1 0.500000 0.955950 0.500000 1.068509
Cu5   Cu    Cu3+1 0.955950 0.499980 0.044050 1.032558
Cu6   Cu    Cu3+1 0.044050 0.499980 0.955950 1.032561
Cu7   Cu    Cu3+1 0.455950 0.999980 0.044050 1.032588
Cu8   Cu    Cu3+1 0.544050 0.999980 0.955950 1.032587
Cu9   Cu    Cu3+1 0.500000 0.500010 0.061800 1.079535
Cu10  Cu    Cu3+1 0.500000 0.500010 0.938200 1.079535
Cu11  Cu    Cu3+1 0.000000 0.000010 0.061800 1.079669
Cu12  Cu    Cu3+1 0.000000 0.000010 0.938200 1.079669
H1    H     H_    0.070096 0.639691 0.913378 0.162084
H2    H     H_    0.929904 0.639691 0.086622 0.162084
H3    H     H_    0.570105 0.139691 0.913459 0.162116
H4    H     H_    0.429895 0.139691 0.086541 0.162116
H5    H     H_    0.440805 0.280357 0.004553 0.175975
H6    H     H_    0.559195 0.280357 0.995447 0.175976
H7    H     H_    0.940764 0.780359 0.004669 0.175972
H8    H     H_    0.059236 0.780359 0.995331 0.175972
H9    H     H_    0.070030 0.549157 0.568755 0.166190
H10   H     H_    0.929969 0.549155 0.431248 0.166179
H11   H     H_    0.570031 0.049155 0.568753 0.166179
H12   H     H_    0.429970 0.049156 0.431247 0.166182
H13   H     H_    0.113900 0.602597 0.580954 0.182801
H14   H     H_    0.886097 0.602594 0.419050 0.182796
H15   H     H_    0.613903 0.102593 0.580950 0.182792
H16   H     H_    0.386099 0.102595 0.419048 0.182793
O1    O     O_R   0.064270 0.537190 0.435730 -0.543380
O2    O     O_R   0.935730 0.537190 0.564270 -0.543381
O3    O     O_R   0.564270 0.037190 0.435730 -0.543381
O4    O     O_R   0.435730 0.037190 0.564270 -0.543381
O5    O     O_R   0.435730 0.500010 0.116460 -0.576877
O6    O     O_R   0.564270 0.500010 0.883540 -0.576880
O7    O     O_R   0.935730 0.000010 0.116460 -0.576807
O8    O     O_R   0.064270 0.000010 0.883540 -0.576806
O9    O     O_R   0.435720 0.500010 0.012080 -0.576547
O10   O     O_R   0.564280 0.500010 0.987920 -0.576549
O11   O     O_R   0.935720 0.000010 0.012080 -0.576571
O12   O     O_R   0.064280 0.000010 0.987920 -0.576571
O13   O     O_R   0.500010 0.564280 0.052190 -0.554581
O14   O     O_R   0.499990 0.564280 0.947810 -0.554584
O15   O     O_R   0.000010 0.064280 0.052190 -0.554436
O16   O     O_R   0.999990 0.064280 0.947810 -0.554435
O17   O     O_R   0.064270 0.462800 0.435730 -0.580701
O18   O     O_R   0.935730 0.462800 0.564270 -0.580704
O19   O     O_R   0.564270 0.962800 0.435730 -0.580705
O20   O     O_R   0.435730 0.962800 0.564270 -0.580705
O21   O     O_R   0.000010 0.537190 0.590170 -0.580814
O22   O     O_R   0.999990 0.537190 0.409830 -0.580814
O23   O     O_R   0.500010 0.037190 0.590170 -0.580815
O24   O     O_R   0.499990 0.037190 0.409830 -0.580816
O25   O     O_R   1.000000 0.462800 0.590170 -0.547617
O26   O     O_R   0.000000 0.462800 0.409830 -0.547620
O27   O     O_R   0.500000 0.962800 0.590170 -0.547619
O28   O     O_R   0.500000 0.962800 0.409830 -0.547617
O29   O     O_R   0.962800 0.435720 0.037190 -0.571686
O30   O     O_R   0.037200 0.435720 0.962810 -0.571686
O31   O     O_R   0.462800 0.935720 0.037190 -0.571635
O32   O     O_R   0.537200 0.935720 0.962810 -0.571634
O33   O     O_R   0.962790 0.499990 0.947030 -0.538762
O34   O     O_R   0.037210 0.499990 0.052970 -0.538760
O35   O     O_R   0.462790 0.999990 0.947030 -0.538788
O36   O     O_R   0.537210 0.999990 0.052970 -0.538789
O37   O     O_R   0.037190 0.500000 0.872640 -0.591606
O38   O     O_R   0.962810 0.500000 0.127360 -0.591608
O39   O     O_R   0.537190 0.000000 0.872640 -0.591567
O40   O     O_R   0.462810 0.000000 0.127360 -0.591568
O41   O     O_R   0.962790 0.564250 0.037210 -0.595486
O42   O     O_R   0.037210 0.564250 0.962790 -0.595486
O43   O     O_R   0.462790 0.064250 0.037210 -0.595495
O44   O     O_R   0.537210 0.064250 0.962790 -0.595495
O45   O     O_R   0.500000 0.435740 0.052190 -0.556139
O46   O     O_R   0.500000 0.435740 0.947810 -0.556136
O47   O     O_R   1.000000 0.935740 0.052190 -0.556138
O48   O     O_R   0.000000 0.935740 0.947810 -0.556138
Br1   Br    Br    0.134010 0.592575 0.411473 -0.479876
Br2   Br    Br    0.865990 0.592581 0.588550 -0.479842
Br3   Br    Br    0.634011 0.092581 0.411446 -0.479881
Br4   Br    Br    0.365988 0.092580 0.588552 -0.479884
H17   H     H_    0.223726 0.564411 0.306225 0.185153
H18   H     H_    0.776274 0.564416 0.693795 0.185163
H19   H     H_    0.723727 0.064415 0.306201 0.185115
H20   H     H_    0.276273 0.064414 0.693796 0.185115
Br5   Br    Br    0.268147 0.493162 0.365499 -0.449156
Br6   Br    Br    0.731851 0.493226 0.634499 -0.449163
Br7   Br    Br    0.768148 0.993227 0.365501 -0.449120
Br8   Br    Br    0.231851 0.993222 0.634499 -0.449119
H21   H     H_    0.360773 0.496741 0.238158 0.203808
H22   H     H_    0.639226 0.496791 0.761843 0.203826
H23   H     H_    0.860774 0.996791 0.238157 0.203876
H24   H     H_    0.139226 0.996788 0.761842 0.203875
H25   H     H_    0.360461 0.498755 0.040254 0.203953
H26   H     H_    0.639538 0.498705 0.959743 0.203970
H27   H     H_    0.860462 0.998699 0.040257 0.203983
H28   H     H_    0.139538 0.998702 0.959743 0.203982
Br9   Br    Br    0.267583 0.498049 0.098416 -0.411412
Br10  Br    Br    0.732415 0.497983 0.901582 -0.411413
Br11  Br    Br    0.767585 0.997975 0.098418 -0.411448
Br12  Br    Br    0.232415 0.997979 0.901582 -0.411447
Br13  Br    Br    0.418426 0.373156 0.010474 -0.462300
Br14  Br    Br    0.581574 0.373156 0.989526 -0.462308
Br15  Br    Br    0.918379 0.873160 0.010620 -0.462310
Br16  Br    Br    0.081621 0.873161 0.989380 -0.462309
H29   H     H_    0.069960 0.719980 0.912947 0.146223
H30   H     H_    0.930041 0.719980 0.087053 0.146223
H31   H     H_    0.569968 0.219980 0.913028 0.146230
H32   H     H_    0.430032 0.219980 0.086972 0.146230
H33   H     H_    0.070241 0.280014 0.944930 0.152253
H34   H     H_    0.929759 0.280014 0.055070 0.152253
H35   H     H_    0.570126 0.780007 0.946024 0.152368
H36   H     H_    0.429874 0.780007 0.053972 0.152369
Br17  Br    Br    0.928172 0.438148 0.746608 -0.381023
Br18  Br    Br    0.071829 0.438150 0.253391 -0.381045
Br19  Br    Br    0.428171 0.938149 0.746609 -0.381041
Br20  Br    Br    0.571827 0.938148 0.253392 -0.381038
H37   H     H_    0.070376 0.360284 0.944166 0.179896
H38   H     H_    0.929624 0.360284 0.055834 0.179896
H39   H     H_    0.570263 0.860286 0.945275 0.180142
H40   H     H_    0.429737 0.860286 0.054723 0.180142
H41   H     H_    0.441279 0.719654 0.114000 0.176353
H42   H     H_    0.558721 0.719654 0.885996 0.176353
H43   H     H_    0.941602 0.219657 0.114329 0.176315
H44   H     H_    0.058398 0.219657 0.885671 0.176316
Br21  Br    Br    0.418991 0.626896 0.152930 -0.456568
Br22  Br    Br    0.581009 0.626896 0.847067 -0.456572
Br23  Br    Br    0.919359 0.126926 0.153383 -0.456168
Br24  Br    Br    0.080641 0.126926 0.846617 -0.456167
H45   H     H_    0.102652 0.613871 0.703389 0.150499
H46   H     H_    0.897344 0.613869 0.296615 0.150500
H47   H     H_    0.602656 0.113868 0.703385 0.150506
H48   H     H_    0.397347 0.113870 0.296613 0.150506
H49   H     H_    0.049162 0.570185 0.812633 0.141384
H50   H     H_    0.950836 0.570184 0.187370 0.141385
H51   H     H_    0.549164 0.070184 0.812630 0.141390
H52   H     H_    0.450837 0.070185 0.187369 0.141389
Br25  Br    Br    0.937635 0.428542 0.887068 -0.388938
Br26  Br    Br    0.062366 0.428543 0.112931 -0.388940
Br27  Br    Br    0.437634 0.928543 0.887069 -0.389296
Br28  Br    Br    0.562362 0.928540 0.112933 -0.389300
H53   H     H_    0.218259 0.429594 0.252158 0.172009
H54   H     H_    0.781741 0.429589 0.747816 0.172015
H55   H     H_    0.718258 0.929586 0.252189 0.172023
H56   H     H_    0.281742 0.929587 0.747815 0.172024
H57   H     H_    0.137937 0.432080 0.333001 0.195398
H58   H     H_    0.862062 0.432076 0.666977 0.195394
H59   H     H_    0.637937 0.932074 0.333027 0.195392
H60   H     H_    0.362063 0.932075 0.666976 0.195393

loop_
_geom_bond_atom_site_label_1
_geom_bond_atom_site_label_2
_ccdc_geom_bond_type
C144  H12   S    
C133  C137  A    
C55   C59   A    
C142  C146  A    
C77   C101  S    
C136  C140  A    
Cu8   O39   S    
C4    C36   S    
Cu5   O33   S    
C144  C148  A    
C135  C139  A    
C56   Br8   S    
C100  C128  A    
C121  H37   S    
C154  C158  A    
C26   C50   A    
C123  H39   S    
C7    C159  A    
C29   C33   A    
Cu12  O11   S    
C117  C132  A    
C149  C153  A    
C80   C86   A    
C117  H35   S    
C54   C74   A    
C11   C15   A    
C104  O47   A    
C32   H60   S    
C12   C16   A    
C31   H59   S    
C65   H25   S    
C70   C74   A    
C45   O25   A    
C113  O13   A    
C61   C105  S    
C141  C145  A    
C2    C34   S    
C105  O9    A    
C102  O44   A    
Cu2   O4    S    
Cu1   Cu3   S    
C4    O20   A    
Cu2   Cu4   S    
Cu12  O48   S    
Cu4   O27   S    
C25   C29   A    
C26   H54   S    
C27   C31   A    
C28   C32   A    
Cu11  O7    S    
C62   C66   A    
C123  C126  A    
Cu9   O5    S    
C46   O22   A    
C42   H18   S    
C17   C21   A    
C86   H2    S    
C91   O29   A    
C19   C23   A    
C110  Br14  S    
Cu8   O44   S    
C111  C130  A    
C68   C72   A    
C118  C124  A    
Cu8   O32   S    
C15   Br19  S    
C112  Br16  S    
C81   C90   A    
C98   C127  A    
C142  H10   S    
C143  C147  A    
C103  O46   A    
Cu4   O20   S    
C49   C73   S    
Cu12  O8    S    
C57   H21   S    
C79   C85   A    
C154  H50   S    
C91   C125  S    
C2    O2    A    
C57   C61   A    
C99   C128  A    
C62   C106  S    
C148  H16   S    
Cu1   O22   S    
C59   C63   A    
C60   C64   A    
C3    O19   A    
C24   C96   S    
C30   H58   S    
Cu7   O40   S    
C66   C70   A    
C21   C93   S    
C23   C95   S    
C141  H9    S    
C136  H44   S    
C95   O39   A    
Cu10  O14   S    
C61   C65   A    
C41   H17   S    
C78   C87   A    
C84   C135  A    
C115  C121  A    
C47   O23   A    
C39   Br3   S    
C124  H40   S    
C106  O6    A    
Cu11  O47   S    
C5    C9    A    
Cu9   O45   S    
C80   H30   S    
C64   C68   A    
C50   C74   S    
Cu3   O26   S    
C71   Br11  S    
C110  C129  A    
C9    C13   A    
C5    C141  A    
C152  C156  A    
C23   C159  A    
C101  O42   A    
C2    O18   A    
C137  Br21  S    
C98   H6    S    
C67   C71   A    
Cu5   O29   S    
C55   C75   A    
C44   C52   A    
C77   C85   A    
C146  C150  A    
Cu11  O15   S    
C22   C94   S    
C152  H48   S    
C122  H38   S    
Cu7   O31   S    
C6    C158  A    
C27   C51   A    
C64   C108  S    
C118  H36   S    
C17   Br25  S    
C30   C34   A    
C155  C159  A    
C48   O24   A    
C156  C160  A    
C10   C14   A    
C45   O21   A    
C145  H13   S    
C92   O31   A    
C147  C151  A    
C121  C125  A    
Cu11  O12   S    
C93   O37   A    
C38   Br2   S    
C97   C109  A    
C14   Br18  S    
C3    C35   S    
C8    C12   A    
C99   C111  A    
C42   C50   A    
C26   C30   A    
C151  C155  A    
C59   H23   S    
C150  H46   S    
C114  O16   A    
C108  O8    A    
C100  H8    S    
C44   H20   S    
C124  C126  A    
C18   C22   A    
C119  C138  A    
C148  C152  A    
Cu1   O2    S    
C52   C76   S    
C115  H33   S    
C13   Br17  S    
C87   H3    S    
Cu3   O18   S    
C88   H4    S    
C13   C17   A    
C122  C125  A    
C40   Br4   S    
C107  O11   A    
Cu6   O37   S    
C82   C88   A    
C37   C41   A    
C114  C120  S    
C79   C89   A    
C118  C132  A    
C104  O48   A    
C103  O45   A    
C94   O34   A    
C82   H32   S    
C112  C130  A    
C109  C129  A    
Cu10  O9    S    
C1    O1    A    
C58   C62   A    
Cu5   O41   S    
C9    C45   S    
C98   C110  A    
C78   C102  S    
C4    O4    A    
C11   C47   S    
C12   C48   S    
Cu6   O34   S    
Cu4   O28   S    
C15   C19   A    
C134  H42   S    
C116  C122  A    
C69   Br9   S    
Cu2   O23   S    
C41   C49   A    
C80   C89   A    
Cu12  O16   S    
C83   C134  A    
C113  C119  S    
C66   H26   S    
C47   O27   A    
C90   C127  S    
C69   C73   A    
C6    C142  A    
C97   C127  A    
C106  O10   A    
C32   C36   A    
Cu6   O42   S    
C104  C130  S    
C116  H34   S    
C7    C143  A    
Cu2   O3    S    
C135  H43   S    
Cu7   Cu8   S    
Cu10  O6    S    
C53   C57   A    
C22   C158  A    
C147  H15   S    
Cu1   O21   S    
C33   C37   A    
C56   C60   A    
C155  H51   S    
C143  H11   S    
C35   C39   A    
C99   H7    S    
C97   H5    S    
C139  Br23  S    
C113  O14   A    
C140  Br24  S    
C103  C129  S    
Cu7   O35   S    
C81   C87   A    
C100  C112  A    
C5    C157  A    
C18   Br26  S    
C102  O43   A    
C31   C35   A    
C109  Br13  S    
C16   Br20  S    
C8    C160  A    
C96   O40   A    
C78   C88   A    
C84   C136  A    
C146  H14   S    
C92   C126  S    
C6    C10   A    
C67   H27   S    
C82   C90   A    
C43   H19   S    
C91   O30   A    
C83   C132  S    
Cu3   O25   S    
C43   C51   A    
C65   C69   A    
C151  H47   S    
C54   Br6   S    
C153  C157  A    
C25   C49   A    
C94   O38   A    
Cu9   O13   S    
C70   Br10  S    
C101  O41   A    
C145  C149  A    
C89   C128  S    
Cu11  Cu12  S    
C48   O28   A    
Cu5   Cu6   S    
C56   C76   A    
C95   O35   A    
Cu9   Cu10  S    
C14   C18   A    
C72   C76   A    
C107  O7    A    
C1    C33   S    
C115  C131  A    
C105  O5    A    
Cu10  O46   S    
C37   Br1   S    
C51   C75   S    
C38   C42   A    
C25   H53   S    
C27   H55   S    
C92   O32   A    
C28   H56   S    
C20   Br28  S    
C20   C24   A    
C96   O36   A    
C10   C46   S    
C85   H1    S    
C1    O17   A    
Cu6   O30   S    
C16   C20   A    
C55   Br7   S    
Cu8   O36   S    
C63   C67   A    
C149  H45   S    
C156  H52   S    
C119  C137  A    
C36   C40   A    
Cu1   O1    S    
C39   C43   A    
C153  H49   S    
Cu3   O17   S    
C108  O12   A    
C3    O3    A    
C68   H28   S    
C7    C11   A    
C40   C44   A    
C8    C144  A    
C120  C139  A    
C29   H57   S    
C111  Br15  S    
C120  C140  A    
C77   C86   A    
C72   Br12  S    
C58   H22   S    
C63   C107  S    
C81   H31   S    
C54   C58   A    
C34   C38   A    
C21   C157  A    
C53   C73   A    
Cu4   O19   S    
C134  C138  A    
C24   C160  A    
Cu7   O43   S    
C138  Br22  S    
C84   C131  S    
C117  C123  A    
C71   C75   A    
C28   C52   A    
C116  C131  A    
Cu2   O24   S    
C133  H41   S    
Cu5   O38   S    
C79   H29   S    
C19   Br27  S    
C53   Br5   S    
C83   C133  A    
C150  C154  A    
C60   H24   S    
C114  O15   A    
C93   O33   A    
C46   O26   A    
Cu9   O10   S    
