data_mof_unit_15466.cif
_audit_creation_date              2013-03-05T15:45:31-0500
_audit_creation_method            fapswitch 2.2
_symmetry_space_group_name_H-M    P1
_symmetry_Int_Tables_number       1
_space_group_crystal_system       triclinic
_cell_length_a                    9.785861
_cell_length_b                    10.959203
_cell_length_c                    13.55951
_cell_angle_alpha                 93.979007
_cell_angle_beta                  82.43148
_cell_angle_gamma                 111.01083
_cell_volume                      1345.2948153

loop_
_atom_site_label
_atom_site_type_symbol
_atom_site_description
_atom_site_fract_x
_atom_site_fract_y
_atom_site_fract_z
_atom_type_partial_charge
O1    O     O_R   0.426290 0.668220 0.490680 -0.584901
O2    O     O_R   0.659360 0.703290 0.520190 -0.517639
C1    C     C_R   0.557909 0.746871 0.503208 0.805958
O3    O     O_R   0.326580 0.473880 0.629020 -0.552664
O4    O     O_R   0.559660 0.508940 0.658530 -0.585722
C2    C     C_R   0.421433 0.473123 0.689411 0.833426
Cu1   Cu    Cu3+1 0.362000 0.479240 0.482530 1.007376
Cu2   Cu    Cu3+1 0.638000 0.520760 0.517470 1.040378
O5    O     O_R   0.340640 0.296710 0.479810 -0.549277
O6    O     O_R   0.573710 0.331780 0.509320 -0.571638
O7    O     O_R   0.440340 0.491060 0.341470 -0.560538
O8    O     O_R   0.673420 0.526120 0.370980 -0.582600
C3    C     C_R   0.444517 0.254248 0.490871 0.875523
C4    C     C_R   0.576086 0.508702 0.310387 0.835695
C5    C     C_R   0.807058 0.602977 0.067050 -0.113350
H1    H     H_    0.845030 0.642385 0.219212 0.181417
H2    H     H_    0.921473 0.656547 0.042410 0.186168
C6    C     C_R   0.620490 0.516501 0.203815 -0.081205
C7    C     C_R   0.226566 0.384710 0.835025 0.140593
C8    C     C_R   0.186268 0.384946 0.938387 0.209738
C9    C     C_R   0.294108 0.429700 0.002789 -0.207005
C10   C     C_R   0.443435 0.456066 0.968616 0.052091
C11   C     C_R   0.487301 0.461106 0.864699 0.019236
C12   C     C_R   0.551808 0.485234 0.035861 0.028024
C13   C     C_R   0.702604 0.546614 0.999923 0.077649
C14   C     C_R   0.746038 0.541918 0.898144 0.150183
C15   C     C_R   0.639577 0.487053 0.833737 -0.149910
C16   C     C_R   0.517085 0.452576 0.137131 0.098374
C17   C     C_R   0.764351 0.593225 0.168447 -0.197463
C18   C     C_R   0.377763 0.438555 0.796952 -0.188284
H3    H     H_    0.258981 0.440815 0.080725 0.185083
H4    H     H_    0.681985 0.461300 0.761467 0.211090
H5    H     H_    0.377307 0.857319 0.457413 0.189750
C19   C     C_2   0.592092 0.888294 0.493564 -0.191512
C20   C     C_2   0.487229 0.927246 0.465056 -0.250563
H6    H     H_    0.315141 0.054506 0.535513 0.158642
C21   C     C_2   0.413290 0.114485 0.490001 -0.304662
C22   C     C_2   0.510414 0.062803 0.444657 0.228097
H7    H     H_    0.128062 0.569370 0.572369 0.205232
H8    H     H_    0.859318 0.393068 0.459576 0.159097
N1    N     N_2   0.845330 0.551960 0.543750 -0.095854
C23   C     C_2   0.917264 0.478605 0.502548 0.027635
H9    H     H_    0.104241 0.385161 0.400954 0.224329
N2    N     N_2   0.154690 0.448120 0.456210 -0.290855
C24   C     C_2   0.076541 0.504138 0.513402 -0.027655
C25   C     C_2   0.739309 0.983067 0.513225 0.922819
O9    O     O_2   0.850087 0.956434 0.486924 -0.544319
O10   O     O_R   0.751201 0.102930 0.561518 -0.733338
H10   H     H_    0.857270 0.160452 0.567400 0.349969
I1    I     I_    0.962937 0.740435 0.594371 -0.178479
I2    I     I_    0.971327 0.601328 0.837284 -0.310657
I3    I     I_    0.345368 0.271110 0.182189 -0.269937
I4    I     I_    0.058480 0.285523 0.740963 -0.247510
I5    I     I_    0.964172 0.316317 0.006049 -0.231840
I6    I     I_    0.682679 0.162459 0.332684 -0.284195

loop_
_geom_bond_atom_site_label_1
_geom_bond_atom_site_label_2
_geom_bond_distance
_ccdc_geom_bond_type
O4    Cu2   1.959550 S    
H9    N2    1.030819 S    
C5    H2    1.080389 S    
C21   C22   1.336379 D    
C19   C25   1.488303 S    
C11   C15   1.423227 A    
C9    H3    1.079930 S    
N1    C23   1.301458 D    
C4    C6    1.452385 S    
C3    C21   1.449969 S    
C7    C8    1.405151 A    
H7    C24   1.083035 S    
Cu2   O8    1.972140 S    
C7    I4    2.142896 S    
H8    C23   1.081602 S    
O2    C1    1.297018 A    
C15   H4    1.072688 S    
Cu1   Cu2   2.674365 S    
C6    C17   1.395774 A    
O1    Cu1   1.936375 S    
C14   I2    2.128701 S    
C12   C13   1.418381 A    
Cu1   O7    1.959550 S    
C16   I3    2.157271 S    
C14   C15   1.388236 A    
C8    C9    1.388878 A    
O3    Cu1   1.972142 S    
O3    C2    1.318675 A    
H6    C21   1.087587 S    
C2    C18   1.499641 S    
O8    C4    1.293340 A    
C5    C17   1.383262 A    
C10   C12   1.424590 A    
C10   C11   1.416782 A    
O4    C2    1.285301 A    
H5    C20   1.087349 S    
O7    C4    1.288142 A    
C25   O10   1.399625 S    
C5    C13   1.403262 A    
C22   I6    2.139040 S    
C11   C18   1.446322 A    
N1    I1    2.090165 S    
C20   C22   1.460746 S    
C6    C16   1.406090 A    
Cu2   N1    2.009082 S    
H1    C17   1.083549 S    
C8    I5    2.128240 S    
C19   C20   1.351374 D    
Cu1   O5    1.933531 S    
O5    C3    1.288966 A    
C25   O9    1.224001 D    
O10   H10   1.013295 S    
C1    C19   1.475122 S    
Cu1   N2    2.009233 S    
C13   C14   1.392568 A    
C9    C10   1.403926 A    
C7    C18   1.420876 A    
C23   C24   1.507101 S    
Cu2   O6    1.936377 S    
O2    Cu2   1.933529 S    
N2    C24   1.295187 D    
C12   C16   1.409700 A    
O1    C1    1.293050 A    
O6    C3    1.290895 A    
