data_mof_unit_31027.cif
_audit_creation_date              2012-12-11T15:00:51-0500
_audit_creation_method            fapswitch 2.2
_symmetry_space_group_name_H-M    P1
_symmetry_Int_Tables_number       1
_space_group_crystal_system       triclinic
_cell_length_a                    13.359471
_cell_length_b                    13.348079
_cell_length_c                    26.708191
_cell_angle_alpha                 96.699634
_cell_angle_beta                  97.122158
_cell_angle_gamma                 61.776548
_cell_volume                      4154.89363415

loop_
_atom_site_label
_atom_site_type_symbol
_atom_type_description
_atom_site_fract_x
_atom_site_fract_y
_atom_site_fract_z
_atom_type_partial_charge
C1    C     C_R   0.379846 0.723359 0.435304 0.538825
C2    C     C_3   0.684347 0.319090 0.187897 -0.091298
C3    C     C_3   0.804549 0.315574 0.189226 0.022377
C4    C     C_R   0.393966 0.372683 0.418166 0.531829
C5    C     C_3   0.788727 0.433505 0.213653 -0.277097
C6    C     C_3   0.769933 0.443815 0.269787 -0.286256
C7    C     C_1   0.840664 0.304235 0.137926 -0.006917
C8    C     C_1   0.704823 0.383289 0.334552 0.035529
C9    C     C_1   0.684943 0.408956 0.378121 0.052589
C10   C     C_3   0.493724 0.758378 0.276820 -0.074095
C11   C     C_3   0.328552 0.954356 0.286923 -0.199322
C12   C     C_1   0.304600 0.329242 0.271236 -0.019872
C13   C     C_3   0.311463 0.967499 0.228784 -0.073688
C14   C     C_1   0.312582 0.888005 0.100902 0.007576
C15   C     C_3   0.371998 0.828255 0.296974 0.059906
C16   C     C_R   0.665158 0.431382 0.430297 0.560539
C17   C     C_3   0.486295 0.772688 0.218559 -0.197403
C18   C     C_3   0.360848 0.848655 0.198584 0.068046
C19   C     C_3   0.291681 0.789322 0.209091 -0.234127
C20   C     C_3   0.291366 0.785103 0.266296 -0.231831
C21   C     C_1   0.342716 0.862777 0.143943 -0.053519
C22   C     C_1   0.367942 0.809881 0.349896 -0.061954
C23   C     C_1   0.326606 0.338546 0.324009 -0.025882
C24   C     C_1   0.366312 0.778678 0.390247 -0.016451
C25   C     C_3   0.448077 0.342719 0.730231 0.244422
C26   C     C_3   0.335206 0.229991 0.704970 -0.215485
C27   C     C_3   0.338009 0.217564 0.762195 -0.092542
C28   C     C_R   0.382119 0.723858 0.575485 0.547978
C29   C     C_1   0.295515 0.308211 0.887893 0.042717
C30   C     C_3   0.338112 0.342681 0.697369 0.015048
C31   C     C_3   0.423038 0.354820 0.788393 0.183838
C32   C     C_3   0.319199 0.331740 0.793559 0.014930
C33   C     C_3   0.210902 0.434322 0.771893 -0.250934
C34   C     C_1   0.353842 0.350859 0.368010 0.016151
C35   C     C_3   0.219624 0.441378 0.715045 -0.119701
C36   C     C_1   0.305730 0.324862 0.846301 0.023043
C37   C     C_1   0.344696 0.347933 0.643511 -0.027054
C38   C     C_1   0.361473 0.357163 0.601762 0.023379
C39   C     C_1   0.894965 0.292358 0.863647 0.036733
C40   C     C_R   0.395366 0.375223 0.556929 0.544524
C41   C     C_1   0.872053 0.304024 0.819019 0.001734
C42   C     C_1   0.853221 0.318272 0.766698 0.020309
C43   C     C_1   0.836447 0.331867 0.722105 0.025152
C44   C     C_1   0.809813 0.350749 0.670275 -0.017016
C45   C     C_3   0.638128 0.358162 0.242780 -0.097690
C46   C     C_1   0.777594 0.371509 0.626835 0.007789
C47   C     C_1   0.293049 0.892748 0.863173 -0.001417
C48   C     C_1   0.313379 0.864048 0.819635 -0.045264
C49   C     C_1   0.331865 0.839712 0.767835 -0.018850
C50   C     C_1   0.344483 0.821750 0.723257 -0.019398
C51   C     C_1   0.357112 0.798508 0.670944 -0.046686
C52   C     C_R   0.724876 0.403708 0.577322 0.558835
C53   C     C_1   0.367807 0.771125 0.626595 -0.004291
C54   C     C_R   0.940845 0.277779 0.055329 0.548682
C55   C     C_R   0.286325 0.269134 0.073952 0.539517
C56   C     C_3   0.844901 0.225869 0.277391 0.407521
C57   C     C_R   0.271227 0.937543 0.053320 0.550290
C58   C     C_R   0.937953 0.278580 0.915471 0.549794
C59   C     C_R   0.281291 0.273652 0.933378 0.544308
C60   C     C_R   0.262194 0.941229 0.913086 0.542058
C61   C     C_1   0.295963 0.295157 0.127212 -0.014186
C62   C     C_1   0.295608 0.310664 0.172485 -0.071977
C63   C     C_1   0.295950 0.322482 0.225707 -0.044573
C64   C     C_3   0.530293 0.475267 0.246760 -0.313263
C65   C     C_3   0.420068 0.467721 0.233530 -0.455361
C66   C     C_3   0.599733 0.382337 0.142091 -0.305160
C67   C     C_3   0.899247 0.215917 0.223440 0.215973
C68   C     C_3   0.602695 0.300974 0.096075 -0.439724
C69   C     C_3   0.591254 0.779454 0.305999 -0.297517
C70   C     C_3   0.627636 0.733675 0.358743 -0.410510
C71   C     C_3   0.343727 0.056436 0.213642 -0.292951
C72   C     C_3   0.469579 0.021538 0.211108 -0.408116
C73   C     C_3   0.268663 0.157347 0.773363 -0.293511
C74   C     C_3   0.139164 0.227149 0.767959 -0.427241
C75   C     C_3   0.174596 0.564594 0.697188 -0.288146
C76   C     C_3   0.178040 0.656392 0.736772 -0.429939
C77   C     C_3   0.465842 0.444336 0.715436 -0.256710
C78   C     C_1   0.879996 0.295121 0.098484 0.004093
C79   C     C_3   0.532774 0.489673 0.753745 -0.395801
C80   C     C_3   0.010508 0.232568 0.234649 -0.217090
C81   C     C_3   0.066070 0.251118 0.191942 -0.437099
C82   C     C_3   0.738936 0.351544 0.282350 -0.000150
Cr1   Cr    Cr6+3 0.585490 0.589720 0.509170 1.030352
Cr2   Cr    Cr6+3 0.329280 0.580760 0.494920 1.040338
Cr3   Cr    Cr6+3 0.585250 0.329540 0.495950 1.100383
Cr4   Cr    Cr6+3 0.077160 0.074530 0.981700 1.068065
Cr5   Cr    Cr6+3 0.079310 0.333830 0.996170 1.037137
Cr6   Cr    Cr6+3 0.334250 0.081620 0.994710 1.039459
H1    H     H_    0.698599 0.231157 0.180867 0.230329
H2    H     H_    0.329207 0.702219 0.190452 0.109585
H3    H     H_    0.519321 0.669465 0.281261 0.121464
H4    H     H_    0.519297 0.688583 0.197161 0.079534
H5    H     H_    0.202634 0.833800 0.192139 0.204745
H6    H     H_    0.258007 0.229401 0.684219 0.114809
H7    H     H_    0.406882 0.153887 0.688106 0.193544
H8    H     H_    0.425679 0.154220 0.773551 0.244279
H9    H     H_    0.154920 0.417377 0.694915 0.133903
H10   H     H_    0.200445 0.512193 0.795296 0.127259
H11   H     H_    0.392217 0.445804 0.801191 0.087624
H12   H     H_    0.860927 0.450216 0.209877 0.128118
H13   H     H_    0.132317 0.429156 0.776414 0.126222
H14   H     H_    0.701021 0.530441 0.278664 0.119366
H15   H     H_    0.844649 0.440809 0.293928 0.175408
H16   H     H_    0.714378 0.503616 0.194350 0.128884
H17   H     H_    0.437779 0.386975 0.211295 0.175475
H18   H     H_    0.381290 0.473581 0.268770 0.165187
H19   H     H_    0.357616 0.537511 0.210398 0.139136
H20   H     H_    0.525016 0.512035 0.286223 0.137146
H21   H     H_    0.534137 0.533434 0.222000 0.153904
H22   H     H_    0.689402 0.251584 0.082849 0.161335
H23   H     H_    0.543517 0.805764 0.210311 0.125942
H24   H     H_    0.573628 0.240639 0.105724 0.168370
H25   H     H_    0.544390 0.350577 0.064555 0.162589
H26   H     H_    0.510118 0.427010 0.150804 0.165895
H27   H     H_    0.617662 0.448916 0.130325 0.153550
H28   H     H_    0.569117 0.794609 0.386620 0.171520
H29   H     H_    0.630383 0.649291 0.358882 0.145285
H30   H     H_    0.714098 0.723918 0.371096 0.164008
H31   H     H_    0.667597 0.734550 0.283869 0.145026
H32   H     H_    0.570129 0.870416 0.309526 0.159813
H33   H     H_    0.520321 0.982743 0.245957 0.144545
H34   H     H_    0.247381 0.008644 0.303943 0.163167
H35   H     H_    0.502702 0.964038 0.177004 0.159672
H36   H     H_    0.479465 0.098237 0.207387 0.166419
H37   H     H_    0.299875 0.086729 0.176184 0.153665
H38   H     H_    0.309886 0.128936 0.242061 0.156257
H39   H     H_    0.616968 0.130224 0.874800 0.370894
H40   H     H_    0.675538 0.035782 0.732206 0.374315
H41   H     H_    0.097777 0.050843 0.360165 0.367045
H42   H     H_    0.108807 0.288412 0.801263 0.145413
H43   H     H_    0.108998 0.272325 0.732552 0.149780
H44   H     H_    0.101119 0.168762 0.766954 0.154969
H45   H     H_    0.387745 0.986170 0.305722 0.130149
H46   H     H_    0.293030 0.079527 0.747301 0.158446
H47   H     H_    0.294458 0.126950 0.812203 0.164046
H48   H     H_    0.107199 0.686523 0.761680 0.157327
H49   H     H_    0.259701 0.625526 0.760524 0.147039
H50   H     H_    0.166022 0.730853 0.717301 0.160849
H51   H     H_    0.217538 0.562714 0.663891 0.154727
H52   H     H_    0.083548 0.596893 0.682807 0.152929
H53   H     H_    0.485269 0.535228 0.787351 0.147515
H54   H     H_    0.617203 0.421646 0.765692 0.239117
H55   H     H_    0.546789 0.552288 0.735584 0.130599
H56   H     H_    0.217998 0.006365 0.219231 0.174821
H57   H     H_    0.509276 0.418841 0.679717 0.183788
H58   H     H_    0.384938 0.518354 0.705711 0.120272
H59   H     H_    0.696267 0.039973 0.245014 0.363652
H60   H     H_    0.826772 0.070367 0.127743 0.338553
H61   H     H_    0.098063 0.179806 0.163062 0.201285
H62   H     H_    0.013079 0.331919 0.173781 0.148454
H63   H     H_    0.140179 0.260201 0.209540 0.127316
H64   H     H_    0.994648 0.306958 0.261014 0.164644
H65   H     H_    0.078112 0.158874 0.254059 0.208191
H66   H     H_    0.317071 0.696248 0.274860 0.121095
H67   H     H_    0.610605 0.297779 0.253189 0.212678
H68   H     H_    0.202951 0.838185 0.277775 0.206698
O1    O     O_R   0.700490 0.499650 0.456540 -0.497837
O2    O     O_R   0.362200 0.173970 0.055450 -0.507934
O3    O     O_R   0.326660 0.983110 0.039170 -0.503111
O4    O     O_R   0.479270 0.682700 0.457880 -0.524623
O5    O     O_R   0.165170 0.960730 0.925500 -0.504425
O6    O     O_R   0.978790 0.179600 0.932440 -0.488792
O7    O     O_R   0.960680 0.356080 0.937360 -0.511060
O8    O     O_R   0.182750 0.328100 0.950670 -0.505678
O9    O     O_R   0.356720 0.175530 0.946790 -0.491270
O10   O     O_R   0.321590 0.984560 0.938450 -0.494002
O11   O     O_3   0.163570 0.163330 0.990860 -0.270080
O12   O     O_R   0.339040 0.474950 0.540330 -0.506972
O13   O     O_R   0.304400 0.696100 0.445190 -0.486953
O14   O     O_R   0.337880 0.472540 0.439600 -0.497246
O15   O     O_R   0.493250 0.300300 0.435260 -0.496234
O16   O     O_R   0.681040 0.341130 0.451400 -0.441186
O17   O     O_R   0.701750 0.502250 0.565200 -0.504102
O18   O     O_R   0.480430 0.685110 0.558610 -0.491400
O19   O     O_R   0.305650 0.698700 0.553850 -0.499718
O20   O     O_2   0.652310 0.274629 0.820788 -0.233657
O21   O     O_2   0.514706 0.355886 0.884204 -0.318410
O22   O     O_3   0.562287 0.154080 0.844563 -0.498541
O23   O     O_R   0.494500 0.302900 0.543920 -0.471698
O24   O     O_2   0.570344 0.178581 0.657404 -0.301654
O25   O     O_2   0.681660 0.230129 0.723203 -0.254672
O26   O     O_3   0.603665 0.098601 0.744265 -0.493742
O27   O     O_2   0.987634 0.289197 0.345611 -0.351600
O28   O     O_2   0.895989 0.196061 0.379932 -0.212201
O29   O     O_3   0.061300 0.071858 0.325734 -0.524627
O30   O     O_2   0.894521 0.005561 0.295672 -0.150231
O31   O     O_2   0.722873 0.158629 0.328233 -0.286191
O32   O     O_3   0.715850 0.096920 0.234507 -0.551427
O33   O     O_2   0.018871 0.059617 0.147026 -0.343414
O34   O     O_R   0.682200 0.343540 0.552130 -0.472631
O35   O     O_2   0.021419 0.984084 0.225030 -0.223954
O36   O     O_3   0.842537 0.045183 0.162594 -0.458582
O37   O     O_3   0.500010 0.500010 0.500010 -0.303236
O38   O     O_R   0.170650 0.959160 0.034150 -0.477463
O39   O     O_R   0.983870 0.178140 0.033160 -0.473578
O40   O     O_R   0.966160 0.354510 0.046020 -0.510082
O41   O     O_R   0.187830 0.326650 0.051390 -0.489570
S1    S     S_3+6 0.542799 0.284692 0.835048 0.027783
S2    S     S_3+6 0.578795 0.211171 0.712962 0.021458
S3    S     S_3+6 0.948103 0.200127 0.333900 0.026575
S4    S     S_3+6 0.795247 0.119060 0.284031 0.087886
S5    S     S_3+6 0.947622 0.073965 0.189175 0.023798

loop_
_geom_bond_atom_site_label_1
_geom_bond_atom_site_label_2
_ccdc_geom_bond_type
C25   C31   S    
Cr5   O7    S    
H60   O36   S    
C6    C82   S    
C4    O15   A    
C74   H44   S    
C72   H33   S    
C18   C21   S    
C41   C42   S    
C66   C68   S    
C19   C20   S    
C43   C44   S    
C28   O18   A    
C76   H48   S    
C80   H65   S    
C39   C41   T    
C56   C67   S    
C55   O41   A    
C76   H49   S    
C29   C36   T    
C35   C75   S    
C26   C27   S    
C62   C63   S    
C20   H66   S    
C13   C18   S    
C25   C77   S    
C32   C36   S    
C14   C21   T    
C15   C22   S    
C9    C16   S    
C60   O5    A    
Cr5   O40   S    
C33   H10   S    
C3    C7    S    
C10   C15   S    
C11   H45   S    
C5    C6    S    
C13   H56   S    
C79   H54   S    
C70   H29   S    
C81   H62   S    
C46   C52   S    
O32   S4    S    
C25   C30   S    
C18   C19   S    
C68   H24   S    
Cr6   O3    S    
C49   C50   T    
C59   O8    A    
C47   C60   S    
C11   C15   S    
C31   H11   S    
C55   O2    A    
C79   H55   S    
Cr1   O4    S    
C29   C59   S    
C8    C9    T    
O28   S3    D    
Cr1   O1    S    
C71   H38   S    
Cr4   O6    S    
O35   S5    D    
Cr6   O2    S    
Cr2   O19   S    
C20   H68   S    
C27   C73   S    
C59   O9    A    
C68   H25   S    
C3    C5    S    
C25   S2    S    
C23   C34   T    
Cr5   O8    S    
C57   O3    A    
C5    H16   S    
C74   H43   S    
C72   H36   S    
C27   H8    S    
C61   C62   T    
C17   H4    S    
C58   O7    A    
C17   H23   S    
C65   H17   S    
C44   C46   T    
C75   H52   S    
C64   H20   S    
C77   C79   S    
C2    C45   S    
C15   C20   S    
C4    C34   S    
Cr3   O16   S    
C54   O40   A    
C66   H27   S    
C67   C80   S    
C47   C48   T    
C73   H47   S    
H40   O26   S    
Cr2   O13   S    
C12   C63   T    
C68   H22   S    
C56   S4    S    
C13   C71   S    
C70   H28   S    
Cr3   O34   S    
C81   H63   S    
C39   C58   S    
C69   H31   S    
C45   C82   S    
C60   O10   A    
O30   S4    D    
C51   C53   T    
Cr1   O37   S    
C2    H1    S    
C75   C76   S    
C37   C38   T    
Cr2   O12   S    
Cr4   O39   S    
C40   O23   A    
C16   O16   A    
C31   C32   S    
C12   C23   S    
C5    H12   S    
Cr2   O37   S    
Cr3   O23   S    
Cr6   O11   S    
C17   C18   S    
C50   C51   S    
Cr4   O5    S    
C52   O34   A    
C6    H15   S    
C4    O14   A    
C7    C78   T    
C45   H67   S    
C30   C35   S    
C48   C49   S    
C10   H3    S    
C26   C30   S    
Cr6   O10   S    
C26   H6    S    
Cr1   O17   S    
C72   H35   S    
O33   S5    D    
C33   H13   S    
C11   H34   S    
C42   C43   T    
Cr5   O41   S    
C58   O6    A    
C73   C74   S    
C77   H57   S    
C65   H18   S    
C52   O17   A    
C26   H7    S    
C80   H64   S    
C14   C57   S    
C54   O39   A    
C66   H26   S    
C16   O1    A    
H39   O22   S    
C1    O4    A    
C3    C67   S    
O26   S2    S    
O20   S1    D    
C80   C81   S    
C2    C66   S    
C19   H5    S    
C67   S5    S    
C28   C53   S    
C28   O19   A    
C56   C82   S    
C76   H50   S    
H59   O32   S    
Cr5   O11   S    
O31   S4    D    
C45   C64   S    
Cr2   O14   S    
O27   S3    D    
C57   O38   A    
O21   S1    D    
C64   C65   S    
Cr4   O11   S    
C74   H42   S    
C2    C3    S    
C71   C72   S    
O24   S2    D    
C75   H51   S    
C32   C33   S    
C38   C40   S    
C11   C13   S    
Cr3   O37   S    
C64   H21   S    
C79   H53   S    
C69   H32   S    
C70   H30   S    
C81   H61   S    
C55   C61   S    
C1    O13   A    
C33   C35   S    
C22   C24   T    
C6    H14   S    
O29   S3    S    
O22   S1    S    
C69   C70   S    
C40   O12   A    
C27   C32   S    
Cr3   O15   S    
C10   C69   S    
H41   O29   S    
C8    C82   S    
C73   H46   S    
C30   C37   S    
C1    C24   S    
Cr6   O9    S    
Cr1   O18   S    
C19   H2    S    
O36   S5    S    
C71   H37   S    
C10   C17   S    
C56   S3    S    
C35   H9    S    
C77   H58   S    
C65   H19   S    
C31   S1    S    
Cr4   O38   S    
C54   C78   S    
O25   S2    D    
