data_mof_unit_44624.cif
_audit_creation_date              2012-12-10T17:23:08-0500
_audit_creation_method            fapswitch 2.2
_symmetry_space_group_name_H-M    P1
_symmetry_Int_Tables_number       1
_space_group_crystal_system       triclinic
_cell_length_a                    15.863229
_cell_length_b                    10.769699
_cell_length_c                    9.613796
_cell_angle_alpha                 90.103174
_cell_angle_beta                  90.169519
_cell_angle_gamma                 92.52205
_cell_volume                      1640.84089316

loop_
_atom_site_label
_atom_site_type_symbol
_atom_type_description
_atom_site_fract_x
_atom_site_fract_y
_atom_site_fract_z
_atom_type_partial_charge
C1    C     C_R   0.497562 0.262639 0.499884 0.785196
C2    C     C_3   0.083309 0.503090 0.501022 0.106059
C3    C     C_3   0.974021 0.540260 0.625824 0.177723
C4    C     C_3   0.916980 0.503966 0.501707 0.130328
C5    C     C_3   0.032025 0.618162 0.528283 0.204441
C6    C     C_3   0.974625 0.581566 0.404107 0.180614
C7    C     C_1   0.174907 0.501651 0.500260 -0.040759
C8    C     C_1   0.825243 0.503147 0.501385 -0.040672
C9    C     C_R   0.358884 0.120920 0.633150 -0.188899
C10   C     C_R   0.293406 0.052113 0.698591 0.245208
C11   C     C_R   0.294346 0.922545 0.699503 -0.142528
C12   C     C_R   0.340018 0.499634 0.499845 0.801295
C13   C     C_R   0.359609 0.861816 0.635248 -0.223936
C14   C     C_R   0.426513 0.929830 0.569698 0.097333
C15   C     C_R   0.426248 0.061037 0.569004 0.049119
C16   C     C_R   0.492036 0.128469 0.499503 -0.084254
C17   C     C_R   0.554077 0.067459 0.426982 -0.190825
C18   C     C_R   0.554201 0.939361 0.427295 -0.211007
C19   C     C_R   0.492335 0.870583 0.500264 -0.070571
C20   C     C_R   0.612093 0.665185 0.144479 -0.190937
C21   C     C_R   0.667004 0.745943 0.073085 -0.211068
C22   C     C_R   0.667327 0.746548 0.929091 0.189009
C23   C     C_R   0.497771 0.737103 0.500109 0.762633
C24   C     C_R   0.612035 0.665278 0.857044 -0.149293
C25   C     C_R   0.555027 0.581308 0.925734 0.164355
C26   C     C_R   0.555026 0.581251 0.075092 0.213589
C27   C     C_R   0.447669 0.422628 0.073406 -0.052271
C28   C     C_R   0.447685 0.422653 0.925617 -0.047560
C29   C     C_R   0.659992 0.500700 0.500235 0.805271
C30   C     C_3   0.968318 0.388161 0.474295 -0.226552
C31   C     C_3   0.026861 0.466420 0.375356 -0.191336
C32   C     C_1   0.250393 0.500575 0.499782 -0.182420
C33   C     C_1   0.749689 0.502083 0.500838 -0.177626
C34   C     C_3   0.026271 0.424576 0.599914 -0.195418
Cu1   Cu    Cu3+1 0.499990 0.499990 0.640660 0.930693
Cu2   Cu    Cu3+1 0.500010 0.500010 0.359340 0.939695
H1    H     H_    0.243743 0.868190 0.748782 0.141595
H2    H     H_    0.355984 0.761403 0.635470 0.162837
H3    H     H_    0.603893 0.893600 0.372720 0.133595
H4    H     H_    0.404746 0.359121 0.128081 0.138135
H5    H     H_    0.617439 0.672923 0.254117 0.200982
H6    H     H_    0.616615 0.671905 0.747357 0.205329
H7    H     H_    0.048578 0.360204 0.680824 0.147209
H8    H     H_    0.603704 0.119528 0.372280 0.148629
N1    N     N_R   0.500800 0.501210 0.147910 -0.192586
N2    N     N_R   0.500830 0.501290 0.852040 -0.192536
O1    O     O_R   0.499990 0.319640 0.618810 -0.576530
O2    O     O_R   0.500000 0.319660 0.381240 -0.574547
O3    O     O_R   0.379070 0.499980 0.618770 -0.587259
O4    O     O_R   0.379080 0.500000 0.381190 -0.568173
O5    O     O_R   0.500000 0.680340 0.618760 -0.601849
O6    O     O_R   0.500010 0.680360 0.381190 -0.588701
O7    O     O_R   0.620920 0.500000 0.618810 -0.587853
O8    O     O_R   0.620930 0.500020 0.381230 -0.590221
H9    H     H_    0.049577 0.436432 0.272011 0.146752
H10   H     H_    0.709485 0.808366 0.131186 0.146034
C35   C     C_3   0.726386 0.833569 0.850372 -0.881425
H11   H     H_    0.766848 0.891751 0.921606 0.235065
H12   H     H_    0.767841 0.779217 0.782742 0.227097
H13   H     H_    0.689391 0.895971 0.784301 0.237262
H14   H     H_    0.404775 0.359142 0.870201 0.136170
H15   H     H_    0.941053 0.293482 0.452087 0.151270
C36   C     C_3   0.944601 0.669888 0.292995 -0.882718
H16   H     H_    0.999845 0.713185 0.238125 0.237916
H17   H     H_    0.903807 0.617804 0.216939 0.240816
H18   H     H_    0.908047 0.743650 0.342176 0.232663
C37   C     C_3   0.069114 0.748070 0.559083 -0.881432
H19   H     H_    0.017376 0.812882 0.573697 0.236124
H20   H     H_    0.107855 0.746271 0.655281 0.231096
H21   H     H_    0.109409 0.780539 0.471063 0.239691
C38   C     C_3   0.943434 0.581758 0.767578 -0.874833
H22   H     H_    0.998345 0.600717 0.837400 0.236036
H23   H     H_    0.907922 0.667635 0.756040 0.234795
H24   H     H_    0.901558 0.507562 0.813554 0.239719
H25   H     H_    0.355566 0.220961 0.630496 0.137574
C39   C     C_3   0.221693 0.115826 0.765827 -0.909462
H26   H     H_    0.229133 0.218539 0.756456 0.228836
H27   H     H_    0.161316 0.084845 0.715287 0.236528
H28   H     H_    0.218907 0.091640 0.877989 0.235740

loop_
_geom_bond_atom_site_label_1
_geom_bond_atom_site_label_2
_ccdc_geom_bond_type
C36   H17   S    
Cu1   O7    S    
C24   H6    S    
C3    C38   S    
Cu1   Cu2   S    
C39   H28   S    
C5    C37   S    
Cu1   O1    S    
C22   C35   S    
C12   O3    A    
C35   H11   S    
C28   N2    A    
C29   O7    A    
C39   H27   S    
C30   C31   S    
C35   H12   S    
C29   O8    A    
C15   C16   A    
C29   C33   S    
C18   C19   A    
C11   H1    S    
C26   N1    A    
C10   C39   S    
C2    C7    S    
C16   C17   A    
Cu1   O3    S    
C9    C10   A    
Cu2   O6    S    
C4    C8    S    
C28   H14   S    
C2    C34   S    
C6    C31   S    
C36   H18   S    
C13   C14   A    
C12   C32   S    
C20   H5    S    
C30   C34   S    
C37   H19   S    
C39   H26   S    
C4    C6    S    
C38   H23   S    
C1    O1    A    
C35   H13   S    
C3    C34   S    
C25   C26   A    
C2    C31   S    
C37   H20   S    
C6    C36   S    
C19   C23   S    
C18   H3    S    
C38   H24   S    
C23   O5    A    
C27   H4    S    
C17   C18   A    
Cu2   N1    S    
C1    C16   S    
C24   C25   A    
C13   H2    S    
C30   H15   S    
Cu1   O5    S    
C22   C24   A    
C2    C5    S    
C3    C4    S    
Cu2   O4    S    
C7    C32   T    
C14   C19   A    
C34   H7    S    
C3    C5    S    
C21   H10   S    
C12   O4    A    
C1    O2    A    
C37   H21   S    
C9    C15   A    
C17   H8    S    
C38   H22   S    
C11   C13   A    
C27   N1    A    
C23   O6    A    
C5    C6    S    
C20   C26   A    
Cu2   O2    S    
C8    C33   T    
Cu2   O8    S    
C10   C11   A    
C36   H16   S    
C20   C21   A    
C27   C28   A    
C14   C15   A    
C9    H25   S    
C31   H9    S    
C21   C22   A    
Cu1   N2    S    
C25   N2    A    
C4    C30   S    
