data_mof_unit_15633.cif
_audit_creation_date              2012-12-10T18:33:44-0500
_audit_creation_method            fapswitch 2.2
_symmetry_space_group_name_H-M    P1
_symmetry_Int_Tables_number       1
_space_group_crystal_system       triclinic
_cell_length_a                    10.501742
_cell_length_b                    15.027585
_cell_length_c                    15.418611
_cell_angle_alpha                 82.078752
_cell_angle_beta                  89.989292
_cell_angle_gamma                 104.6553
_cell_volume                      2330.11154416

loop_
_atom_site_label
_atom_site_type_symbol
_atom_type_description
_atom_site_fract_x
_atom_site_fract_y
_atom_site_fract_z
_atom_type_partial_charge
C1    C     C_R   0.477635 0.441692 0.662227 0.849995
C2    C     C_R   0.405882 0.478234 0.047470 0.006298
C3    C     C_R   0.377443 0.382346 0.079991 -0.358312
C4    C     C_R   0.396705 0.598280 0.926684 -0.350919
C5    C     C_R   0.367020 0.315581 0.023794 0.443577
C6    C     C_R   0.417723 0.666005 0.982851 0.449498
C7    C     C_R   0.692655 0.842002 0.639520 -0.433325
C8    C     C_R   0.315290 0.159383 0.356367 -0.451383
C9    C     C_R   0.663163 0.752682 0.615650 0.651683
C10   C     C_R   0.344802 0.248945 0.379608 0.626800
C11   C     C_R   0.510482 0.792810 0.512864 -0.172891
C12   C     C_R   0.515611 0.558100 0.337686 0.854276
C13   C     C_R   0.477688 0.204094 0.494391 -0.169928
C14   C     C_R   0.536475 0.883880 0.534192 0.004889
C15   C     C_R   0.451597 0.112780 0.473506 0.000334
C16   C     C_R   0.742539 0.500901 0.500658 0.854806
C17   C     C_R   0.257246 0.498728 0.500497 0.847121
C18   C     C_R   0.628387 0.906976 0.599910 0.117288
C19   C     C_R   0.366968 0.091364 0.403609 0.130319
C20   C     C_R   0.476759 0.952594 0.491872 0.099564
C21   C     C_R   0.508357 0.043252 0.517703 0.096943
C22   C     C_R   0.597970 0.061956 0.585255 -0.237790
C23   C     C_R   0.433590 0.468765 0.810779 -0.255721
C24   C     C_R   0.389027 0.934287 0.423261 -0.239987
C25   C     C_R   0.657289 0.995170 0.624894 -0.190465
C26   C     C_R   0.336056 0.002628 0.379903 -0.187083
C27   C     C_3   0.932611 0.434439 0.565054 -0.176284
C28   C     C_3   0.066792 0.565055 0.437945 -0.196672
C29   C     C_3   0.049062 0.516580 0.579723 -0.167938
C30   C     C_3   0.950542 0.482885 0.423282 -0.184079
C31   C     C_3   0.121258 0.497225 0.501083 0.023139
C32   C     C_3   0.878280 0.502182 0.501768 0.031964
C33   C     C_3   0.007476 0.415047 0.486543 -0.138922
C34   C     C_R   0.478201 0.526111 0.187760 -0.206103
C35   C     C_3   0.991916 0.584406 0.516525 -0.119221
C36   C     C_R   0.445256 0.405914 0.754711 -0.056294
C37   C     C_R   0.502672 0.591565 0.245314 -0.061374
C38   C     C_R   0.389707 0.280527 0.875693 -0.168727
C39   C     C_R   0.470468 0.708260 0.128644 -0.165674
C40   C     C_R   0.420133 0.311117 0.786828 -0.223114
C41   C     C_R   0.498581 0.683171 0.215758 -0.231361
C42   C     C_3   0.171190 0.297746 0.313077 0.066358
C43   C     C_3   0.130979 0.385847 0.277394 -0.804122
C44   C     C_3   0.736071 0.674978 0.739744 0.086778
C45   C     C_R   0.402300 0.440020 0.899800 0.060317
C46   C     C_3   0.878036 0.705127 0.767274 -0.857862
C47   C     C_3   0.440066 0.200853 0.106249 0.081528
C48   C     C_3   0.415228 0.095933 0.128143 -0.816626
C49   C     C_3   0.513101 0.799001 0.889818 0.086297
C50   C     C_3   0.525484 0.903037 0.874566 -0.807872
C51   C     C_R   0.439134 0.547492 0.102802 0.038403
C52   C     C_R   0.384585 0.344598 0.933295 0.068166
C53   C     C_R   0.441596 0.641125 0.071217 0.065531
C54   C     C_R   0.400680 0.505742 0.956984 0.016211
H1    H     H_    0.093739 0.529929 0.643460 0.136510
H2    H     H_    0.426222 0.261044 0.743767 0.157954
H3    H     H_    0.374583 0.207224 0.899492 0.181164
H4    H     H_    0.470832 0.779958 0.106632 0.181180
H5    H     H_    0.727269 0.013049 0.675368 0.139844
H6    H     H_    0.270650 0.985840 0.326778 0.143823
H7    H     H_    0.111090 0.264631 0.374036 0.131432
H8    H     H_    0.149817 0.250751 0.262321 0.148517
H9    H     H_    0.179593 0.415253 0.212120 0.254060
H10   H     H_    0.022589 0.369819 0.270678 0.200099
H11   H     H_    0.160755 0.438617 0.322199 0.263812
H12   H     H_    0.905824 0.469606 0.359552 0.137791
H13   H     H_    0.699095 0.599545 0.763340 0.174963
H14   H     H_    0.673084 0.710129 0.773625 0.088042
H15   H     H_    0.920349 0.780222 0.744641 0.248307
H16   H     H_    0.881582 0.692216 0.839791 0.219121
H17   H     H_    0.938470 0.664843 0.738501 0.261463
H18   H     H_    0.766258 0.861233 0.687398 0.160095
H19   H     H_    0.256219 0.143118 0.300404 0.154962
H20   H     H_    0.626699 0.128267 0.608418 0.134621
H21   H     H_    0.360403 0.868078 0.399925 0.136001
H22   H     H_    0.446182 0.230165 0.168986 0.154663
H23   H     H_    0.539372 0.227102 0.546785 0.149094
H24   H     H_    0.536151 0.228011 0.068829 0.135380
H25   H     H_    0.413058 0.064395 0.066929 0.253458
H26   H     H_    0.494896 0.078603 0.169194 0.210535
H27   H     H_    0.319484 0.066464 0.164863 0.253299
H28   H     H_    0.490886 0.772320 0.826264 0.141290
H29   H     H_    0.609687 0.788035 0.912346 0.130084
H30   H     H_    0.547305 0.932240 0.936887 0.247812
H31   H     H_    0.606708 0.937754 0.825762 0.202886
H32   H     H_    0.432241 0.916864 0.849382 0.261538
H33   H     H_    0.491913 0.457998 0.209987 0.179431
H34   H     H_    0.440773 0.767731 0.465199 0.152464
H35   H     H_    0.455724 0.541408 0.784532 0.148233
H36   H     H_    0.359204 0.357523 0.149013 0.190360
H37   H     H_    0.372512 0.618788 0.860168 0.154569
H38   H     H_    0.873254 0.381593 0.616915 0.129968
H39   H     H_    0.126061 0.617828 0.385985 0.136259
H40   H     H_    0.017085 0.345773 0.474977 0.143506
H41   H     H_    0.981469 0.653327 0.528883 0.165759
H42   H     H_    0.515974 0.734910 0.259810 0.159903
N1    N     N_R   0.574200 0.731700 0.552740 -0.137505
N2    N     N_R   0.425800 0.268300 0.447260 -0.128766
O1    O     O_R   0.462600 0.383110 0.605620 -0.625171
O2    O     O_3   0.731767 0.687915 0.647125 -0.588194
O3    O     O_3   0.335517 0.221689 0.056604 -0.615884
O4    O     O_3   0.410317 0.755832 0.952742 -0.612714
O5    O     O_R   0.537400 0.616890 0.394380 -0.625118
O6    O     O_R   0.510210 0.531900 0.639510 -0.601318
O7    O     O_R   0.489790 0.468100 0.360490 -0.563206
O8    O     O_R   0.662240 0.425610 0.483080 -0.628547
O9    O     O_R   0.337760 0.574390 0.516920 -0.627384
O10   O     O_R   0.709860 0.574400 0.516970 -0.570659
O11   O     O_R   0.290140 0.425600 0.483030 -0.595718
O12   O     O_3   0.306968 0.321430 0.329681 -0.600469
Zn1   Zn    Zn3+2 0.468210 0.400660 0.477370 0.970028
Zn2   Zn    Zn3+2 0.531790 0.599340 0.522630 0.968344

loop_
_geom_bond_atom_site_label_1
_geom_bond_atom_site_label_2
_ccdc_geom_bond_type
C30   C32   S    
C47   O3    S    
C27   C29   S    
C34   C37   A    
O9    Zn2   S    
C14   C18   A    
C33   H40   S    
C1    O1    A    
C50   H30   S    
C39   C41   A    
C27   C33   S    
C15   C19   A    
C34   C51   A    
C3    H36   S    
C23   C45   A    
C48   H25   S    
C24   C26   A    
C47   H22   S    
C17   O9    A    
C12   O7    A    
C11   C14   A    
C41   H42   S    
C38   C52   A    
C12   C37   S    
C48   H27   S    
C13   N2    A    
C10   N2    A    
C19   C26   A    
C46   H15   S    
C50   H31   S    
C20   C24   A    
C28   C35   S    
C40   H2    S    
C22   C25   A    
C23   H35   S    
C5    C52   A    
C42   H8    S    
C16   O8    A    
C4    H37   S    
O7    Zn1   S    
C21   C22   A    
C18   C25   A    
C44   C46   S    
C43   H10   S    
C13   H23   S    
O8    Zn1   S    
C5    O3    S    
C8    C19   A    
C43   H9    S    
C32   C35   S    
C14   C20   A    
C36   C40   A    
C12   O5    A    
C4    C6    A    
C2    C54   A    
C7    H18   S    
O6    Zn2   S    
N1    Zn2   S    
C16   O10   A    
C29   H1    S    
C45   C52   A    
C39   H4    S    
O10   Zn2   S    
O5    Zn2   S    
C51   C53   A    
C49   H28   S    
C38   H3    S    
C47   C48   S    
C1    O6    A    
C11   H34   S    
C43   H11   S    
C7    C18   A    
O1    Zn1   S    
C31   C33   S    
C27   H38   S    
C42   H7    S    
C46   H17   S    
C30   H12   S    
C45   C54   A    
C23   C36   A    
C9    O2    S    
C13   C15   A    
C17   C31   S    
C44   H14   S    
C42   C43   S    
C22   H20   S    
C6    C53   A    
C49   O4    S    
C7    C9    A    
C9    N1    A    
N2    Zn1   S    
C30   C33   S    
C4    C54   A    
C27   C32   S    
C28   C31   S    
C3    C5    A    
C17   O11   A    
C24   H21   S    
C35   H41   S    
C16   C32   S    
C29   C35   S    
C11   N1    A    
C49   H29   S    
C28   C30   S    
C2    C3    A    
C42   O12   S    
C29   C31   S    
C38   C40   A    
C44   O2    S    
C48   H26   S    
C39   C53   A    
O11   Zn1   S    
C8    H19   S    
C10   O12   S    
C34   H33   S    
C6    O4    S    
C37   C41   A    
C46   H16   S    
C2    C51   A    
C50   H32   S    
C15   C21   A    
C20   C21   A    
C8    C10   A    
C49   C50   S    
C28   H39   S    
C44   H13   S    
C25   H5    S    
C47   H24   S    
C26   H6    S    
C1    C36   S    
