data_mof_unit_51068.cif
_audit_creation_date              2012-12-10T16:59:14-0500
_audit_creation_method            fapswitch 2.2
_symmetry_space_group_name_H-M    P1
_symmetry_Int_Tables_number       1
_space_group_crystal_system       triclinic
_cell_length_a                    7.718861
_cell_length_b                    8.61524
_cell_length_c                    27.391002
_cell_angle_alpha                 90.515608
_cell_angle_beta                  86.491852
_cell_angle_gamma                 93.673971
_cell_volume                      1814.3239151

loop_
_atom_site_label
_atom_site_type_symbol
_atom_type_description
_atom_site_fract_x
_atom_site_fract_y
_atom_site_fract_z
_atom_type_partial_charge
C1    C     C_R   0.546345 0.794061 0.501275 0.875881
C2    C     C_R   0.718707 0.434902 0.129257 -0.148732
C3    C     C_R   0.513754 0.491050 0.648013 -0.284840
C4    C     C_R   0.485758 0.465123 0.354570 -0.249407
C5    C     C_R   0.734521 0.439102 0.026034 -0.031966
C6    C     C_R   0.509755 0.234520 0.974068 -0.031127
C7    C     C_R   0.498069 0.233630 0.025892 0.095925
C8    C     C_R   0.721657 0.460160 0.975353 0.098851
C9    C     C_R   0.612314 0.335768 0.051634 0.074646
C10   C     C_R   0.611049 0.355668 0.949364 0.072764
C11   C     C_R   0.862255 0.521864 0.052214 -0.328780
C12   C     C_R   0.455270 0.205541 0.503116 0.908317
C13   C     C_R   0.419549 0.121369 0.946093 -0.319107
C14   C     C_R   0.854213 0.522869 0.103260 0.576135
C15   C     C_R   0.417836 0.133110 0.895293 0.557851
C16   C     C_R   0.503588 0.499288 0.594455 0.883447
C17   C     C_R   0.496637 0.498696 0.406129 1.002485
C18   C     C_R   0.807345 0.588587 0.950429 -0.220216
C19   C     C_R   0.370128 0.139853 0.052945 -0.219725
C20   C     C_2   0.574546 0.956518 0.503651 0.189184
C21   C     C_2   0.435495 0.044203 0.512248 0.193000
C22   C     C_R   0.653654 0.533769 0.826066 0.495014
C23   C     C_R   0.597148 0.375826 0.898599 -0.120769
C24   C     C_R   0.441446 0.268337 0.179751 0.544646
C25   C     C_R   0.484311 0.292814 0.821251 0.554412
C26   C     C_R   0.693871 0.443477 0.180442 0.552838
C27   C     C_R   0.377827 0.448054 0.729671 -0.227569
C28   C     C_R   0.493928 0.550997 0.270922 -0.179951
C29   C     C_R   0.362241 0.459138 0.679025 0.427044
C30   C     C_R   0.484842 0.586282 0.320846 0.421698
C31   C     C_R   0.678358 0.506058 0.668426 0.420102
C32   C     C_R   0.494756 0.309928 0.338770 0.410806
C33   C     C_R   0.690755 0.479056 0.718022 -0.214638
C34   C     C_R   0.600223 0.338811 0.103345 -0.127163
C35   C     C_R   0.515044 0.277613 0.288865 -0.187954
C36   C     C_R   0.541730 0.452134 0.748871 0.168793
C37   C     C_R   0.516388 0.397981 0.254944 0.169512
C38   C     C_3   0.887439 0.692083 0.645057 -0.225018
C39   C     C_3   0.335883 0.114264 0.378361 -0.244653
C40   C     C_3   0.643942 0.813955 0.330100 -0.262982
C41   C     C_3   0.113870 0.299183 0.673131 -0.209538
C42   C     C_3   0.960957 0.765839 0.123890 -0.234047
C43   C     C_3   0.423651 0.888970 0.863710 -0.193008
C44   C     C_3   0.837165 0.029211 0.532857 -0.211322
C45   C     C_R   0.679774 0.507946 0.875202 0.001360
C46   C     C_3   0.270800 0.991587 0.582120 -0.361295
C47   C     C_R   0.465617 0.249569 0.129088 0.007418
C48   C     C_R   0.784404 0.613120 0.901389 -0.165849
C49   C     C_R   0.353234 0.149225 0.103606 -0.139056
C50   C     C_R   0.498022 0.266124 0.871493 -0.145231
H1    H     H_    0.848817 0.715698 0.884126 0.194919
H2    H     H_    0.790418 0.770742 0.632466 0.109360
H3    H     H_    0.009441 0.713886 0.622012 0.189113
H4    H     H_    0.295815 0.058836 0.343599 0.197980
H5    H     H_    0.341027 0.020243 0.405543 0.205774
H6    H     H_    0.237008 0.194404 0.392744 0.159878
H7    H     H_    0.013994 0.382094 0.463942 0.199526
H8    H     H_    0.985952 0.618172 0.535910 0.212564
H9    H     H_    0.817852 0.480821 0.732753 0.183386
H10   H     H_    0.534404 0.159742 0.276597 0.176873
H11   H     H_    0.681452 0.831409 0.290583 0.176772
H12   H     H_    0.249085 0.079398 0.122685 0.173434
H13   H     H_    0.743632 0.749528 0.347851 0.172858
H14   H     H_    0.642393 0.930250 0.347587 0.236423
H15   H     H_    0.044466 0.308424 0.709620 0.159843
H16   H     H_    0.203218 0.202615 0.673145 0.129266
H17   H     H_    0.015259 0.268016 0.646288 0.197653
H18   H     H_    0.826476 0.794509 0.136275 0.158834
H19   H     H_    0.993814 0.808373 0.086044 0.125089
H20   H     H_    0.051330 0.829286 0.148203 0.203857
H21   H     H_    0.440226 0.832151 0.899291 0.129502
H22   H     H_    0.552858 0.919940 0.844745 0.195729
H23   H     H_    0.492528 0.643569 0.244473 0.170636
H24   H     H_    0.353874 0.802702 0.840440 0.200454
H25   H     H_    0.868147 0.912291 0.545312 0.154505
H26   H     H_    0.767880 0.092007 0.563164 0.117221
H27   H     H_    0.961514 0.097263 0.523724 0.236133
H28   H     H_    0.310136 0.110393 0.595440 0.156704
H29   H     H_    0.355629 0.905185 0.596526 0.164203
H30   H     H_    0.136049 0.963224 0.597075 0.168564
H31   H     H_    0.262618 0.431994 0.754129 0.173834
H32   H     H_    0.971631 0.585645 0.033680 0.160453
H33   H     H_    0.351349 0.020034 0.962616 0.156535
H34   H     H_    0.885047 0.677263 0.968691 0.143660
H35   H     H_    0.274224 0.064635 0.035852 0.139785
H36   H     H_    0.917861 0.719827 0.683484 0.181533
N1    N     N_R   0.558251 0.426524 0.800013 -0.329174
N2    N     N_R   0.552146 0.367387 0.204013 -0.335355
N3    N     N_2   0.950320 0.457960 0.486880 -0.162558
N4    N     N_2   0.049680 0.542040 0.513120 -0.147636
O1    O     O_R   0.389250 0.738570 0.503220 -0.580539
O2    O     O_2   0.305696 0.191738 0.204408 -0.562981
O3    O     O_2   0.808065 0.528947 0.206704 -0.505339
O4    O     O_2   0.399054 0.186195 0.793629 -0.520481
O5    O     O_3   0.829816 0.534754 0.639455 -0.567492
O6    O     O_3   0.502032 0.192035 0.372339 -0.621645
O7    O     O_3   0.476582 0.738470 0.336862 -0.619359
O8    O     O_3   0.200254 0.443388 0.659513 -0.564131
O9    O     O_3   0.983434 0.605093 0.127476 -0.556014
O10   O     O_3   0.323945 0.020168 0.869919 -0.573543
O11   O     O_3   0.741704 0.017663 0.490482 -0.581828
O12   O     O_R   0.610750 0.261430 0.496780 -0.577223
O13   O     O_3   0.273697 0.984138 0.530600 -0.601810
O14   O     O_R   0.678390 0.711630 0.494810 -0.615253
O15   O     O_R   0.321610 0.288370 0.505190 -0.623235
O16   O     O_R   0.355440 0.513440 0.575450 -0.569375
O17   O     O_R   0.644560 0.486560 0.424550 -0.600119
O18   O     O_R   0.644590 0.486500 0.567040 -0.595895
O19   O     O_R   0.355410 0.513500 0.432960 -0.626146
O20   O     O_2   0.722002 0.666053 0.804477 -0.595395
Zn1   Zn    Zn3+2 0.306940 0.517990 0.505620 0.999106
Zn2   Zn    Zn3+2 0.693060 0.482010 0.494380 1.002378

loop_
_geom_bond_atom_site_label_1
_geom_bond_atom_site_label_2
_ccdc_geom_bond_type
C43   H22   S    
C23   C45   A    
C27   C29   A    
O17   Zn2   S    
C37   N2    S    
O12   Zn2   S    
C42   H20   S    
C15   O10   S    
C14   O9    S    
C47   C49   A    
C5    C9    A    
N3    Zn2   S    
C40   H13   S    
H7    N3    S    
C29   O8    S    
C38   H36   S    
C44   H27   S    
C35   C37   A    
C5    C11   A    
C17   O17   A    
C12   O15   A    
C11   C14   A    
C39   H4    S    
C38   H2    S    
C41   H16   S    
C25   N1    A    
C33   C36   A    
C44   H26   S    
C15   C50   A    
O1    Zn1   S    
C3    C29   A    
C25   C50   A    
C48   H1    S    
C39   H5    S    
C22   O20   S    
C38   O5    S    
C18   H34   S    
C31   C33   A    
C16   O16   A    
C2    C34   A    
C43   H24   S    
O15   Zn1   S    
C25   O4    S    
C33   H9    S    
C42   H18   S    
N4    Zn1   S    
C28   H23   S    
C24   O2    S    
O16   Zn1   S    
C36   N1    S    
C32   C35   A    
C27   H31   S    
C43   O10   S    
C41   H17   S    
C40   O7    S    
C46   H28   S    
C23   C50   A    
C41   H15   S    
C20   O11   S    
C12   C21   S    
C42   H19   S    
C8    C18   A    
C40   H11   S    
O18   Zn2   S    
C17   O19   A    
C35   H10   S    
C44   H25   S    
C12   O12   A    
H8    N4    S    
C19   C49   A    
C39   H6    S    
C30   O7    S    
C2    C26   A    
C22   N1    A    
C3    C31   A    
C24   N2    A    
C1    O14   A    
C4    C32   A    
C4    C17   S    
C8    C10   A    
C32   O6    S    
C7    C19   A    
C13   C15   A    
C9    C34   A    
C10   C23   A    
C11   H32   S    
O14   Zn2   S    
C45   C48   A    
C7    C9    A    
C1    C20   S    
C43   H21   S    
C49   H12   S    
C24   C47   A    
C19   H35   S    
C18   C48   A    
C6    C10   A    
C5    C8    A    
C44   O11   S    
C6    C7    A    
C27   C36   A    
C46   O13   S    
C13   H33   S    
C40   H14   S    
O19   Zn1   S    
C42   O9    S    
C6    C13   A    
C46   H30   S    
C46   H29   S    
C38   H3    S    
C28   C37   A    
C26   O3    S    
C31   O5    S    
C28   C30   A    
C2    C14   A    
C39   O6    S    
C16   O18   A    
C21   O13   S    
C22   C45   A    
C20   C21   D    
C26   N2    A    
C1    O1    A    
C41   O8    S    
C34   C47   A    
N3    N4    D    
C4    C30   A    
C3    C16   S    
