data_mof_unit_15777.cif
_audit_creation_date              2013-03-05T16:00:44-0500
_audit_creation_method            fapswitch 2.2
_symmetry_space_group_name_H-M    P1
_symmetry_Int_Tables_number       1
_space_group_crystal_system       triclinic
_cell_length_a                    21.218548
_cell_length_b                    21.222901
_cell_length_c                    13.991402
_cell_angle_alpha                 90.000231
_cell_angle_beta                  89.996486
_cell_angle_gamma                 90.044689
_cell_volume                      6300.59423756

loop_
_atom_site_label
_atom_site_type_symbol
_atom_site_description
_atom_site_fract_x
_atom_site_fract_y
_atom_site_fract_z
_atom_type_partial_charge
O1    O     O_R   0.066090 0.433930 0.580280 -0.627985
O2    O     O_R   0.933910 0.566070 0.419720 -0.628253
O3    O     O_R   0.933910 0.566070 0.580280 -0.628121
O4    O     O_R   0.066090 0.433930 0.419720 -0.628264
O5    O     O_R   0.933910 0.433930 0.419720 -0.628044
O6    O     O_R   0.066090 0.566070 0.580280 -0.627835
O7    O     O_R   0.066090 0.566070 0.419720 -0.627912
O8    O     O_R   0.933910 0.433930 0.580280 -0.627785
O9    O     O_R   0.566090 0.933930 0.580280 -0.626279
O10   O     O_R   0.433910 0.066070 0.419720 -0.626674
O11   O     O_R   0.433910 0.066070 0.580280 -0.626235
O12   O     O_R   0.566090 0.933930 0.419720 -0.626751
O13   O     O_R   0.433910 0.933930 0.419720 -0.630060
O14   O     O_R   0.566090 0.066070 0.580280 -0.630022
O15   O     O_R   0.566090 0.066070 0.419720 -0.629966
O16   O     O_R   0.433910 0.933930 0.580280 -0.629924
C1    C     C_R   0.087084 0.413535 0.499986 0.897368
C2    C     C_R   0.912896 0.586449 0.499993 0.897502
C3    C     C_R   0.913114 0.413405 0.499986 0.897046
C4    C     C_R   0.086889 0.586591 0.499983 0.897071
C5    C     C_R   0.586576 0.913010 0.499981 0.897325
C6    C     C_R   0.413403 0.086964 0.499982 0.897259
C7    C     C_R   0.413182 0.913341 0.500008 0.897439
C8    C     C_R   0.586819 0.086658 0.500005 0.897524
Zn1   Zn    Zn3+2 1.000000 0.500000 0.607200 0.949277
Zn2   Zn    Zn3+2 0.000000 0.500000 0.392800 0.943502
Zn3   Zn    Zn3+2 0.500000 0.000000 0.607200 0.943283
Zn4   Zn    Zn3+2 0.500000 0.000000 0.392800 0.947941
C9    C     C_R   0.146100 0.668775 0.416887 -0.235824
C10   C     C_R   0.853840 0.331289 0.416844 -0.235917
C11   C     C_R   0.843014 0.658093 0.413301 -0.235702
C12   C     C_R   0.155965 0.340879 0.413415 -0.235733
C13   C     C_R   0.645621 0.169208 0.582954 -0.237453
C14   C     C_R   0.354471 0.830696 0.582899 -0.237369
C15   C     C_R   0.350420 0.165447 0.585534 -0.234817
C16   C     C_R   0.650290 0.835253 0.585815 -0.234749
C17   C     C_R   0.134967 0.634245 0.499965 -0.089654
C18   C     C_R   0.865048 0.365739 0.499975 -0.089658
C19   C     C_R   0.863220 0.632568 0.499902 -0.092809
C20   C     C_R   0.136680 0.367338 0.499856 -0.092647
C21   C     C_R   0.634607 0.134593 0.499926 -0.089313
C22   C     C_R   0.365399 0.865402 0.499931 -0.089280
C23   C     C_R   0.367003 0.136384 0.499709 -0.093003
C24   C     C_R   0.632884 0.863492 0.499731 -0.093188
C25   C     C_R   0.169569 0.645105 0.583146 -0.248708
C26   C     C_R   0.830533 0.354783 0.583218 -0.248643
C27   C     C_R   0.835471 0.650337 0.586289 -0.247888
C28   C     C_R   0.165252 0.350406 0.586003 -0.247798
C29   C     C_R   0.668952 0.145736 0.416582 -0.248232
C30   C     C_R   0.330980 0.854340 0.416641 -0.248266
C31   C     C_R   0.340083 0.155083 0.413188 -0.247686
C32   C     C_R   0.658875 0.843858 0.413024 -0.247793
C33   C     C_R   0.215544 0.691698 0.584872 0.089686
C34   C     C_R   0.784567 0.308180 0.584944 0.089650
C35   C     C_R   0.786952 0.694230 0.587266 0.088135
C36   C     C_R   0.213726 0.306458 0.586891 0.088245
C37   C     C_R   0.714667 0.192568 0.414708 0.089677
C38   C     C_R   0.285272 0.807501 0.414757 0.089704
C39   C     C_R   0.296055 0.203419 0.411216 0.087740
C40   C     C_R   0.702824 0.795447 0.411142 0.087662
C41   C     C_R   0.227164 0.726443 0.500231 0.011582
C42   C     C_R   0.772864 0.273529 0.500244 0.011598
C43   C     C_R   0.767650 0.721254 0.499496 0.012511
C44   C     C_R   0.232125 0.278517 0.499329 0.012455
C45   C     C_R   0.726316 0.227267 0.499379 0.011425
C46   C     C_R   0.273708 0.772710 0.499369 0.011405
C47   C     C_R   0.278344 0.231989 0.498632 0.012815
C48   C     C_R   0.721417 0.767768 0.498790 0.012887
C49   C     C_R   0.192162 0.714847 0.416293 0.101925
C50   C     C_R   0.807783 0.285214 0.416251 0.101939
C51   C     C_R   0.795593 0.702654 0.412474 0.101994
C52   C     C_R   0.203315 0.296243 0.412541 0.101966
C53   C     C_R   0.691449 0.215519 0.583406 0.102680
C54   C     C_R   0.308654 0.784372 0.583342 0.102658
C55   C     C_R   0.306005 0.213075 0.585711 0.101832
C56   C     C_R   0.694654 0.787582 0.586055 0.101783
C57   C     C_R   0.250552 0.703832 0.668642 0.209393
C58   C     C_R   0.749648 0.295951 0.668773 0.209399
C59   C     C_R   0.758377 0.712755 0.673916 0.211643
C60   C     C_R   0.243163 0.288798 0.673288 0.211614
C61   C     C_R   0.749473 0.204896 0.330804 0.210486
C62   C     C_R   0.250389 0.795257 0.330904 0.210488
C63   C     C_R   0.268391 0.222845 0.324361 0.208923
C64   C     C_R   0.729573 0.775099 0.324109 0.208901
C65   C     C_R   0.796320 0.250953 0.332742 -0.295000
C66   C     C_R   0.203545 0.749197 0.332841 -0.294965
C67   C     C_R   0.221612 0.268870 0.326081 -0.295405
C68   C     C_R   0.776382 0.729104 0.325813 -0.295453
C69   C     C_R   0.297378 0.749913 0.666721 -0.295212
C70   C     C_R   0.702814 0.249879 0.666848 -0.295260
C71   C     C_R   0.712752 0.759978 0.672477 -0.296367
C72   C     C_R   0.288769 0.241553 0.671890 -0.296304
H1    H     H_    0.118707 0.660015 0.352759 0.159801
H2    H     H_    0.881167 0.340120 0.352667 0.159785
H3    H     H_    0.864662 0.643886 0.346443 0.160882
H4    H     H_    0.133633 0.354405 0.346754 0.160927
H5    H     H_    0.618371 0.160277 0.647175 0.158542
H6    H     H_    0.381784 0.839564 0.647074 0.158559
H7    H     H_    0.371904 0.150935 0.652354 0.161738
H8    H     H_    0.629541 0.850480 0.652805 0.161824
H9    H     H_    0.160804 0.616663 0.646065 0.188020
H10   H     H_    0.839356 0.383156 0.646187 0.188098
H11   H     H_    0.852083 0.630058 0.652694 0.194461
H12   H     H_    0.149348 0.371426 0.652282 0.194086
H13   H     H_    0.660241 0.117280 0.353664 0.186919
H14   H     H_    0.339627 0.882867 0.353774 0.186870
H15   H     H_    0.353139 0.131358 0.347576 0.194626
H16   H     H_    0.645155 0.866897 0.347167 0.194985
H17   H     H_    0.823313 0.260427 0.268492 0.147157
H18   H     H_    0.176491 0.739789 0.268632 0.147186
H19   H     H_    0.199615 0.283307 0.259629 0.146417
H20   H     H_    0.797697 0.713978 0.259199 0.146325
H21   H     H_    0.324435 0.759315 0.730929 0.146836
H22   H     H_    0.675822 0.240406 0.731100 0.146799
H23   H     H_    0.691366 0.775039 0.739068 0.146404
H24   H     H_    0.310834 0.227177 0.738316 0.146440
C73   C     C_R   0.943981 0.498777 0.798031 -0.056455
C74   C     C_R   0.056007 0.501191 0.201916 -0.068820
C75   C     C_R   0.056019 0.501233 0.798021 -0.056350
C76   C     C_R   0.943992 0.498816 0.201927 -0.068971
C77   C     C_R   0.444532 0.992132 0.798094 -0.069689
C78   C     C_R   0.555462 0.007968 0.201948 -0.058594
C79   C     C_R   0.555467 0.007871 0.798084 -0.069900
C80   C     C_R   0.444536 0.992039 0.201959 -0.058610
N1    N     N_R   0.000000 0.500000 0.750030 -0.105829
N2    N     N_R   1.000000 0.500000 0.249970 -0.104934
N3    N     N_R   0.500000 0.000000 0.750030 -0.105015
N4    N     N_R   0.500000 0.000000 0.249970 -0.106036
C81   C     C_R   0.057380 0.501281 0.898709 0.019676
C82   C     C_R   0.942628 0.498762 0.101205 0.017247
C83   C     C_R   0.942620 0.498738 0.898720 0.019819
C84   C     C_R   0.057371 0.501254 0.101194 0.017110
C85   C     C_R   0.556798 0.008188 0.898794 0.016709
C86   C     C_R   0.443202 0.991760 0.101275 0.017983
C87   C     C_R   0.443199 0.991822 0.898805 0.016660
C88   C     C_R   0.556795 0.008252 0.101264 0.018006
C89   C     C_R   1.000000 0.500009 0.949323 0.081628
C90   C     C_R   0.999999 0.500008 0.050590 0.086348
C91   C     C_R   0.499999 0.000005 0.949405 0.085941
C92   C     C_R   0.499998 0.000006 0.050665 0.081773
C93   C     C_R   0.114428 0.502549 0.949722 -0.208050
C94   C     C_R   0.885579 0.497499 0.050154 -0.214023
C95   C     C_R   0.885571 0.497478 0.949744 -0.208477
C96   C     C_R   0.114420 0.502526 0.050132 -0.213888
C97   C     C_R   0.613263 0.016459 0.949836 -0.214492
C98   C     C_R   0.386739 0.983487 0.050263 -0.209399
C99   C     C_R   0.386734 0.983556 0.949858 -0.214453
C100  C     C_R   0.613257 0.016530 0.050241 -0.209210
H25   H     H_    0.900451 0.497844 0.757651 0.132666
H26   H     H_    0.099535 0.502095 0.242281 0.134793
H27   H     H_    0.099549 0.502166 0.757633 0.132668
H28   H     H_    0.900464 0.497913 0.242300 0.134594
H29   H     H_    0.401400 0.986098 0.757769 0.135929
H30   H     H_    0.598584 0.014078 0.242283 0.134697
H31   H     H_    0.598599 0.013904 0.757751 0.135809
H32   H     H_    0.401414 0.985931 0.242303 0.134671
H33   H     H_    0.159014 0.503548 0.911996 0.142335
H34   H     H_    0.840992 0.496525 0.087854 0.140857
H35   H     H_    0.840985 0.496485 0.912026 0.142393
H36   H     H_    0.159007 0.503504 0.087824 0.140943
H37   H     H_    0.657397 0.022894 0.912135 0.141647
H38   H     H_    0.342618 0.976968 0.087984 0.146182
H39   H     H_    0.342599 0.977123 0.912166 0.141733
H40   H     H_    0.657378 0.023055 0.087954 0.146099
N5    N     N_2   0.239473 0.669558 0.754559 -0.319516
H41   H     H_    0.279703 0.661640 0.794198 0.225762
C101  C     C_3   0.188877 0.694509 0.812605 -0.806251
H42   H     H_    0.201491 0.742159 0.839520 0.241648
H43   H     H_    0.180687 0.662879 0.874614 0.241583
H44   H     H_    0.144466 0.697451 0.770810 0.254501
N6    N     N_2   0.760828 0.330115 0.754759 -0.319501
H45   H     H_    0.720646 0.337981 0.794540 0.225750
C102  C     C_3   0.811495 0.305091 0.812581 -0.806214
H46   H     H_    0.798914 0.257404 0.839389 0.241617
H47   H     H_    0.819757 0.336639 0.874661 0.241621
H48   H     H_    0.855856 0.302204 0.770647 0.254492
N7    N     N_2   0.776194 0.685239 0.762766 -0.312290
H49   H     H_    0.773837 0.715984 0.819788 0.227495
C103  C     C_3   0.745165 0.626043 0.783380 -0.815040
H50   H     H_    0.764565 0.605959 0.850497 0.238418
H51   H     H_    0.753204 0.591556 0.724920 0.248190
H52   H     H_    0.693678 0.633572 0.792511 0.243952
N8    N     N_2   0.226257 0.317233 0.761883 -0.312386
H53   H     H_    0.229152 0.287065 0.819551 0.227533
C104  C     C_3   0.257558 0.376586 0.780399 -0.814998
H54   H     H_    0.238851 0.397375 0.847478 0.238096
H55   H     H_    0.248981 0.410488 0.721331 0.248292
H56   H     H_    0.309122 0.369079 0.788517 0.244040
N9    N     N_2   0.738268 0.170745 0.244802 -0.319300
H57   H     H_    0.778382 0.163137 0.204747 0.226120
C105  C     C_3   0.687273 0.195470 0.187341 -0.810805
H58   H     H_    0.699466 0.243253 0.160524 0.242738
H59   H     H_    0.643006 0.198040 0.229547 0.254017
H60   H     H_    0.679043 0.163904 0.125268 0.240613
N10   N     N_2   0.261511 0.829499 0.244958 -0.319278
H61   H     H_    0.221362 0.837139 0.205008 0.226147
C106  C     C_3   0.312464 0.804846 0.187329 -0.810838
H62   H     H_    0.300262 0.757085 0.160431 0.242757
H63   H     H_    0.356769 0.802247 0.229431 0.253997
H64   H     H_    0.320630 0.836475 0.125310 0.240593
N11   N     N_2   0.286393 0.195547 0.235461 -0.317048
H65   H     H_    0.249897 0.192004 0.187011 0.226123
C107  C     C_3   0.341930 0.223654 0.193196 -0.801659
H66   H     H_    0.354930 0.197313 0.127525 0.242181
H67   H     H_    0.382377 0.221683 0.243518 0.252800
H68   H     H_    0.332459 0.273546 0.173768 0.240512
N12   N     N_2   0.710628 0.801444 0.235003 -0.316952
H69   H     H_    0.746599 0.804443 0.185569 0.226098
C108  C     C_3   0.654636 0.772912 0.194834 -0.801475
H70   H     H_    0.640946 0.798536 0.128837 0.242154
H71   H     H_    0.614734 0.775463 0.246094 0.252666
H72   H     H_    0.663878 0.722807 0.176439 0.240506

loop_
_geom_bond_atom_site_label_1
_geom_bond_atom_site_label_2
_geom_bond_distance
_ccdc_geom_bond_type
C84   C96   1.405802 A    
C63   C67   1.393351 A    
C107  H66   1.110436 S    
N5    H41   1.031875 S    
O8    Zn1   2.017811 S    
O10   Zn4   2.019296 S    
O5    Zn2   2.017780 S    
O2    C2    1.283566 A    
C78   H30   1.082765 S    
N11   H65   1.031908 S    
C14   C22   1.394118 A    
C88   C92   1.408542 A    
C44   C52   1.410723 A    
C23   C31   1.396293 A    
C97   C100  1.404798 A    
O15   Zn4   2.017807 S    
C47   C55   1.410842 A    
C29   C37   1.388523 A    
C101  H43   1.110557 S    
C79   H31   1.082676 S    
C102  H46   1.111641 S    
O10   C6    1.283465 A    
C87   C91   1.408433 A    
C72   H24   1.084597 S    
C98   H38   1.083455 S    
C15   C55   1.382525 A    
C35   C59   1.411484 A    
O7    Zn2   2.017807 S    
C77   H29   1.082675 S    
C32   C40   1.388308 A    
C79   C85   1.409383 A    
C76   C82   1.409534 A    
C54   C69   1.397385 A    
C27   C35   1.388988 A    
C66   H18   1.084596 S    
C39   C63   1.411291 A    
C53   C70   1.397372 A    
C77   N3    1.365622 A    
C65   H17   1.084590 S    
N8    C104  1.446937 S    
C86   C92   1.408540 A    
C76   N2    1.365591 A    
C104  H55   1.110863 S    
O6    Zn1   2.017778 S    
C67   H19   1.084641 S    
C57   N5    1.424472 S    
C46   C54   1.411142 A    
C108  H72   1.111658 S    
C45   C53   1.411128 A    
N12   C108  1.446716 S    
C42   C50   1.411078 A    
O3    C2    1.283782 A    
N9    C105  1.446895 S    
Zn2   N2    1.998393 S    
C60   N8    1.424665 S    
O14   C8    1.282773 A    
C106  H63   1.110842 S    
Zn1   N1    1.998392 S    
C16   C56   1.382451 A    
C39   C47   1.416001 A    
C43   C48   1.392264 A    
Zn3   N3    1.998392 S    
C41   C46   1.392169 A    
C38   C46   1.416532 A    
C11   C19   1.394938 A    
N7    C103  1.446942 S    
C35   C43   1.416033 A    
C73   N1    1.365453 A    
C59   N7    1.424683 S    
O13   Zn4   2.017780 S    
O14   Zn3   2.017778 S    
C96   H36   1.083335 S    
C15   C23   1.395164 A    
C59   C71   1.394119 A    
C63   N11   1.424412 S    
C80   N4    1.365493 A    
C103  H52   1.111595 S    
C24   C32   1.396361 A    
O16   Zn3   2.017811 S    
C70   H22   1.084596 S    
C25   C33   1.388732 A    
N5    C101  1.446836 S    
C26   H10   1.083380 S    
O1    Zn1   2.019297 S    
C8    C21   1.435804 S    
N11   C107  1.446716 S    
N9    H57   1.031869 S    
C33   C41   1.416561 A    
C94   H34   1.083333 S    
C15   H7    1.084879 S    
C21   C29   1.395125 A    
C10   C50   1.381964 A    
O13   C7    1.282927 A    
C74   H26   1.082767 S    
C101  H44   1.110865 S    
C9    C49   1.381975 A    
C102  H47   1.110554 S    
C75   H27   1.082929 S    
C86   C98   1.405479 A    
C107  H68   1.111660 S    
C69   H21   1.084600 S    
C76   H28   1.082766 S    
O8    C3    1.283083 A    
C27   H11   1.083046 S    
N12   H69   1.031901 S    
C100  H40   1.083457 S    
C44   C47   1.392291 A    
O3    Zn1   2.019331 S    
C12   C52   1.381470 A    
C93   C96   1.404882 A    
C101  H42   1.111640 S    
C104  H56   1.111596 S    
C29   H13   1.083359 S    
C34   C42   1.416552 A    
C62   C66   1.393814 A    
O12   C5    1.283541 A    
O7    C4    1.282694 A    
C58   C70   1.393846 A    
C105  H58   1.111621 S    
C1    C20   1.438859 S    
C30   C38   1.388521 A    
C60   C72   1.394153 A    
C106  H64   1.110583 S    
C33   C57   1.411251 A    
C2    C19   1.438979 S    
C105  H59   1.110842 S    
N8    H53   1.031901 S    
C83   C89   1.408698 A    
C3    C18   1.435945 S    
C75   C81   1.409067 A    
C5    C24   1.439266 S    
C107  H67   1.110915 S    
C85   C97   1.405709 A    
C79   N3    1.365617 A    
C6    C23   1.439101 S    
O11   Zn3   2.019331 S    
C78   C88   1.408999 A    
C26   C34   1.388722 A    
C36   C44   1.416065 A    
C108  H70   1.110427 S    
C81   C89   1.408697 A    
O2    Zn2   2.019296 S    
C77   C87   1.409387 A    
C51   C68   1.397094 A    
C7    C22   1.435789 S    
N6    H45   1.031868 S    
C61   N9    1.424607 S    
C62   N10   1.424613 S    
C88   C100  1.405476 A    
C25   H9    1.083387 S    
C55   C72   1.397566 A    
C22   C30   1.395118 A    
O4    C1    1.283504 A    
C75   N1    1.365449 A    
C93   H33   1.083511 S    
O15   C8    1.282936 A    
C12   H4    1.084945 S    
C14   C54   1.382090 A    
C85   C91   1.408434 A    
O16   C7    1.282776 A    
C87   C99   1.405711 A    
C80   H32   1.082767 S    
C37   C61   1.411248 A    
C16   C24   1.395230 A    
C31   C39   1.388283 A    
C17   C25   1.395168 A    
C82   C90   1.408535 A    
C52   C67   1.397102 A    
C83   C95   1.405519 A    
O9    Zn3   2.019297 S    
C19   C27   1.396437 A    
C98   C99   1.404800 A    
C102  H48   1.110864 S    
C13   C53   1.382068 A    
C28   C36   1.389067 A    
C20   C28   1.396389 A    
C42   C45   1.392162 A    
C57   C69   1.393858 A    
C64   C68   1.393361 A    
C37   C45   1.416525 A    
O4    Zn2   2.019331 S    
C91   C92   1.416765 A    
C16   H8    1.084866 S    
C95   H35   1.083511 S    
O5    C3    1.282694 A    
C103  H50   1.110535 S    
C48   C56   1.410798 A    
O6    C4    1.283077 A    
C89   C90   1.416866 A    
O11   C6    1.283959 A    
O1    C1    1.283789 A    
C36   C60   1.411488 A    
C80   C86   1.408999 A    
C40   C48   1.415974 A    
C41   C49   1.411093 A    
C14   H6    1.085083 S    
C38   C62   1.411253 A    
C105  H60   1.110582 S    
C13   C21   1.394125 A    
C10   H2    1.085062 S    
C99   H39   1.083337 S    
C9    H1    1.085066 S    
C4    C17   1.435928 S    
C40   C64   1.411298 A    
C64   N12   1.424401 S    
O9    C5    1.283965 A    
C104  H54   1.110533 S    
C73   C83   1.409068 A    
C97   H37   1.083334 S    
C11   H3    1.084930 S    
C11   C51   1.381479 A    
C58   N6    1.424472 S    
C108  H71   1.110914 S    
C34   C58   1.411245 A    
C71   H23   1.084592 S    
C13   H5    1.085078 S    
C12   C20   1.394895 A    
C78   N4    1.365488 A    
C106  H62   1.111620 S    
C82   C94   1.405803 A    
C18   C26   1.395170 A    
C74   C84   1.409534 A    
C56   C71   1.397558 A    
N10   H61   1.031872 S    
C68   H20   1.084635 S    
N6    C102  1.446839 S    
C81   C93   1.405520 A    
O12   Zn4   2.019331 S    
C31   H15   1.083126 S    
N7    H49   1.031897 S    
C9    C17   1.394159 A    
C30   H14   1.083368 S    
C94   C95   1.404882 A    
C32   H16   1.083100 S    
C73   H25   1.082926 S    
C74   N2    1.365585 A    
C10   C18   1.394170 A    
N10   C106  1.446896 S    
C50   C65   1.397427 A    
C84   C90   1.408536 A    
C43   C51   1.410709 A    
C61   C65   1.393814 A    
C49   C66   1.397432 A    
Zn4   N4    1.998393 S    
C103  H51   1.110857 S    
C28   H12   1.083067 S    
