data_mof_unit_16320.cif
_audit_creation_date              2012-12-10T17:52:22-0500
_audit_creation_method            fapswitch 2.2
_symmetry_space_group_name_H-M    P1
_symmetry_Int_Tables_number       1
_space_group_crystal_system       triclinic
_cell_length_a                    18.644903
_cell_length_b                    10.66067
_cell_length_c                    10.071432
_cell_angle_alpha                 89.866721
_cell_angle_beta                  89.93737
_cell_angle_gamma                 96.427673
_cell_volume                      1989.27886547

loop_
_atom_site_label
_atom_site_type_symbol
_atom_type_description
_atom_site_fract_x
_atom_site_fract_y
_atom_site_fract_z
_atom_type_partial_charge
C1    C     C_R   0.516552 0.268840 0.499885 1.020419
C2    C     C_R   0.293404 0.553556 0.495117 -0.364655
C3    C     C_R   0.937424 0.654915 0.493430 0.474173
C4    C     C_R   0.082740 0.671048 0.483210 0.385112
C5    C     C_R   0.833897 0.497154 0.557169 0.230325
C6    C     C_R   0.759445 0.459747 0.555177 0.656425
C7    C     C_R   0.712712 0.537639 0.497129 -0.262228
C8    C     C_R   0.739661 0.652227 0.438361 -0.375205
C9    C     C_R   0.813163 0.691030 0.439854 0.690591
C10   C     C_R   0.860373 0.615337 0.500584 -0.302703
C11   C     C_R   0.589499 0.141485 0.726132 0.645417
C12   C     C_R   0.366360 0.513950 0.499527 1.077987
C13   C     C_R   0.602639 0.069509 0.836541 -0.322984
C14   C     C_R   0.570252 0.946045 0.844484 0.628987
C15   C     C_R   0.523293 0.897835 0.744763 0.318458
C16   C     C_R   0.531633 0.952081 0.618189 -0.219613
C17   C     C_R   0.554566 0.081945 0.614625 -0.179142
C18   C     C_R   0.544202 0.146213 0.497966 -0.181694
C19   C     C_R   0.547570 0.082588 0.378433 0.387433
C20   C     C_R   0.521543 0.953867 0.375288 0.216743
C21   C     C_R   0.513421 0.884815 0.497870 -0.167792
C22   C     C_R   0.379267 0.334424 0.126336 0.338021
C23   C     C_R   0.501575 0.743389 0.499405 0.863755
C24   C     C_R   0.321487 0.295103 0.034806 0.204725
C25   C     C_R   0.314782 0.369736 0.925395 0.229971
C26   C     C_R   0.378813 0.395246 0.857913 0.606264
C27   C     C_R   0.440822 0.441884 0.927964 -0.137919
C28   C     C_R   0.441056 0.428644 0.073136 -0.051404
C29   C     C_R   0.557138 0.549373 0.072618 0.029246
C30   C     C_R   0.558103 0.551471 0.931904 0.509231
C31   C     C_R   0.635096 0.504573 0.499522 0.986585
C32   C     C_R   0.267430 0.618219 0.603074 0.658606
C33   C     C_R   0.200588 0.664213 0.596305 -0.160670
C34   C     C_R   0.158508 0.646511 0.481402 -0.148499
C35   C     C_R   0.185634 0.586973 0.371215 -0.192587
C36   C     C_R   0.252248 0.540589 0.377701 0.626780
H1    H     H_    0.635135 0.110898 0.917380 0.245182
H2    H     H_    0.604255 0.586696 0.128161 0.182573
H3    H     H_    0.180837 0.710077 0.682686 0.228281
H4    H     H_    0.154085 0.571173 0.281366 0.224562
H5    H     H_    0.703403 0.712604 0.393113 0.199982
N1    N     N_R   0.043130 0.660007 0.370043 -0.125637
N2    N     N_R   0.971601 0.652192 0.375022 -0.080916
N3    N     N_R   0.976803 0.672893 0.606034 -0.076833
N4    N     N_R   0.048370 0.680975 0.600940 -0.111124
N5    N     N_R   0.499340 0.498800 0.142780 -0.093969
N6    N     N_R   0.499320 0.498720 0.857170 -0.122647
O1    O     O_R   0.500000 0.316780 0.614690 -0.528191
O2    O     O_R   0.499990 0.316750 0.385360 -0.542815
O3    O     O_R   0.398140 0.500000 0.614700 -0.514236
O4    O     O_R   0.398130 0.499970 0.385370 -0.550652
O5    O     O_R   0.500010 0.683250 0.614640 -0.564631
O6    O     O_R   0.500000 0.683220 0.385310 -0.586766
O7    O     O_R   0.601870 0.500030 0.614630 -0.510156
O8    O     O_R   0.601860 0.500000 0.385300 -0.638942
Zn1   Zn    Zn3+2 0.500000 0.500020 0.653130 1.171132
Zn2   Zn    Zn3+2 0.500000 0.499980 0.346870 1.112401
F1    F     F_    0.305873 0.634380 0.716840 -0.558260
F2    F     F_    0.617110 0.264257 0.724393 -0.570349
F3    F     F_    0.580347 0.876323 0.952283 -0.532206
S1    S     S_3+6 0.433738 0.855887 0.795586 0.161496
O9    O     O_2   0.427395 0.737739 0.878189 -0.182126
O10   O     O_2   0.384642 0.839692 0.677318 -0.264553
O11   O     O_3   0.409595 0.975498 0.886270 -0.421727
H6    H     H_    0.420177 0.051371 0.829500 0.364700
S2    S     S_3+6 0.495125 0.886179 0.219465 0.193079
O12   O     O_2   0.422069 0.811306 0.230963 -0.222391
O13   O     O_2   0.491317 0.983793 0.113247 -0.102204
O14   O     O_3   0.556719 0.790558 0.176781 -0.462004
H7    H     H_    0.600873 0.819525 0.227649 0.360935
S3    S     S_3+6 0.365542 0.231975 0.274395 0.154351
O15   O     O_2   0.414127 0.130390 0.260839 -0.255414
O16   O     O_2   0.372653 0.280741 0.412435 -0.262542
O17   O     O_3   0.279971 0.163321 0.282164 -0.437676
H8    H     H_    0.281594 0.087042 0.338069 0.397326
S4    S     S_3+6 0.281075 0.133459 0.010493 0.179774
O18   O     O_2   0.205621 0.117667 0.065802 -0.173243
O19   O     O_2   0.276887 0.104861 0.864332 -0.192429
O20   O     O_3   0.326889 0.024572 0.082350 -0.414824
H9    H     H_    0.295197 0.943947 0.074144 0.407826
S5    S     S_3+6 0.230567 0.376287 0.843426 0.170177
O21   O     O_2   0.170670 0.287229 0.901538 -0.163751
O22   O     O_2   0.209479 0.507209 0.859176 -0.241444
O23   O     O_3   0.238819 0.342556 0.681588 -0.486804
H10   H     H_    0.190727 0.350576 0.642838 0.380006
F4    F     F_    0.386269 0.319854 0.752114 -0.585889
S6    S     S_3+6 0.641343 0.620504 0.863454 0.095537
O24   O     O_2   0.682960 0.701171 0.965919 -0.247548
O25   O     O_2   0.685584 0.516621 0.825841 -0.231884
O26   O     O_3   0.630150 0.712454 0.731331 -0.581361
H11   H     H_    0.679444 0.749450 0.706412 0.368834
F5    F     F_    0.275185 0.480980 0.269491 -0.616976
S7    S     S_3+6 0.892861 0.394046 0.626292 0.143143
O27   O     O_2   0.956228 0.386352 0.535476 -0.232227
O28   O     O_2   0.920230 0.445867 0.757767 -0.239687
O29   O     O_3   0.851228 0.247069 0.648809 -0.412820
H12   H     H_    0.833840 0.244473 0.741876 0.401106
F6    F     F_    0.732406 0.346413 0.605374 -0.562860
F7    F     F_    0.838366 0.802885 0.382741 -0.585526
S8    S     S_3+6 0.602411 0.157991 0.249798 0.090761
O30   O     O_2   0.557239 0.218817 0.150146 -0.252940
O31   O     O_2   0.655686 0.258245 0.309837 -0.295669
O32   O     O_3   0.648123 0.051807 0.172836 -0.512259
H13   H     H_    0.693034 0.100372 0.139893 0.397785

loop_
_geom_bond_atom_site_label_1
_geom_bond_atom_site_label_2
_ccdc_geom_bond_type
C8    C9    A    
S2    O13   D    
S6    O24   D    
C16   C21   A    
C35   C36   A    
S4    O20   S    
C32   F1    S    
C2    C12   S    
C12   O4    A    
S5    O21   D    
C23   O5    A    
C7    C8    A    
C28   N5    A    
C26   C27   A    
S7    O27   D    
C6    F6    S    
C20   S2    S    
S4    O19   D    
C18   C19   A    
C5    C6    A    
S2    O14   S    
C2    C36   A    
C15   C16   A    
O2    Zn2   S    
C2    C32   A    
C34   C35   A    
S1    O10   D    
C1    C18   S    
O23   H10   S    
C19   C20   A    
C16   C17   A    
C29   H2    S    
O4    Zn2   S    
C9    C10   A    
C13   H1    S    
C36   F5    S    
S2    O12   D    
C8    H5    S    
C9    F7    S    
C22   C28   A    
C13   C14   A    
C25   S5    S    
O14   H7    S    
C11   F2    S    
S5    O22   D    
C23   O6    A    
C4    C34   S    
C4    N4    A    
C21   C23   S    
O7    Zn1   S    
C3    N3    A    
C7    C31   S    
O17   H8    S    
C30   N6    A    
C24   C25   A    
S3    O16   D    
O6    Zn2   S    
C24   S4    S    
C25   C26   A    
S8    O32   S    
O3    Zn1   S    
S1    O11   S    
C29   C30   A    
C12   O3    A    
C26   F4    S    
C3    N2    A    
O29   H12   S    
S8    O31   D    
C17   C18   A    
C15   S1    S    
C33   H3    S    
S4    O18   D    
S7    O29   S    
O8    Zn2   S    
N5    Zn2   S    
C22   C24   A    
N1    N2    A    
C22   S3    S    
O32   H13   S    
S5    O23   S    
N3    N4    A    
C27   N6    A    
O1    Zn1   S    
C11   C17   A    
S3    O17   S    
C5    S7    S    
C19   S8    S    
C1    O1    A    
C6    C7    A    
C14   F3    S    
C29   N5    A    
C32   C33   A    
S6    O25   D    
C35   H4    S    
C5    C10   A    
C3    C10   S    
O11   H6    S    
C11   C13   A    
O26   H11   S    
C4    N1    A    
S8    O30   D    
C33   C34   A    
C31   O7    A    
S1    O9    D    
O20   H9    S    
S3    O15   D    
C20   C21   A    
S7    O28   D    
S6    O26   S    
C27   C28   A    
C14   C15   A    
C31   O8    A    
C30   S6    S    
C1    O2    A    
O5    Zn1   S    
N6    Zn1   S    
