data_mof_unit_27090.cif
_audit_creation_date              2012-12-11T14:50:45-0500
_audit_creation_method            fapswitch 2.2
_symmetry_space_group_name_H-M    P1
_symmetry_Int_Tables_number       1
_space_group_crystal_system       triclinic
_cell_length_a                    11.117645
_cell_length_b                    10.967382
_cell_length_c                    18.778207
_cell_angle_alpha                 90.098581
_cell_angle_beta                  89.220863
_cell_angle_gamma                 60.446237
_cell_volume                      1991.47708844

loop_
_atom_site_label
_atom_site_type_symbol
_atom_type_description
_atom_site_fract_x
_atom_site_fract_y
_atom_site_fract_z
_atom_type_partial_charge
C1    C     C_R   0.230599 0.648838 0.608950 0.600398
C2    C     C_R   0.551946 0.245316 0.801176 -0.118796
C3    C     C_R   0.530991 0.266069 0.728774 -0.074179
C4    C     C_R   0.657223 0.625236 0.598661 0.620681
C5    C     C_R   0.643209 0.212463 0.681211 0.056147
C6    C     C_R   0.190156 0.552447 0.721451 -0.135475
C7    C     C_R   0.187743 0.554359 0.796103 -0.160351
C8    C     C_R   0.177801 0.670182 0.833225 -0.016886
C9    C     C_R   0.181224 0.777495 0.795215 0.057209
C10   C     C_R   0.147544 0.790486 0.722444 -0.065238
C11   C     C_R   0.173834 0.669349 0.683280 0.026799
C12   C     C_3   0.781095 0.534191 0.790311 -0.051523
C13   C     C_R   0.784766 0.622626 0.290814 0.043078
C14   C     C_R   0.795471 0.631811 0.217926 -0.138332
C15   C     C_R   0.678427 0.682857 0.174619 0.012340
C16   C     C_R   0.618792 0.242997 0.606051 0.576963
C17   C     C_R   0.548281 0.728743 0.204692 -0.093357
C18   C     C_R   0.536027 0.721024 0.278083 -0.113869
C19   C     C_R   0.654221 0.664785 0.321105 0.005349
C20   C     C_R   0.605064 0.087738 0.299583 -0.108210
C21   C     C_R   0.577499 0.095853 0.226978 0.022262
C22   C     C_R   0.647551 0.146013 0.180416 0.004870
C23   C     C_3   0.739190 0.691351 0.805340 -0.048931
C24   C     C_R   0.722927 0.206490 0.209422 0.025682
C25   C     C_R   0.734755 0.208876 0.282651 -0.074161
C26   C     C_R   0.668421 0.157584 0.327598 0.025250
C27   C     C_R   0.050405 0.804918 0.312505 0.057554
C28   C     C_R   0.221278 0.649621 0.401798 0.577675
C29   C     C_R   0.007400 0.825676 0.242141 -0.158495
C30   C     C_R   0.066765 0.715013 0.192677 -0.056121
C31   C     C_R   0.170006 0.581425 0.212672 -0.042002
C32   C     C_R   0.213289 0.561016 0.282433 -0.046226
C33   C     C_R   0.154568 0.671243 0.332967 -0.013945
C34   C     C_3   0.689715 0.659425 0.671057 -0.034985
C35   C     C_R   0.702938 0.103957 0.896711 0.554955
C36   C     C_R   0.758383 0.711241 0.883043 0.533180
C37   C     C_R   0.118857 0.705331 0.905718 0.574285
C38   C     C_R   0.675541 0.099737 0.106187 0.575288
C39   C     C_R   0.700001 0.692357 0.099180 0.566951
C40   C     C_R   0.641614 0.623595 0.392850 0.581019
C41   C     C_R   0.029448 0.745213 0.119106 0.523633
C42   C     C_R   0.622493 0.222630 0.397504 0.617141
C43   C     C_3   0.584640 0.785741 0.787789 -0.260889
C44   C     C_3   0.559515 0.787622 0.707116 0.016403
C45   C     C_3   0.815923 0.687580 0.674737 -0.069764
C46   C     C_3   0.822515 0.734943 0.753569 -0.256805
C47   C     C_2   0.933416 0.131750 0.799996 0.574485
C48   C     C_2   0.246631 0.853471 0.830005 0.622059
C49   C     C_2   0.911566 0.560905 0.333535 0.573687
C50   C     C_2   0.461488 0.068372 0.207598 0.636703
C51   C     C_2   0.780719 0.278787 0.165404 0.600552
C52   C     C_2   0.995277 0.925801 0.361972 0.584635
C53   C     C_2   0.430555 0.778292 0.697645 0.609209
C54   C     C_2   0.245667 0.465953 0.159604 0.670162
C55   C     C_2   0.340696 0.432185 0.296968 0.616677
C56   C     C_3   0.738942 0.520330 0.715037 -0.277303
C57   C     C_2   0.533648 0.925635 0.672660 0.622390
C58   C     C_2   0.820703 0.782839 0.617698 0.568812
C59   C     C_2   0.935426 0.432698 0.801050 0.586593
C60   C     C_R   0.775693 0.154987 0.706918 -0.106125
C61   C     C_R   0.799065 0.145642 0.780140 -0.012480
C62   C     C_R   0.686556 0.175292 0.827884 -0.002566
Cr1   Cr    Cr6+3 0.392930 0.397900 0.502230 1.087576
Cr2   Cr    Cr6+3 0.398240 0.708600 0.501260 1.146672
Cr3   Cr    Cr6+3 0.708800 0.393470 0.496460 1.082833
Cr4   Cr    Cr6+3 0.937620 0.938540 0.007640 1.123238
Cr5   Cr    Cr6+3 0.625150 0.937450 0.994520 1.063413
Cr6   Cr    Cr6+3 0.937990 0.625080 0.001190 1.089452
H1    H     H_    0.829009 0.430819 0.688054 0.204064
H2    H     H_    0.722430 0.503460 0.827911 0.141889
H3    H     H_    0.543785 0.894007 0.808701 0.204928
H4    H     H_    0.930123 0.688057 0.770607 0.142322
H5    H     H_    0.860259 0.124089 0.668891 0.197027
H6    H     H_    0.087207 0.167091 0.763591 0.408693
H7    H     H_    0.462619 0.275931 0.835798 0.152809
H8    H     H_    0.204103 0.460142 0.693341 0.179084
H9    H     H_    0.189899 0.467852 0.824787 0.173224
H10   H     H_    0.357602 0.863223 0.912288 0.344668
H11   H     H_    0.097355 0.393068 0.350627 0.373568
H12   H     H_    0.912146 0.587434 0.663511 0.169855
H13   H     H_    0.434478 0.753073 0.300739 0.162294
H14   H     H_    0.311343 0.091526 0.140553 0.352403
H15   H     H_    0.925950 0.336766 0.154225 0.351495
H16   H     H_    0.977148 0.113752 0.384956 0.347423
H17   H     H_    0.469791 0.612586 0.760798 0.286240
H18   H     H_    0.930350 0.928925 0.225136 0.128122
H19   H     H_    0.105937 0.400142 0.166923 0.318814
H20   H     H_    0.454183 0.527658 0.283242 0.287115
H21   H     H_    0.492526 0.038872 0.582417 0.360557
H22   H     H_    0.779413 0.850284 0.757729 0.168052
H23   H     H_    0.427255 0.315720 0.709349 0.155999
H24   H     H_    0.824958 0.818919 0.512669 0.384937
H25   H     H_    0.084878 0.297711 0.866246 0.341308
H26   H     H_    0.664486 0.481541 0.715707 0.121202
H27   H     H_    0.527615 0.744482 0.818724 0.141536
H28   H     H_    0.125989 0.884690 0.694584 0.220234
H29   H     H_    0.896340 0.599256 0.194798 0.124849
H30   H     H_    0.457403 0.769521 0.171836 0.159767
H31   H     H_    0.555234 0.049986 0.336525 0.190174
H32   H     H_    0.780841 0.267489 0.304562 0.200170
O1    O     O_R   0.507430 0.255570 0.581420 -0.531555
O2    O     O_R   0.837200 0.593290 0.915250 -0.447380
O3    O     O_R   0.065330 0.635370 0.931590 -0.514905
O4    O     O_R   0.280190 0.527390 0.578910 -0.517391
O5    O     O_R   0.068300 0.828790 0.091860 -0.474450
O6    O     O_R   0.798730 0.057480 0.079370 -0.508819
O7    O     O_R   0.584680 0.080480 0.076790 -0.439201
O8    O     O_R   0.626790 0.809640 0.067050 -0.497684
O9    O     O_R   0.816010 0.596460 0.076500 -0.504035
O10   O     O_R   0.045680 0.638310 0.081070 -0.483515
O11   O     O_3   0.833590 0.833690 0.001120 -0.345372
O12   O     O_R   0.524460 0.695920 0.424060 -0.503646
O13   O     O_R   0.260310 0.739740 0.584580 -0.441005
O14   O     O_R   0.532250 0.695150 0.573830 -0.429287
O15   O     O_R   0.744930 0.503430 0.576380 -0.515608
O16   O     O_R   0.699250 0.276390 0.571950 -0.508111
O17   O     O_R   0.499020 0.256400 0.419850 -0.461946
O18   O     O_R   0.272400 0.528160 0.429140 -0.478182
O19   O     O_R   0.251910 0.740570 0.423020 -0.499930
O20   O     O_2   0.971201 0.117297 0.861531 -0.423942
O21   O     O_R   0.012484 0.148499 0.746043 -0.693786
O22   O     O_2   0.245351 0.953912 0.802261 -0.508662
O23   O     O_R   0.736530 0.504260 0.414810 -0.479332
O24   O     O_R   0.320674 0.801846 0.892999 -0.684928
O25   O     O_2   0.915400 0.618890 0.388459 -0.487649
O26   O     O_R   0.023801 0.432185 0.312901 -0.666361
O27   O     O_2   0.420175 0.014613 0.251410 -0.518618
O28   O     O_R   0.387194 0.116929 0.145014 -0.582173
O29   O     O_2   0.725644 0.335445 0.109771 -0.461357
O30   O     O_R   0.896315 0.285312 0.188756 -0.664961
O31   O     O_2   0.940970 0.922424 0.418420 -0.517401
O32   O     O_R   0.012466 0.040478 0.345496 -0.661913
O33   O     O_2   0.331869 0.874369 0.668456 -0.415401
O34   O     O_R   0.691460 0.277160 0.422180 -0.512744
O35   O     O_R   0.427114 0.655785 0.713803 -0.732172
O36   O     O_2   0.354246 0.447635 0.133036 -0.426852
O37   O     O_R   0.192154 0.380228 0.138908 -0.602348
O38   O     O_2   0.337195 0.324312 0.306877 -0.451286
O39   O     O_R   0.465195 0.433360 0.296179 -0.696735
O40   O     O_2   0.520578 0.023725 0.708870 -0.536927
O41   O     O_R   0.516321 0.942033 0.598954 -0.641495
O42   O     O_2   0.828677 0.886655 0.633590 -0.537796
O43   O     O_R   0.821964 0.747844 0.545983 -0.638532
O44   O     O_2   0.020568 0.418623 0.755401 -0.591118
O45   O     O_3   0.499990 0.499990 0.499980 -0.300413
O46   O     O_R   0.980354 0.354293 0.863422 -0.613108
O47   O     O_R   0.089490 0.825610 0.930610 -0.445177
O48   O     O_R   0.818370 0.054540 0.929880 -0.447701
O49   O     O_R   0.605870 0.077310 0.915530 -0.518233
O50   O     O_R   0.646440 0.806700 0.917570 -0.510922

loop_
_geom_bond_atom_site_label_1
_geom_bond_atom_site_label_2
_ccdc_geom_bond_type
C34   C56   S    
C3    H23   S    
Cr2   O45   S    
Cr5   O49   S    
C4    O15   A    
C53   O35   S    
Cr6   O3    S    
Cr1   O1    S    
Cr5   O7    S    
C51   O29   D    
C23   C43   S    
C7    C8    A    
C40   O12   A    
C45   C46   S    
C27   C33   A    
C56   H26   S    
C49   O26   S    
C12   C23   S    
C55   O38   D    
C41   O5    A    
C4    O14   A    
Cr6   O2    S    
C48   O22   D    
C30   C31   A    
Cr1   O17   S    
Cr5   O8    S    
Cr2   O12   S    
C54   O37   S    
C27   C29   A    
C22   C38   S    
C60   H5    S    
C18   H13   S    
C55   O39   S    
C36   O2    A    
C18   C19   A    
C38   O7    A    
H24   O43   S    
C5    C16   S    
C21   C22   A    
C12   C59   S    
C44   C53   S    
C8    C9    A    
C1    C11   S    
C43   H27   S    
C30   C41   S    
Cr4   O11   S    
C35   C62   S    
H10   O24   S    
C9    C10   A    
C15   C39   S    
C32   C55   S    
Cr4   O48   S    
Cr3   O34   S    
C7    H9    S    
C35   O48   A    
C24   C51   S    
C23   C46   S    
C13   C14   A    
Cr5   O50   S    
Cr3   O15   S    
C1    O13   A    
Cr4   O6    S    
C16   O16   A    
C21   C50   S    
C51   O30   S    
C39   O8    A    
C4    C34   S    
C45   C58   S    
Cr2   O14   S    
C13   C19   A    
C52   O32   S    
C53   O33   D    
C24   C25   A    
H15   O30   S    
C58   O43   S    
C6    C11   A    
C37   O3    A    
Cr1   O18   S    
C25   C26   A    
H16   O32   S    
C57   O40   D    
C60   C61   A    
Cr6   O11   S    
C38   O6    A    
C43   C44   S    
H20   O39   S    
C48   O24   S    
C29   C30   A    
C59   O44   D    
C58   O42   D    
C25   H32   S    
C31   C32   A    
C10   H28   S    
C44   C57   S    
C54   O36   D    
C17   C18   A    
Cr4   O47   S    
C34   C44   S    
H25   O46   S    
C34   C45   S    
Cr6   O10   S    
C37   O47   A    
Cr2   O19   S    
C1    O4    A    
H14   O28   S    
C29   H18   S    
C12   C56   S    
H17   O35   S    
C13   C49   S    
Cr5   O11   S    
C47   O20   D    
H11   O26   S    
C28   C33   S    
C23   C36   S    
C41   O10   A    
Cr3   O16   S    
C22   C24   A    
C50   O28   S    
C8    C37   S    
Cr4   O5    S    
Cr3   O45   S    
C27   C52   S    
C26   C42   S    
C14   H29   S    
C17   H30   S    
C15   C17   A    
C40   O23   A    
C12   H2    S    
C43   H3    S    
Cr2   O13   S    
C5    C60   A    
C52   O31   D    
C46   H4    S    
Cr1   O4    S    
C3    C5    A    
C28   O19   A    
C47   C61   S    
C42   O17   A    
C6    H8    S    
C6    C7    A    
C46   H22   S    
C49   O25   D    
C57   O41   S    
C42   O34   A    
C10   C11   A    
C32   C33   A    
C2    C3    A    
C28   O18   A    
C36   O50   A    
C20   H31   S    
C20   C26   A    
H21   O41   S    
C45   H12   S    
Cr6   O9    S    
Cr3   O23   S    
C31   C54   S    
C61   C62   A    
C47   O21   S    
C19   C40   S    
C59   O46   S    
C16   O1    A    
C39   O9    A    
H6    O21   S    
C20   C21   A    
C9    C48   S    
C56   H1    S    
C14   C15   A    
C50   O27   D    
C35   O49   A    
H19   O37   S    
Cr1   O45   S    
C2    H7    S    
C2    C62   A    
