data_mof_unit_59548.cif
_audit_creation_date              2013-03-05T16:06:17-0500
_audit_creation_method            fapswitch 2.2
_symmetry_space_group_name_H-M    P1
_symmetry_Int_Tables_number       1
_space_group_crystal_system       triclinic
_cell_length_a                    10.822149
_cell_length_b                    9.509063
_cell_length_c                    27.824049
_cell_angle_alpha                 90.0301
_cell_angle_beta                  90.325851
_cell_angle_gamma                 89.985705
_cell_volume                      2863.28426524

loop_
_atom_site_label
_atom_site_type_symbol
_atom_site_description
_atom_site_fract_x
_atom_site_fract_y
_atom_site_fract_z
_atom_type_partial_charge
O1    O     O_R   0.319640 0.618740 0.500000 -0.597514
O2    O     O_R   0.680360 0.381260 0.500000 -0.598278
O3    O     O_R   0.680360 0.618740 0.500000 -0.574773
O4    O     O_R   0.319640 0.381260 0.500000 -0.575644
C1    C     C_R   0.262043 0.500009 0.499974 0.812343
C2    C     C_R   0.737957 0.499989 0.500024 0.817126
O5    O     O_R   0.500020 0.618770 0.430260 -0.547242
O6    O     O_R   0.499980 0.381230 0.569740 -0.544918
O7    O     O_R   0.499980 0.618770 0.569740 -0.588837
O8    O     O_R   0.500020 0.381230 0.430260 -0.588143
C3    C     C_R   0.502630 0.499997 0.407520 0.857242
C4    C     C_R   0.497217 0.499991 0.592519 0.852473
Cu1   Cu    Cu3+1 0.500000 0.640660 0.500000 1.000900
Cu2   Cu    Cu3+1 0.500000 0.359340 0.500000 1.001933
C5    C     C_R   0.384300 0.514983 0.178387 0.588847
C6    C     C_R   0.611170 0.503837 0.822399 0.589844
O9    O     O_2   0.282492 0.546386 0.203958 -0.449298
O10   O     O_2   0.716241 0.483881 0.797487 -0.450341
N1    N     N_R   0.493298 0.492397 0.202262 -0.467837
N2    N     N_R   0.501393 0.511731 0.797953 -0.466869
C7    C     C_R   0.600681 0.468103 0.178146 0.566953
C8    C     C_R   0.391562 0.523053 0.821555 0.566341
C9    C     C_R   0.559245 0.603527 0.277841 -0.141488
C10   C     C_R   0.445818 0.393305 0.722373 -0.141817
C11   C     C_R   0.566581 0.605533 0.328148 0.302924
C12   C     C_R   0.439653 0.389979 0.672066 0.304730
C13   C     C_R   0.441854 0.391945 0.330135 -0.242258
C14   C     C_R   0.549617 0.613727 0.669990 -0.239032
C15   C     C_R   0.437149 0.390296 0.280131 -0.066535
C16   C     C_R   0.552833 0.616716 0.720001 -0.065847
C17   C     C_R   0.495577 0.496068 0.253835 0.267395
C18   C     C_R   0.501125 0.506603 0.746369 0.265914
C19   C     C_R   0.491266 0.492390 0.102077 -0.085663
C20   C     C_R   0.500283 0.515125 0.898144 -0.084597
C21   C     C_R   0.379453 0.510042 0.127553 -0.143318
C22   C     C_R   0.613896 0.511394 0.873189 -0.143897
C23   C     C_R   0.268087 0.526466 0.101381 0.365956
C24   C     C_R   0.725430 0.512403 0.899847 0.369921
C25   C     C_R   0.602131 0.469790 0.127841 -0.020311
C26   C     C_R   0.388775 0.522638 0.871866 -0.025011
C27   C     C_R   0.505186 0.499411 0.354672 -0.156864
C28   C     C_R   0.494161 0.500735 0.645440 -0.160153
H1    H     H_    0.394366 0.309907 0.349746 0.173530
H2    H     H_    0.591835 0.699490 0.650416 0.177126
H3    H     H_    0.388281 0.306531 0.261737 0.169047
H4    H     H_    0.595199 0.705004 0.738347 0.170991
C29   C     C_R   0.382735 0.518001 0.973786 0.069529
C30   C     C_R   0.606954 0.484039 0.026222 0.072625
C31   C     C_R   0.609776 0.498131 0.975396 -0.012865
C32   C     C_R   0.381037 0.516746 0.025004 -0.010758
C33   C     C_R   0.497640 0.510643 0.949285 0.078269
C34   C     C_R   0.492935 0.497633 0.050929 0.078186
C35   C     C_R   0.273133 0.526065 0.945911 -0.176558
C36   C     C_R   0.714778 0.454467 0.053325 -0.179980
C37   C     C_R   0.276455 0.528512 0.896131 -0.091304
C38   C     C_R   0.712301 0.448413 0.103054 -0.092638
O11   O     O_2   0.285131 0.534306 0.796289 -0.488941
O12   O     O_2   0.706028 0.442878 0.202910 -0.488214
C39   C     C_R   0.270533 0.532191 0.051309 -0.251596
C40   C     C_R   0.722020 0.504307 0.949859 -0.251731
H5    H     H_    0.404197 0.309610 0.743133 0.187712
H6    H     H_    0.606051 0.683509 0.257053 0.188949
H7    H     H_    0.189635 0.534002 0.876638 0.235238
H8    H     H_    0.797984 0.427157 0.122053 0.224434
H9    H     H_    0.182011 0.528260 0.961094 0.165630
H10   H     H_    0.802866 0.432224 0.037167 0.160903
H11   H     H_    0.182349 0.547626 0.034134 0.171897
H12   H     H_    0.810062 0.510371 0.967994 0.173447
C41   C     C_R   0.063944 0.372259 0.501553 -0.133975
C42   C     C_R   0.936053 0.627737 0.498412 -0.130502
C43   C     C_R   0.936177 0.372247 0.501562 -0.165614
C44   C     C_R   0.063820 0.627749 0.498403 -0.165238
H13   H     H_    0.112086 0.272420 0.502836 0.163792
H14   H     H_    0.887910 0.727574 0.497127 0.163552
H15   H     H_    0.888136 0.272400 0.502859 0.156946
H16   H     H_    0.111862 0.727596 0.497105 0.157109
C45   C     C_R   0.871775 0.499986 0.499997 -0.018419
C46   C     C_R   0.128223 0.500011 0.499978 -0.020060
C47   C     C_R   0.423094 0.074432 0.470035 0.007071
C48   C     C_R   0.576887 0.925569 0.529973 0.007733
C49   C     C_R   0.576871 0.074476 0.529978 0.024761
C50   C     C_R   0.423106 0.925525 0.470031 0.019755
H17   H     H_    0.361513 0.130615 0.446044 0.116875
H18   H     H_    0.638454 0.869387 0.553970 0.116763
H19   H     H_    0.638423 0.130694 0.553979 0.123872
H20   H     H_    0.361531 0.869308 0.446039 0.123851
N3    N     N_R   0.500000 0.852070 0.500000 -0.163720
N4    N     N_R   0.500000 0.147930 0.500000 -0.163521
N5    N     N_R   0.149883 0.530669 0.124460 0.162367
O13   O     O_R   0.071189 0.629019 0.113296 -0.332160
O14   O     O_R   0.111326 0.421029 0.147991 -0.293145
N6    N     N_R   0.843555 0.529306 0.877379 0.164805
O15   O     O_R   0.935260 0.448442 0.889882 -0.354799
O16   O     O_R   0.866094 0.642365 0.852594 -0.290261
N7    N     N_R   0.372657 0.277943 0.649066 0.135213
O17   O     O_R   0.378226 0.151086 0.666466 -0.342050
O18   O     O_R   0.290058 0.306368 0.616304 -0.341652
N8    N     N_R   0.641327 0.711033 0.351235 0.135246
O19   O     O_R   0.648225 0.836762 0.332990 -0.335888
O20   O     O_R   0.718126 0.675969 0.385351 -0.345996

loop_
_geom_bond_atom_site_label_1
_geom_bond_atom_site_label_2
_geom_bond_distance
_ccdc_geom_bond_type
C47   H17   1.081808 S    
C10   H5    1.083318 S    
C13   C15   1.392022 A    
N7    O17   1.301324 A    
C44   H16   1.083313 S    
O3    C2    1.289684 A    
N1    C17   1.435448 S    
C8    O11   1.350228 S    
C19   C34   1.424267 A    
C30   C36   1.414019 A    
C20   C33   1.424055 A    
C19   C25   1.410619 A    
C31   C40   1.412012 A    
O1    C1    1.289795 A    
C32   C39   1.413222 A    
N1    C7    1.364810 A    
C10   C12   1.401270 A    
C48   N3    1.366786 A    
C50   N3    1.366794 A    
C24   N6    1.435323 S    
C14   C28   1.405741 A    
C41   C43   1.382715 A    
O7    Cu1   1.951692 S    
C4    C28   1.473063 S    
C39   H11   1.074936 S    
C5    N1    1.367469 A    
C9    H6    1.083321 S    
C31   C33   1.415862 A    
C37   H7    1.083490 S    
C42   H14   1.083326 S    
C32   C34   1.417712 A    
C38   H8    1.083788 S    
C41   H13   1.083328 S    
N5    O14   1.301451 A    
C35   H9    1.075222 S    
O3    Cu1   1.962929 S    
O6    C4    1.295133 A    
C29   C35   1.415582 A    
Cu1   Cu2   2.675090 S    
C42   C45   1.400852 A    
C41   C46   1.400855 A    
O2    C2    1.289781 A    
C5    C21   1.415837 A    
C47   N4    1.366777 A    
C29   C32   1.425368 A    
C35   C37   1.385937 A    
C36   C38   1.385301 A    
C43   H15   1.083313 S    
C48   H18   1.081805 S    
O8    Cu2   1.951692 S    
C11   C27   1.418140 A    
C48   C49   1.415969 A    
C2    C45   1.448203 S    
C29   C33   1.423204 A    
C50   H20   1.081753 S    
C14   H2    1.083478 S    
C15   H3    1.082956 S    
C9    C17   1.399804 A    
O5    C3    1.294658 A    
C10   C18   1.399906 A    
C13   C27   1.405148 A    
C25   C38   1.395569 A    
C7    C25   1.399955 A    
C30   C34   1.421752 A    
C6    N2    1.367659 A    
C26   C37   1.394908 A    
C8    C26   1.400371 A    
Cu1   N3    2.010311 S    
N6    O16   1.301428 A    
C23   C39   1.394708 A    
C24   C40   1.394417 A    
C30   C31   1.421072 A    
N2    C8    1.365405 A    
N8    O20   1.301621 A    
C20   C26   1.409239 A    
O1    Cu1   1.963032 S    
C43   C45   1.400855 A    
C12   C28   1.418495 A    
N2    C18   1.436090 S    
C12   N7    1.436882 S    
C5    O9    1.348275 S    
O6    Cu2   1.951474 S    
C21   C23   1.413247 A    
C16   H4    1.082910 S    
O4    C1    1.289673 A    
C47   C50   1.415968 A    
N7    O18   1.301507 A    
C36   H10   1.077184 S    
C23   N5    1.435148 S    
C14   C16   1.392013 A    
N5    O13   1.301270 A    
Cu2   N4    2.010312 S    
C7    O12   1.350252 S    
C15   C17   1.397545 A    
C6    C22   1.415103 A    
C16   C18   1.397687 A    
C22   C24   1.413154 A    
N6    O15   1.301231 A    
C19   C21   1.415764 A    
C3    C27   1.470893 S    
C20   C22   1.415921 A    
C9    C11   1.401641 A    
O4    Cu2   1.962929 S    
O2    Cu2   1.963032 S    
O7    C4    1.295880 A    
C49   N4    1.366793 A    
O8    C3    1.295200 A    
C13   H1    1.083626 S    
C11   N8    1.437798 S    
O5    Cu1   1.951474 S    
C40   H12   1.077182 S    
C6    O10   1.348407 S    
N8    O19   1.301453 A    
C44   C46   1.400860 A    
C42   C44   1.382716 A    
C1    C46   1.448213 S    
C49   H19   1.081756 S    
