data_mof_unit_56550.cif
_audit_creation_date              2012-12-10T17:22:03-0500
_audit_creation_method            fapswitch 2.2
_symmetry_space_group_name_H-M    P1
_symmetry_Int_Tables_number       1
_space_group_crystal_system       triclinic
_cell_length_a                    10.12564
_cell_length_b                    10.661571
_cell_length_c                    15.766151
_cell_angle_alpha                 90.382714
_cell_angle_beta                  81.787739
_cell_angle_gamma                 94.745992
_cell_volume                      1678.78648358

loop_
_atom_site_label
_atom_site_type_symbol
_atom_type_description
_atom_site_fract_x
_atom_site_fract_y
_atom_site_fract_z
_atom_type_partial_charge
C1    C     C_R   0.555090 0.733615 0.490918 0.932662
C2    C     C_3   0.483896 0.647155 0.052186 -0.027013
C3    C     C_3   0.498775 0.509580 0.082986 0.236449
C4    C     C_3   0.376102 0.423616 0.059380 -0.012600
C5    C     C_3   0.373751 0.430434 0.960633 -0.003956
C6    C     C_1   0.498507 0.506357 0.174619 -0.051074
C7    C     C_1   0.503209 0.510910 0.824893 -0.064228
C8    C     C_1   0.503301 0.506190 0.749821 -0.202100
C9    C     C_2   0.583356 0.866282 0.471118 -0.362265
C10   C     C_2   0.483380 0.930184 0.451435 -0.197872
C11   C     C_2   0.415710 0.132575 0.493175 -0.429567
C12   C     C_R   0.500904 0.500983 0.661518 0.909500
C13   C     C_2   0.499627 0.064927 0.441253 0.025440
C14   C     C_2   0.926833 0.508982 0.508500 -0.138487
C15   C     C_2   0.072324 0.487891 0.493701 -0.138692
C16   C     C_R   0.444808 0.266655 0.501236 0.935774
C17   C     C_R   0.499338 0.500028 0.338370 0.905247
C18   C     C_3   0.505113 0.651837 0.952243 0.045399
C19   C     C_3   0.626394 0.450377 0.939577 -0.241394
C20   C     C_3   0.631772 0.462397 0.037134 -0.438551
C21   C     C_1   0.498567 0.503123 0.249758 -0.191442
C22   C     C_3   0.500617 0.513800 0.916711 0.205027
H1    H     H_    0.379672 0.669765 0.076206 0.165487
H2    H     H_    0.382745 0.885566 0.451700 0.182506
H3    H     H_    0.332787 0.086700 0.536474 0.145851
H4    H     H_    0.683442 0.910707 0.472116 0.146809
H5    H     H_    0.108072 0.417992 0.447544 0.162712
H6    H     H_    0.890481 0.576404 0.556331 0.169709
H7    H     H_    0.120108 0.617223 0.577445 0.157358
H8    H     H_    0.606599 0.696345 0.929464 0.177241
H9    H     H_    0.881020 0.386480 0.420255 0.166209
H10   H     H_    0.607229 0.347469 0.928527 0.133888
H11   H     H_    0.717621 0.525902 0.051709 0.181100
H12   H     H_    0.649064 0.369580 0.062963 0.169556
H13   H     H_    0.381821 0.334209 0.933108 0.170037
H14   H     H_    0.283946 0.460714 0.094349 0.163454
N1    N     N_2   0.842720 0.448890 0.465540 -0.192168
N2    N     N_2   0.157250 0.551040 0.534500 -0.197170
O1    O     O_R   0.431050 0.692470 0.506940 -0.609662
O2    O     O_R   0.651130 0.659650 0.484820 -0.609717
O3    O     O_R   0.389910 0.516410 0.633920 -0.614699
O4    O     O_R   0.609990 0.483590 0.611800 -0.607194
O5    O     O_R   0.348870 0.340350 0.515180 -0.611943
O6    O     O_R   0.568950 0.307530 0.493060 -0.596540
O7    O     O_R   0.390010 0.516410 0.388200 -0.616578
O8    O     O_R   0.610090 0.483590 0.366080 -0.595513
Zn1   Zn    Zn3+2 0.353060 0.521920 0.514770 0.926892
Zn2   Zn    Zn3+2 0.646940 0.478080 0.485230 0.949869
C23   C     C_3   0.575560 0.750285 0.089182 -0.944415
H15   H     H_    0.549090 0.756087 0.159815 0.256598
H16   H     H_    0.682556 0.732631 0.074082 0.240878
H17   H     H_    0.562078 0.843615 0.062306 0.248515
C24   C     C_3   0.412024 0.740793 0.917564 -0.951035
H18   H     H_    0.305710 0.720072 0.944087 0.251138
H19   H     H_    0.440390 0.839122 0.935754 0.239162
H20   H     H_    0.422513 0.738300 0.846588 0.254540
C25   C     C_3   0.371311 0.285575 0.089602 -0.976024
H21   H     H_    0.277410 0.233620 0.075301 0.249469
H22   H     H_    0.456793 0.237263 0.056322 0.241382
H23   H     H_    0.371468 0.280019 0.159845 0.251938
C26   C     C_R   0.599002 0.119703 0.370014 0.207117
C27   C     C_R   0.735448 0.139422 0.378346 -0.110646
C28   C     C_R   0.828180 0.184930 0.308808 -0.174264
C29   C     C_R   0.785395 0.210613 0.230771 -0.095001
C30   C     C_R   0.649864 0.190573 0.222169 -0.135674
C31   C     C_R   0.556746 0.145974 0.291570 -0.182660
H24   H     H_    0.769796 0.120596 0.438583 0.114972
H25   H     H_    0.933243 0.200139 0.315395 0.117751
H26   H     H_    0.857262 0.245338 0.176876 0.120047
H27   H     H_    0.616974 0.207997 0.161509 0.127332
H28   H     H_    0.452095 0.129998 0.283844 0.121777
C32   C     C_R   0.760217 0.489204 0.883301 0.162153
C33   C     C_R   0.842079 0.598593 0.898249 -0.155538
C34   C     C_R   0.964258 0.628189 0.846031 -0.145085
C35   C     C_R   0.006489 0.550182 0.777853 -0.131644
C36   C     C_R   0.926542 0.442323 0.761573 -0.124777
C37   C     C_R   0.804735 0.411719 0.813906 -0.145257
H29   H     H_    0.813917 0.661284 0.950427 0.109152
H30   H     H_    0.026602 0.711711 0.858688 0.130052
H31   H     H_    0.101373 0.573179 0.737832 0.137079
H32   H     H_    0.959121 0.382076 0.708448 0.136734
H33   H     H_    0.744618 0.327427 0.799826 0.115073
C38   C     C_3   0.236938 0.467024 0.940544 -0.920328
H34   H     H_    0.197708 0.542780 0.982854 0.235591
H35   H     H_    0.241809 0.495848 0.872640 0.267519
H36   H     H_    0.162230 0.384371 0.952154 0.242623

loop_
_geom_bond_atom_site_label_1
_geom_bond_atom_site_label_2
_ccdc_geom_bond_type
C4    H14   S    
C2    C18   S    
C33   C34   A    
C19   C20   S    
C3    C6    S    
C7    C8    T    
C24   H18   S    
C27   C28   A    
C27   H24   S    
C17   O7    A    
C5    C38   S    
C25   H22   S    
C11   H3    S    
C30   H27   S    
C12   O4    A    
C1    O2    A    
C26   C31   A    
C5    C22   S    
C38   H34   S    
C23   H16   S    
C4    C25   S    
C33   H29   S    
C18   H8    S    
C9    C10   D    
C16   O6    A    
C18   C24   S    
C20   H12   S    
C24   H19   S    
C19   C32   S    
C19   H10   S    
C9    H4    S    
O7    Zn1   S    
O8    Zn2   S    
C34   C35   A    
C19   C22   S    
C1    C9    S    
C36   C37   A    
C4    C5    S    
C25   H23   S    
C10   H2    S    
C6    C21   T    
C17   C21   S    
H9    N1    S    
H7    N2    S    
C35   C36   A    
C15   N2    D    
C32   C37   A    
C2    C23   S    
C11   C16   S    
C15   H5    S    
C31   H28   S    
C8    C12   S    
C23   H17   S    
O3    Zn1   S    
C3    C20   S    
O4    Zn2   S    
C29   H26   S    
C17   O8    A    
N1    Zn2   S    
C16   O5    A    
N2    Zn1   S    
C20   H11   S    
C38   H35   S    
C30   C31   A    
C34   H30   S    
C3    C4    S    
C12   O3    A    
O1    Zn1   S    
C35   H31   S    
C24   H20   S    
O2    Zn2   S    
C28   H25   S    
C18   C22   S    
C32   C33   A    
C10   C13   S    
C36   H32   S    
C7    C22   S    
C29   C30   A    
C2    C3    S    
C14   N1    D    
C11   C13   D    
C25   H21   S    
C37   H33   S    
C5    H13   S    
C26   C27   A    
C1    O1    A    
C28   C29   A    
C38   H36   S    
C13   C26   S    
C23   H15   S    
C2    H1    S    
C14   C15   S    
C14   H6    S    
O5    Zn1   S    
O6    Zn2   S    
