data_mof_unit_61363.cif
_audit_creation_date              2012-12-10T17:00:52-0500
_audit_creation_method            fapswitch 2.2
_symmetry_space_group_name_H-M    P1
_symmetry_Int_Tables_number       1
_space_group_crystal_system       triclinic
_cell_length_a                    12.871244
_cell_length_b                    13.143272
_cell_length_c                    19.434229
_cell_angle_alpha                 100.141541
_cell_angle_beta                  81.301035
_cell_angle_gamma                 91.366454
_cell_volume                      3199.08414279

loop_
_atom_site_label
_atom_site_type_symbol
_atom_type_description
_atom_site_fract_x
_atom_site_fract_y
_atom_site_fract_z
_atom_type_partial_charge
C1    C     C_R   0.222053 0.537224 0.524433 0.542175
C2    C     C_2   0.427222 0.477071 0.984252 -0.082308
C3    C     C_2   0.463331 0.551705 0.030753 -0.100753
C4    C     C_R   0.778232 0.467225 0.476124 0.513824
C5    C     C_R   0.501870 0.496028 0.235844 0.012275
C6    C     C_2   0.892669 0.470210 0.479306 -0.099251
C7    C     C_2   0.952387 0.550682 0.463206 -0.140425
C8    C     C_2   0.108528 0.555382 0.525117 -0.112370
C9    C     C_2   0.067599 0.554682 0.464209 0.020677
C10   C     C_2   0.546198 0.887645 0.529256 -0.075555
C11   C     C_2   0.506540 0.940199 0.486463 -0.138735
C12   C     C_R   0.440082 0.484615 0.908954 0.028767
C13   C     C_2   0.457322 0.109828 0.466308 -0.095665
C14   C     C_2   0.512162 0.053210 0.499145 -0.142699
C15   C     C_R   0.466729 0.222678 0.478657 0.518241
C16   C     C_R   0.533837 0.776312 0.520822 0.514629
C17   C     C_R   0.509011 0.487555 0.309228 0.529124
C18   C     C_R   0.488654 0.511801 0.690629 0.510175
C19   C     C_R   0.474254 0.505433 0.766149 -0.012651
C20   C     C_R   0.506676 0.415631 0.786919 -0.088207
C21   C     C_R   0.489812 0.404123 0.857695 0.282291
C22   C     C_2   0.663548 0.609806 0.088786 0.579105
C23   C     C_R   0.407520 0.574461 0.888215 -0.146066
C24   C     C_2   0.133841 0.565534 0.395962 0.608268
C25   C     C_R   0.423971 0.584607 0.817190 -0.127327
C26   C     C_R   0.399186 0.482764 0.140366 -0.123161
C27   C     C_R   0.410867 0.463996 0.206931 -0.110520
C28   C     C_R   0.582178 0.545091 0.196667 -0.112046
C29   C     C_R   0.572729 0.562721 0.128857 0.074497
C30   C     C_R   0.478973 0.532360 0.100867 0.022937
H1    H     H_    0.544391 0.353574 0.747639 0.191732
H2    H     H_    0.653006 0.568929 0.218946 0.179025
H3    H     H_    0.494068 0.622491 0.013862 0.163306
H4    H     H_    0.369033 0.636643 0.927128 0.133260
H5    H     H_    0.326541 0.460123 0.120169 0.127576
H6    H     H_    0.397580 0.654134 0.802246 0.155205
H7    H     H_    0.404149 0.403306 0.999607 0.189234
H8    H     H_    0.791147 0.701788 0.092747 0.354280
H9    H     H_    0.146942 0.541677 0.289537 0.336912
H10   H     H_    0.626939 0.155559 0.827112 0.379526
H11   H     H_    0.918269 0.610961 0.441834 0.170275
H12   H     H_    0.056474 0.561077 0.575145 0.092419
H13   H     H_    0.927244 0.408934 0.499446 0.120326
H14   H     H_    0.561515 0.090749 0.536890 0.169658
H15   H     H_    0.467176 0.899871 0.443816 0.147928
H16   H     H_    0.406528 0.072787 0.429441 0.120403
H17   H     H_    0.579969 0.927600 0.574541 0.106814
H18   H     H_    0.347085 0.427555 0.236712 0.155153
O1    O     O_3   0.500000 0.500000 0.500000 -0.447787
O2    O     O_R   0.441420 0.437150 0.344000 -0.526260
O3    O     O_R   0.438960 0.578560 0.667440 -0.539817
O4    O     O_R   0.575450 0.541060 0.341470 -0.535753
O5    O     O_R   0.544160 0.443230 0.647100 -0.545736
O6    O     O_2   0.681163 0.589207 0.024243 -0.481948
O7    O     O_R   0.731662 0.675423 0.125457 -0.693306
O8    O     O_2   0.219291 0.608509 0.395027 -0.517241
O9    O     O_R   0.095795 0.529546 0.332392 -0.682933
O10   O     O_2   0.602934 0.318499 0.937667 -0.241397
O11   O     O_2   0.442598 0.228808 0.907143 -0.282799
O12   O     O_R   0.530110 0.266880 0.518530 -0.535872
O13   O     O_3   0.606229 0.217475 0.809759 -0.527158
O14   O     O_R   0.465470 0.738830 0.563940 -0.525397
O15   O     O_R   0.266890 0.467300 0.476120 -0.512541
O16   O     O_R   0.737530 0.526990 0.441410 -0.530541
O17   O     O_R   0.276880 0.592620 0.567490 -0.522431
O18   O     O_R   0.718700 0.413090 0.514970 -0.532590
O19   O     O_R   0.414920 0.276880 0.447500 -0.537455
O20   O     O_R   0.589510 0.717410 0.470040 -0.529709
S1    S     S_3+6 0.535441 0.290078 0.880469 0.015624
Zn1   Zn    Zn3+2 0.571990 0.407410 0.544380 0.954718
Zn2   Zn    Zn3+2 0.407420 0.421690 0.442900 0.989500
Zn3   Zn    Zn3+2 0.598910 0.570150 0.439280 0.973944
Zn4   Zn    Zn3+2 0.421690 0.600750 0.573440 0.972605

loop_
_geom_bond_atom_site_label_1
_geom_bond_atom_site_label_2
_ccdc_geom_bond_type
C17   O2    A    
C27   H18   S    
C3    C30   S    
C1    O17   A    
O2    Zn2   S    
O14   Zn4   S    
C6    C7    D    
O4    Zn3   S    
C22   C29   S    
C24   O8    D    
C1    C8    S    
C15   O12   A    
C4    O16   A    
C19   C20   A    
C2    H7    S    
C8    H12   S    
O12   Zn1   S    
O20   Zn3   S    
C23   H4    S    
C2    C12   S    
C23   C25   A    
C2    C3    D    
C22   O7    S    
C15   O19   A    
C9    C24   S    
C10   C16   S    
C13   C14   D    
C4    O18   A    
H10   O13   S    
C12   C23   A    
C26   C27   A    
O18   Zn1   S    
C16   O14   A    
O11   S1    D    
C16   O20   A    
O5    Zn1   S    
C1    O15   A    
C17   O4    A    
C14   H14   S    
C28   C29   A    
O15   Zn2   S    
C18   O3    A    
C26   C30   A    
O19   Zn2   S    
O1    Zn1   S    
C13   C15   S    
C13   H16   S    
C19   C25   A    
C11   C14   S    
O1    Zn4   S    
C11   H15   S    
C4    C6    S    
C5    C17   S    
C10   C11   D    
C3    H3    S    
C25   H6    S    
C29   C30   A    
C5    C28   A    
C26   H5    S    
C28   H2    S    
O17   Zn4   S    
C20   C21   A    
C22   O6    D    
C18   C19   S    
O1    Zn2   S    
O13   S1    S    
C10   H17   S    
C7    C9    S    
O10   S1    D    
C6    H13   S    
C24   O9    S    
C7    H11   S    
C18   O5    A    
C5    C27   A    
C12   C21   A    
C20   H1    S    
H8    O7    S    
O3    Zn4   S    
O16   Zn3   S    
C21   S1    S    
C8    C9    D    
O1    Zn3   S    
H9    O9    S    
