data_mof_unit_66309.cif
_audit_creation_date              2013-03-05T15:48:21-0500
_audit_creation_method            fapswitch 2.2
_symmetry_space_group_name_H-M    P1
_symmetry_Int_Tables_number       1
_space_group_crystal_system       triclinic
_cell_length_a                    22.021522
_cell_length_b                    21.918717
_cell_length_c                    39.026648
_cell_angle_alpha                 89.999855
_cell_angle_beta                  90.000094
_cell_angle_gamma                 89.533423
_cell_volume                      18836.8947999

loop_
_atom_site_label
_atom_site_type_symbol
_atom_site_description
_atom_site_fract_x
_atom_site_fract_y
_atom_site_fract_z
_atom_type_partial_charge
O1    O     O_R   0.552090 0.090090 0.500110 -0.548571
O2    O     O_R   0.909910 0.552090 0.500110 -0.536576
O3    O     O_R   0.447910 0.909910 0.500110 -0.548566
O4    O     O_R   0.090090 0.447910 0.500110 -0.536575
O5    O     O_R   0.552090 0.909910 0.499890 -0.536105
O6    O     O_R   0.909910 0.447910 0.499890 -0.567565
O7    O     O_R   0.447910 0.090090 0.499890 -0.536103
O8    O     O_R   0.090090 0.552090 0.499890 -0.567567
O9    O     O_R   0.052090 0.590090 0.000110 -0.531632
O10   O     O_R   0.409910 0.052090 0.000110 -0.569563
O11   O     O_R   0.947910 0.409910 0.000110 -0.531621
O12   O     O_R   0.590090 0.947910 0.000110 -0.569566
O13   O     O_R   0.052090 0.409910 0.999890 -0.534945
O14   O     O_R   0.409910 0.947910 0.999890 -0.542779
O15   O     O_R   0.947910 0.590090 0.999890 -0.534947
O16   O     O_R   0.590090 0.052090 0.999890 -0.542781
C1    C     C_R   0.499179 0.118837 0.498590 0.793922
C2    C     C_R   0.881213 0.500591 0.501356 0.822655
C3    C     C_R   0.500821 0.881164 0.498590 0.793918
C4    C     C_R   0.118787 0.499409 0.501356 0.822656
C5    C     C_R   0.999759 0.618455 0.999972 0.759033
C6    C     C_R   0.381332 0.999867 0.998758 0.831977
C7    C     C_R   0.000241 0.381545 0.999973 0.759042
C8    C     C_R   0.618668 0.000133 0.998758 0.831975
O17   O     O_R   0.552090 0.999930 0.450180 -0.519862
O18   O     O_R   0.000070 0.552090 0.450180 -0.530406
O19   O     O_R   0.447910 0.000070 0.450180 -0.519860
O20   O     O_R   0.999930 0.447910 0.450180 -0.530409
O21   O     O_R   0.552090 0.000070 0.549820 -0.525141
O22   O     O_R   0.000070 0.447910 0.549820 -0.522070
O23   O     O_R   0.447910 0.999930 0.549820 -0.525142
O24   O     O_R   0.999930 0.552090 0.549820 -0.522068
O25   O     O_R   0.052090 0.499930 0.950180 -0.521305
O26   O     O_R   0.500070 0.052090 0.950180 -0.524426
O27   O     O_R   0.947910 0.500070 0.950180 -0.521304
O28   O     O_R   0.499930 0.947910 0.950180 -0.524428
O29   O     O_R   0.052090 0.500070 0.049820 -0.520201
O30   O     O_R   0.500070 0.947910 0.049820 -0.530318
O31   O     O_R   0.947910 0.499930 0.049820 -0.520215
O32   O     O_R   0.499930 0.052090 0.049820 -0.530319
C9    C     C_R   0.500000 0.000000 0.433617 1.013532
C10   C     C_R   0.000000 0.500000 0.433669 0.901598
C11   C     C_R   0.500000 0.999999 0.566071 0.900653
C12   C     C_R   1.000000 0.500000 0.566360 1.015072
C13   C     C_R   1.000000 0.499999 0.934041 0.897003
C14   C     C_R   0.500001 0.000000 0.933688 0.999134
C15   C     C_R   0.000000 0.500000 0.065961 0.896052
C16   C     C_R   0.500000 1.000000 0.066295 0.917024
Cu1   Cu    Cu3+1 0.561710 0.000000 0.500000 1.254711
Cu2   Cu    Cu3+1 1.000000 0.561710 0.500000 1.242422
Cu3   Cu    Cu3+1 0.438290 0.000000 0.500000 1.254711
Cu4   Cu    Cu3+1 1.000000 0.438290 0.500000 1.242422
Cu5   Cu    Cu3+1 0.061710 0.500000 0.000000 1.262903
Cu6   Cu    Cu3+1 0.500000 0.061710 0.000000 1.240956
Cu7   Cu    Cu3+1 0.938290 0.500000 0.000000 1.262901
Cu8   Cu    Cu3+1 0.500000 0.938290 0.000000 1.240954
Cu9   Cu    Cu3+1 0.500000 0.500000 0.534330 1.226106
Cu10  Cu    Cu3+1 0.500000 0.500000 0.465670 1.225699
Cu11  Cu    Cu3+1 1.000000 0.000000 0.034330 1.226779
Cu12  Cu    Cu3+1 1.000000 0.000000 0.965670 1.214329
C17   C     C_R   0.444867 0.992467 0.375822 0.382607
C18   C     C_R   0.015455 0.446265 0.376452 0.381144
C19   C     C_R   0.555133 0.007535 0.375822 0.382603
C20   C     C_R   0.984549 0.553730 0.376450 0.381143
C21   C     C_R   0.452336 0.971887 0.622614 0.332821
C22   C     C_R   0.016962 0.553022 0.623822 0.372585
C23   C     C_R   0.547666 0.028102 0.622615 0.332848
C24   C     C_R   0.983038 0.446975 0.623822 0.372584
C25   C     C_R   0.955756 0.533856 0.877892 0.323685
C26   C     C_R   0.520620 0.947997 0.876446 0.366434
C27   C     C_R   0.044241 0.466136 0.877893 0.323657
C28   C     C_R   0.479382 0.052003 0.876445 0.366436
C29   C     C_R   0.956525 0.465889 0.122110 0.322099
C30   C     C_R   0.513711 0.054091 0.123432 0.375896
C31   C     C_R   0.043484 0.534090 0.122111 0.322178
C32   C     C_R   0.486289 0.945909 0.123432 0.375897
C33   C     C_R   0.445492 0.991877 0.339850 0.324782
C34   C     C_R   0.017622 0.447229 0.340458 0.340292
C35   C     C_R   0.554508 0.008125 0.339850 0.324783
C36   C     C_R   0.982382 0.552762 0.340456 0.340292
C37   C     C_R   0.451337 0.973899 0.658570 0.361754
C38   C     C_R   0.019395 0.551818 0.659789 0.326369
C39   C     C_R   0.548665 0.026088 0.658571 0.361747
C40   C     C_R   0.980605 0.448178 0.659788 0.326368
C41   C     C_R   0.954290 0.531874 0.841965 0.364041
C42   C     C_R   0.522200 0.948978 0.840453 0.325557
C43   C     C_R   0.045706 0.468115 0.841966 0.364036
C44   C     C_R   0.477800 0.051019 0.840452 0.325557
C45   C     C_R   0.954930 0.467933 0.158043 0.365226
C46   C     C_R   0.513676 0.053632 0.159407 0.335698
C47   C     C_R   0.045084 0.532035 0.158044 0.365280
C48   C     C_R   0.486325 0.946367 0.159407 0.335699
C49   C     C_R   0.500000 0.000001 0.321925 -0.254154
C50   C     C_R   0.000001 0.499995 0.322182 -0.258104
C51   C     C_R   0.500000 0.999994 0.676811 -0.262028
C52   C     C_R   0.000000 0.499998 0.678029 -0.251986
C53   C     C_R   0.999999 0.499994 0.823638 -0.260989
C54   C     C_R   0.499999 0.999998 0.822260 -0.254134
C55   C     C_R   0.000006 0.499984 0.176417 -0.259932
C56   C     C_R   0.500000 1.000000 0.177351 -0.256173
C57   C     C_R   0.500000 0.000001 0.394706 -0.222133
C58   C     C_R   0.000001 0.499999 0.395183 -0.294081
C59   C     C_R   0.500001 0.999996 0.604209 -0.256469
C60   C     C_R   1.000000 0.499999 0.605060 -0.231899
C61   C     C_R   0.999999 0.499997 0.896125 -0.259675
C62   C     C_R   0.500001 1.000000 0.895136 -0.241550
C63   C     C_R   0.000002 0.499995 0.103880 -0.264355
C64   C     C_R   0.500000 1.000000 0.104711 -0.277727
N1    N     N_R   0.535555 0.960064 0.266682 -0.110586
N2    N     N_R   0.017659 0.549978 0.266350 -0.107394
N3    N     N_R   0.464444 0.039936 0.266682 -0.110586
N4    N     N_R   0.982345 0.450004 0.266352 -0.107395
N5    N     N_R   0.517479 0.050116 0.732492 -0.104924
N6    N     N_R   0.017118 0.449514 0.733787 -0.107246
N7    N     N_R   0.482518 0.949875 0.732493 -0.104918
N8    N     N_R   0.982882 0.550479 0.733787 -0.107246
N9    N     N_R   0.016483 0.449313 0.767862 -0.103550
N10   N     N_R   0.517954 0.049948 0.766579 -0.108492
N11   N     N_R   0.983516 0.550678 0.767863 -0.103554
N12   N     N_R   0.482043 0.950046 0.766580 -0.108492
N13   N     N_R   0.016984 0.550205 0.232272 -0.103030
N14   N     N_R   0.535628 0.960130 0.232601 -0.112560
N15   N     N_R   0.983023 0.449771 0.232275 -0.103025
N16   N     N_R   0.464372 0.039870 0.232600 -0.112560
C65   C     C_R   0.500000 1.000000 0.214998 0.534949
C66   C     C_R   0.000004 0.499986 0.214473 0.517336
C67   C     C_R   0.499998 0.999997 0.784316 0.529179
C68   C     C_R   0.999999 0.499995 0.785638 0.518058
C69   C     C_R   0.000001 0.499997 0.716022 0.528082
C70   C     C_R   0.499999 0.999995 0.714752 0.521536
C71   C     C_R   0.000001 0.499992 0.284138 0.522184
C72   C     C_R   0.500000 0.000000 0.284281 0.543405
C73   C     C_R   0.480421 0.197870 0.433823 0.249156
C74   C     C_R   0.810252 0.468241 0.440811 0.156378
C75   C     C_R   0.519574 0.802130 0.433822 0.249159
C76   C     C_R   0.189749 0.531761 0.440812 0.156380
C77   C     C_R   0.512418 0.806869 0.562192 0.149701
C78   C     C_R   0.804333 0.544756 0.562002 0.231484
C79   C     C_R   0.487596 0.193129 0.562193 0.149691
C80   C     C_R   0.195667 0.455244 0.562002 0.231483
C81   C     C_R   0.025194 0.693562 0.937382 0.155425
C82   C     C_R   0.305239 0.943944 0.941780 0.221647
C83   C     C_R   0.974794 0.306439 0.937384 0.155432
C84   C     C_R   0.694762 0.056061 0.941782 0.221644
C85   C     C_R   0.029920 0.307184 0.062383 0.153870
C86   C     C_R   0.310532 0.043477 0.057557 0.168824
C87   C     C_R   0.970103 0.692810 0.062385 0.153806
C88   C     C_R   0.689467 0.956520 0.057556 0.168828
C89   C     C_R   0.463876 0.234636 0.405579 0.199407
C90   C     C_R   0.788080 0.420077 0.420436 0.182326
C91   C     C_R   0.536116 0.765364 0.405578 0.199407
C92   C     C_R   0.211921 0.579926 0.420437 0.182325
C93   C     C_R   0.487278 0.779353 0.591742 0.194910
C94   C     C_R   0.768775 0.574423 0.587145 0.187449
C95   C     C_R   0.512743 0.220644 0.591742 0.194924
C96   C     C_R   0.231225 0.425578 0.587146 0.187450
C97   C     C_R   0.007528 0.722767 0.906582 0.198054
C98   C     C_R   0.271144 0.903981 0.920987 0.178477
C99   C     C_R   0.992455 0.277234 0.906583 0.198039
C100  C     C_R   0.728856 0.096029 0.920991 0.178476
C101  C     C_R   0.014663 0.278562 0.093629 0.196727
C102  C     C_R   0.286974 0.094234 0.075630 0.176847
C103  C     C_R   0.985380 0.721426 0.093628 0.196781
C104  C     C_R   0.713024 0.905762 0.075629 0.176841
C105  C     C_R   0.439522 0.292257 0.411479 0.273095
C106  C     C_R   0.732906 0.392699 0.429165 0.300338
C107  C     C_R   0.560470 0.707743 0.411477 0.273094
C108  C     C_R   0.267095 0.607304 0.429167 0.300340
C109  C     C_R   0.449712 0.728308 0.588068 0.300762
C110  C     C_R   0.711008 0.595089 0.578797 0.285740
C111  C     C_R   0.550305 0.271692 0.588065 0.300764
C112  C     C_R   0.288992 0.404913 0.578798 0.285736
C113  C     C_R   0.969891 0.774720 0.907995 0.296152
C114  C     C_R   0.215104 0.883368 0.932454 0.295566
C115  C     C_R   0.030094 0.225282 0.907994 0.296161
C116  C     C_R   0.784895 0.116641 0.932459 0.295571
C117  C     C_R   0.977620 0.226833 0.093278 0.291276
C118  C     C_R   0.230939 0.119402 0.065760 0.302986
C119  C     C_R   0.022418 0.773155 0.093275 0.291277
C120  C     C_R   0.769060 0.880595 0.065760 0.302984
C121  C     C_R   0.438643 0.314885 0.444767 0.306500
C122  C     C_R   0.697675 0.416645 0.456157 0.288072
C123  C     C_R   0.561353 0.685115 0.444765 0.306502
C124  C     C_R   0.302325 0.583357 0.456159 0.288066
C125  C     C_R   0.446423 0.698339 0.556313 0.303019
C126  C     C_R   0.686327 0.579752 0.547134 0.291517
C127  C     C_R   0.553586 0.301662 0.556310 0.303011
C128  C     C_R   0.313673 0.420249 0.547135 0.291520
C129  C     C_R   0.958954 0.803477 0.939582 0.307869
C130  C     C_R   0.189513 0.909021 0.961834 0.273995
C131  C     C_R   0.041036 0.196525 0.939581 0.307867
C132  C     C_R   0.810486 0.090983 0.961838 0.273986
C133  C     C_R   0.964609 0.197716 0.062093 0.312966
C134  C     C_R   0.196405 0.090978 0.040072 0.282002
C135  C     C_R   0.035411 0.802281 0.062090 0.312953
C136  C     C_R   0.803595 0.909021 0.040072 0.282008
C137  C     C_R   0.472232 0.284513 0.471172 -0.083606
C138  C     C_R   0.720302 0.465541 0.476472 -0.074941
C139  C     C_R   0.527766 0.715487 0.471171 -0.083605
C140  C     C_R   0.279698 0.534460 0.476473 -0.074944
C141  C     C_R   0.480780 0.720634 0.528216 -0.067981
C142  C     C_R   0.716298 0.537081 0.525156 -0.079613
C143  C     C_R   0.519224 0.279366 0.528216 -0.067985
C144  C     C_R   0.283703 0.462919 0.525157 -0.079612
C145  C     C_R   0.986783 0.779910 0.969678 -0.069908
C146  C     C_R   0.217702 0.958715 0.978583 -0.082058
C147  C     C_R   0.013212 0.220090 0.969678 -0.069909
C148  C     C_R   0.782298 0.041286 0.978585 -0.082060
C149  C     C_R   0.990068 0.220613 0.031173 -0.060364
C150  C     C_R   0.220096 0.039519 0.022171 -0.073771
C151  C     C_R   0.009942 0.779386 0.031172 -0.060369
C152  C     C_R   0.779904 0.960479 0.022171 -0.073772
C153  C     C_R   0.483679 0.221550 0.467556 -0.102973
C154  C     C_R   0.782099 0.479687 0.472884 -0.093696
C155  C     C_R   0.516318 0.778450 0.467555 -0.102972
C156  C     C_R   0.217901 0.520313 0.472885 -0.093692
C157  C     C_R   0.498940 0.781660 0.529567 -0.106167
C158  C     C_R   0.779391 0.527851 0.529720 -0.102675
C159  C     C_R   0.501065 0.218340 0.529567 -0.106160
C160  C     C_R   0.220609 0.472149 0.529720 -0.102677
C161  C     C_R   0.005204 0.718512 0.969057 -0.095731
C162  C     C_R   0.280207 0.967788 0.972767 -0.094671
C163  C     C_R   0.994790 0.281488 0.969058 -0.095724
C164  C     C_R   0.719793 0.032214 0.972769 -0.094665
C165  C     C_R   0.008177 0.281930 0.031221 -0.098902
C166  C     C_R   0.282346 0.026642 0.026273 -0.096677
C167  C     C_R   0.991833 0.718068 0.031221 -0.098881
C168  C     C_R   0.717654 0.973356 0.026273 -0.096680
C169  C     C_R   0.498254 0.314609 0.499838 0.032820
C170  C     C_R   0.685598 0.500780 0.500325 0.018464
C171  C     C_R   0.501746 0.685391 0.499837 0.032821
C172  C     C_R   0.314402 0.499219 0.500325 0.018464
C173  C     C_R   0.998867 0.813317 0.000350 0.040786
C174  C     C_R   0.185998 0.000228 0.000343 0.010374
C175  C     C_R   0.001134 0.186683 0.000350 0.040785
C176  C     C_R   0.814002 0.999771 0.000344 0.010373
C177  C     C_R   0.495428 0.186526 0.498104 0.019419
C178  C     C_R   0.813720 0.502933 0.501637 0.019441
C179  C     C_R   0.504573 0.813474 0.498103 0.019419
C180  C     C_R   0.186280 0.497067 0.501637 0.019441
C181  C     C_R   0.999111 0.685274 0.000078 0.023853
C182  C     C_R   0.314100 0.998588 0.998786 0.021403
C183  C     C_R   0.000889 0.314726 0.000079 0.023841
C184  C     C_R   0.685899 0.001412 0.998786 0.021405
O33   O     O_R   0.590060 0.499930 0.529020 -0.549287
O34   O     O_R   0.500070 0.590060 0.529020 -0.538967
O35   O     O_R   0.409940 0.500070 0.529020 -0.549287
O36   O     O_R   0.499930 0.409940 0.529020 -0.538964
O37   O     O_R   0.590060 0.500070 0.470980 -0.530822
O38   O     O_R   0.500070 0.409940 0.470980 -0.552779
O39   O     O_R   0.409940 0.499930 0.470980 -0.530824
O40   O     O_R   0.499930 0.590060 0.470980 -0.552781
O41   O     O_R   0.090060 0.999930 0.029020 -0.537639
O42   O     O_R   0.000070 0.090060 0.029020 -0.544765
O43   O     O_R   0.909940 0.000070 0.029020 -0.537637
O44   O     O_R   0.999930 0.909940 0.029020 -0.544759
O45   O     O_R   0.090060 0.000070 0.970980 -0.548315
O46   O     O_R   0.000070 0.909940 0.970980 -0.549531
O47   O     O_R   0.909940 0.999930 0.970980 -0.548315
O48   O     O_R   0.999930 0.090060 0.970980 -0.549534
C185  C     C_R   0.618728 0.499464 0.500032 0.915830
C186  C     C_R   0.499150 0.618653 0.500031 0.928740
C187  C     C_R   0.381271 0.500535 0.500032 0.915828
C188  C     C_R   0.500850 0.381346 0.500031 0.928741
C189  C     C_R   0.118825 0.001277 0.000091 0.902278
C190  C     C_R   0.000518 0.119070 0.000077 0.930453
C191  C     C_R   0.881174 0.998722 0.000091 0.902277
C192  C     C_R   0.999482 0.880929 0.000077 0.930459
Cl1   Cl    Cl    0.372870 0.984318 0.395718 -0.286526
Cl2   Cl    Cl    0.036200 0.376763 0.396850 -0.284998
Cl3   Cl    Cl    0.627130 0.015685 0.395718 -0.286530
Cl4   Cl    Cl    0.963804 0.623234 0.396846 -0.284996
Cl5   Cl    Cl    0.394164 0.931103 0.601393 -0.382653
Cl6   Cl    Cl    0.036417 0.622730 0.603552 -0.296270
Cl7   Cl    Cl    0.605843 0.068880 0.601396 -0.382618
Cl8   Cl    Cl    0.963582 0.377269 0.603551 -0.296272
Cl9   Cl    Cl    0.903067 0.581743 0.899564 -0.394429
Cl10  Cl    Cl    0.546342 0.880285 0.896957 -0.299748
Cl11  Cl    Cl    0.096928 0.418249 0.899566 -0.394451
Cl12  Cl    Cl    0.453663 0.119716 0.896955 -0.299741
Cl13  Cl    Cl    0.905021 0.417600 0.100405 -0.395336
Cl14  Cl    Cl    0.534241 0.123423 0.103233 -0.286917
Cl15  Cl    Cl    0.094993 0.582378 0.100409 -0.395273
Cl16  Cl    Cl    0.465760 0.876576 0.103233 -0.286915
Cl17  Cl    Cl    0.377271 0.978501 0.316987 -0.307883
Cl18  Cl    Cl    0.046647 0.382210 0.318639 -0.301208
Cl19  Cl    Cl    0.622728 0.021501 0.316987 -0.307886
Cl20  Cl    Cl    0.953358 0.617780 0.318635 -0.301208
Cl21  Cl    Cl    0.386784 0.945679 0.680367 -0.295984
Cl22  Cl    Cl    0.050396 0.615345 0.681661 -0.305570
Cl23  Cl    Cl    0.613218 0.054304 0.680369 -0.295978
Cl24  Cl    Cl    0.949605 0.384651 0.681660 -0.305570
Cl25  Cl    Cl    0.892574 0.567626 0.820576 -0.294610
Cl26  Cl    Cl    0.555541 0.886422 0.818356 -0.309068
Cl27  Cl    Cl    0.107421 0.432359 0.820578 -0.294615
Cl28  Cl    Cl    0.444459 0.113575 0.818355 -0.309068
Cl29  Cl    Cl    0.893775 0.431980 0.179310 -0.295029
Cl30  Cl    Cl    0.533944 0.120433 0.182199 -0.307352
Cl31  Cl    Cl    0.106247 0.567973 0.179313 -0.295005
Cl32  Cl    Cl    0.466056 0.879566 0.182199 -0.307351
N17   N     N_R   0.497665 0.199415 0.625395 0.194898
O49   O     O_R   0.443301 0.208755 0.637450 -0.180212
O50   O     O_R   0.539961 0.178822 0.645682 -0.210764
N18   N     N_R   0.792170 0.584292 0.621053 0.213260
O51   O     O_R   0.811795 0.538402 0.639208 -0.220510
O52   O     O_R   0.796710 0.639334 0.633218 -0.179863
N19   N     N_R   0.502372 0.800576 0.625395 0.194893
O53   O     O_R   0.556751 0.791256 0.637436 -0.180199
O54   O     O_R   0.460087 0.821162 0.645692 -0.210772
N20   N     N_R   0.207830 0.415709 0.621054 0.213259
O55   O     O_R   0.188204 0.461600 0.639208 -0.220512
O56   O     O_R   0.203290 0.360667 0.633219 -0.179866
N21   N     N_R   0.532838 0.789231 0.371290 0.207671
O57   O     O_R   0.482851 0.814456 0.360259 -0.216718
O58   O     O_R   0.581043 0.790459 0.352030 -0.186989
N22   N     N_R   0.822744 0.397289 0.391954 0.207555
O59   O     O_R   0.797791 0.391319 0.361933 -0.180021
O60   O     O_R   0.880069 0.384146 0.395778 -0.268895
N23   N     N_R   0.467151 0.210769 0.371291 0.207672
O61   O     O_R   0.517138 0.185544 0.360259 -0.216722
O62   O     O_R   0.418945 0.209540 0.352033 -0.186988
N24   N     N_R   0.177257 0.602715 0.391955 0.207556
O63   O     O_R   0.202212 0.608686 0.361934 -0.180018
O64   O     O_R   0.119932 0.615857 0.395779 -0.268887
N25   N     N_R   0.962252 0.699167 0.125551 0.197915
O65   O     O_R   0.904646 0.704447 0.132467 -0.172601
O66   O     O_R   0.999184 0.678139 0.148817 -0.224679
N26   N     N_R   0.321080 0.121881 0.102779 0.210348
O67   O     O_R   0.296185 0.131888 0.132510 -0.177999
O68   O     O_R   0.377747 0.135957 0.098012 -0.244626
N27   N     N_R   0.037811 0.300814 0.125550 0.197864
O69   O     O_R   0.095440 0.295685 0.132418 -0.172598
O70   O     O_R   0.000892 0.321737 0.148849 -0.224541
N28   N     N_R   0.678918 0.878115 0.102777 0.210347
O71   O     O_R   0.703811 0.868107 0.132508 -0.177996
O72   O     O_R   0.622250 0.864040 0.098010 -0.244627
N29   N     N_R   0.971175 0.299060 0.874078 0.197825
O73   O     O_R   0.913997 0.294614 0.866169 -0.171545
O74   O     O_R   0.009433 0.318632 0.851275 -0.218669
N30   N     N_R   0.293389 0.884650 0.888135 0.214968
O75   O     O_R   0.304349 0.924752 0.864389 -0.211581
O76   O     O_R   0.303278 0.827094 0.881953 -0.176246
N31   N     N_R   0.028803 0.700943 0.874077 0.197846
O77   O     O_R   0.085973 0.705426 0.866156 -0.171548
O78   O     O_R   0.990543 0.681345 0.851281 -0.218687
N32   N     N_R   0.706611 0.115364 0.888140 0.214969
O79   O     O_R   0.695653 0.075265 0.864391 -0.211576
O80   O     O_R   0.696721 0.172921 0.881961 -0.176243
N33   N     N_R   0.490466 0.135931 0.427279 0.071899
O81   O     O_R   0.546272 0.118077 0.422731 -0.315993
O82   O     O_R   0.446121 0.107334 0.412562 -0.353484
N34   N     N_R   0.848600 0.514173 0.425617 0.128300
O83   O     O_R   0.851418 0.567991 0.439567 -0.263586
O84   O     O_R   0.863835 0.509923 0.393518 -0.294322
N35   N     N_R   0.509530 0.864069 0.427278 0.071898
O85   O     O_R   0.453723 0.881925 0.422731 -0.315988
O86   O     O_R   0.553875 0.892666 0.412561 -0.353490
N36   N     N_R   0.151401 0.485830 0.425617 0.128297
O87   O     O_R   0.148582 0.432011 0.439567 -0.263589
O88   O     O_R   0.136167 0.490080 0.393517 -0.294323
N37   N     N_R   0.561489 0.849467 0.565518 0.151964
O89   O     O_R   0.610381 0.841351 0.547281 -0.233432
O90   O     O_R   0.563764 0.886921 0.591265 -0.315421
N38   N     N_R   0.864018 0.527910 0.571241 0.085274
O91   O     O_R   0.875271 0.470345 0.576270 -0.335236
O92   O     O_R   0.897633 0.568942 0.585792 -0.328909
N39   N     N_R   0.438526 0.150531 0.565523 0.151949
O93   O     O_R   0.389632 0.158643 0.547287 -0.233443
O94   O     O_R   0.436252 0.113083 0.591273 -0.315431
N40   N     N_R   0.135982 0.472090 0.571241 0.085275
O95   O     O_R   0.124729 0.529654 0.576270 -0.335237
O96   O     O_R   0.102367 0.431058 0.585792 -0.328911
N41   N     N_R   0.072389 0.647920 0.936833 0.155759
O97   O     O_R   0.119711 0.654925 0.956376 -0.220364
O98   O     O_R   0.075380 0.608227 0.912142 -0.307158
N42   N     N_R   0.361811 0.964863 0.929066 0.098145
O99   O     O_R   0.368708 0.023051 0.924239 -0.334216
O100  O     O_R   0.398186 0.926349 0.913965 -0.316839
N43   N     N_R   0.927600 0.352081 0.936838 0.155775
O101  O     O_R   0.880278 0.345072 0.956381 -0.220347
O102  O     O_R   0.924609 0.391781 0.912151 -0.307158
N44   N     N_R   0.638190 0.035142 0.929067 0.098149
O103  O     O_R   0.631294 0.976954 0.924239 -0.334220
O104  O     O_R   0.601814 0.073656 0.913966 -0.316830
N45   N     N_R   0.076809 0.352362 0.061847 0.157248
O105  O     O_R   0.123394 0.344201 0.041791 -0.219116
O106  O     O_R   0.080528 0.392798 0.086102 -0.302631
N46   N     N_R   0.351014 0.000937 0.074626 0.121354
O107  O     O_R   0.354959 0.944985 0.063656 -0.280836
O108  O     O_R   0.368045 0.011107 0.105998 -0.306958
N47   N     N_R   0.923206 0.647639 0.061855 0.157209
O109  O     O_R   0.876625 0.655798 0.041796 -0.219141
O110  O     O_R   0.919472 0.607224 0.086121 -0.302596
N48   N     N_R   0.648985 0.999061 0.074626 0.121355
O111  O     O_R   0.645042 0.055012 0.063657 -0.280839
O112  O     O_R   0.631954 0.988889 0.105997 -0.306958
Cl33  Cl    Cl    0.410435 0.336606 0.377269 -0.295201
Cl34  Cl    Cl    0.707988 0.328016 0.406107 -0.298268
Cl35  Cl    Cl    0.589555 0.663394 0.377267 -0.295202
Cl36  Cl    Cl    0.292013 0.671988 0.406110 -0.298272
Cl37  Cl    Cl    0.412168 0.697834 0.624149 -0.273055
Cl38  Cl    Cl    0.668279 0.638558 0.608644 -0.302354
Cl39  Cl    Cl    0.587857 0.302164 0.624144 -0.273054
Cl40  Cl    Cl    0.331721 0.361444 0.608646 -0.302350
Cl41  Cl    Cl    0.940794 0.806950 0.869844 -0.274142
Cl42  Cl    Cl    0.175070 0.827576 0.908954 -0.326615
Cl43  Cl    Cl    0.059183 0.193051 0.869841 -0.274138
Cl44  Cl    Cl    0.824929 0.172437 0.908963 -0.326637
Cl45  Cl    Cl    0.951739 0.195443 0.132283 -0.272535
Cl46  Cl    Cl    0.204052 0.187012 0.085667 -0.299797
Cl47  Cl    Cl    0.048323 0.804526 0.132280 -0.272525
Cl48  Cl    Cl    0.795946 0.812984 0.085667 -0.299766
Cl49  Cl    Cl    0.383069 0.371096 0.453340 -0.443580
Cl50  Cl    Cl    0.633599 0.374425 0.468111 -0.514190
Cl51  Cl    Cl    0.616928 0.628905 0.453338 -0.443571
Cl52  Cl    Cl    0.366400 0.625578 0.468115 -0.514198
Cl53  Cl    Cl    0.390283 0.641858 0.551194 -0.442333
Cl54  Cl    Cl    0.627274 0.627139 0.533109 -0.502810
Cl55  Cl    Cl    0.609723 0.358146 0.551189 -0.442352
Cl56  Cl    Cl    0.372727 0.372861 0.533111 -0.502801
Cl57  Cl    Cl    0.898844 0.857453 0.941685 -0.413498
Cl58  Cl    Cl    0.132861 0.867016 0.981998 -0.521382
Cl59  Cl    Cl    0.101149 0.142552 0.941681 -0.413483
Cl60  Cl    Cl    0.867137 0.132986 0.982005 -0.521379
Cl61  Cl    Cl    0.904465 0.144664 0.062160 -0.386814
Cl62  Cl    Cl    0.131930 0.130498 0.025813 -0.535998
Cl63  Cl    Cl    0.095546 0.855343 0.062153 -0.386848
Cl64  Cl    Cl    0.868073 0.869502 0.025816 -0.535978

loop_
_geom_bond_atom_site_label_1
_geom_bond_atom_site_label_2
_geom_bond_distance
_ccdc_geom_bond_type
N24   O64   1.301125 A    
C31   C63   1.411851 A    
C172  C187  1.473124 S    
O25   C13   1.308627 A    
C99   N29   1.433191 S    
Cu9   O35   1.994046 S    
N29   O73   1.300877 A    
C162  C182  1.432521 A    
C45   Cl29  1.772256 S    
C119  C135  1.404859 A    
N17   O49   1.300947 A    
C106  Cl34  1.770203 S    
C43   Cl27  1.772183 S    
C117  C133  1.404859 A    
C45   C55   1.415783 A    
O31   C15   1.308694 A    
O18   Cu2   1.955711 S    
C37   C51   1.411487 A    
C126  C142  1.426873 A    
Cu12  O46   1.984837 S    
C139  C171  1.421693 A    
C76   N36   1.446445 S    
C130  C146  1.417754 A    
C163  C183  1.419883 A    
Cu1   Cu3   2.717894 S    
Cu2   Cu4   2.705206 S    
O3    C3    1.321436 A    
C84   C100  1.414284 A    
C148  C176  1.423452 A    
C78   N38   1.409242 S    
C120  C136  1.406869 A    
N11   C68   1.356661 A    
C78   C94   1.410873 A    
C175  C190  1.482194 S    
O44   C192  1.296311 A    
C170  C185  1.473124 S    
Cu11  Cu12  2.679566 S    
C76   C156  1.418287 A    
O5    Cu1   1.987710 S    
C75   N35   1.397283 S    
C82   C98   1.414280 A    
C76   C92   1.411931 A    
Cu6   Cu8   2.705206 S    
C90   N22   1.435836 S    
N20   O56   1.301105 A    
Cu11  O43   1.994046 S    
C110  Cl38  1.770716 S    
C15   C63   1.479848 S    
O45   C189  1.301148 A    
N30   O75   1.301223 A    
O17   C9    1.316683 A    
C25   C61   1.412294 A    
N15   C66   1.356714 A    
C105  C121  1.390640 A    
C77   N37   1.439725 S    
C100  N32   1.435250 S    
N22   O59   1.301144 A    
C115  Cl43  1.766109 S    
C156  C180  1.417548 A    
C144  C172  1.427596 A    
C149  C175  1.434045 A    
C22   C38   1.404934 A    
C86   C102  1.412425 A    
N35   O85   1.298895 A    
C168  C184  1.418063 A    
N34   O83   1.301142 A    
N1    C72   1.356425 A    
C77   C93   1.416209 A    
N2    C71   1.356629 A    
C136  Cl64  1.748118 S    
O38   C188  1.295500 A    
C18   Cl2   1.775331 S    
C81   C97   1.414893 A    
C54   C67   1.480831 S    
C171  C186  1.464402 S    
C28   C62   1.424436 A    
O26   Cu6   1.955711 S    
C80   N40   1.409243 S    
C155  C179  1.440261 A    
C158  C178  1.436762 A    
C101  C117  1.402222 A    
O27   C13   1.308623 A    
O8    Cu2   1.993389 S    
C5    C181  1.464555 S    
C169  C188  1.464397 S    
O32   C16   1.310323 A    
O42   C190  1.296311 A    
C118  C134  1.406866 A    
N3    N16   1.330085 A    
C32   Cl16  1.773820 S    
C33   Cl17  1.773760 S    
C74   C154  1.418286 A    
C19   C35   1.403989 A    
C88   C168  1.419769 A    
C26   Cl10  1.774989 S    
O41   C189  1.295021 A    
C159  C177  1.418037 A    
C173  C192  1.482194 S    
O9    C5    1.304966 A    
C85   C101  1.413108 A    
C34   C50   1.410535 A    
C91   C107  1.387333 A    
O11   C7    1.304968 A    
O19   Cu3   1.955821 S    
C96   C112  1.385715 A    
C8    C184  1.481038 S    
N4    C71   1.356628 A    
N9    C68   1.356660 A    
O16   Cu6   1.993389 S    
C89   N23   1.438366 S    
N48   O111  1.301194 A    
O7    Cu3   1.987707 S    
C136  C152  1.422276 A    
C116  C132  1.394023 A    
N26   O68   1.301281 A    
C111  Cl39  1.766772 S    
C77   C157  1.420288 A    
C160  C180  1.436763 A    
C140  C172  1.427450 A    
O6    Cu4   1.993391 S    
O35   C187  1.295546 A    
O39   C187  1.297722 A    
C52   C69   1.482747 S    
N45   O106  1.299785 A    
N23   O62   1.301145 A    
C138  C154  1.405187 A    
C23   C39   1.404106 A    
N33   O81   1.298895 A    
Cu11  O41   1.994044 S    
C106  C122  1.407285 A    
O46   C192  1.301578 A    
N40   O95   1.298776 A    
N12   C67   1.356925 A    
C147  C175  1.429341 A    
O21   Cu1   1.955814 S    
C20   C58   1.425060 A    
C145  C161  1.402625 A    
C103  N25   1.433039 S    
O23   C11   1.310779 A    
C139  C155  1.407975 A    
C154  C178  1.417549 A    
N2    N13   1.330034 A    
C97   N31   1.433176 S    
C134  C150  1.422272 A    
C85   N45   1.436608 S    
C90   C106  1.401527 A    
N38   O91   1.298777 A    
O13   C7    1.304530 A    
C33   C49   1.401920 A    
N25   O66   1.300853 A    
C19   Cl3   1.775715 S    
O2    Cu2   1.996806 S    
C135  Cl63  1.769594 S    
C121  Cl49  1.761566 S    
C133  Cl61  1.769601 S    
N46   O107  1.301194 A    
O7    C1    1.298417 A    
C176  C191  1.479272 S    
O28   C14   1.310682 A    
O26   C14   1.310683 A    
O29   C15   1.308690 A    
C49   C72   1.469135 S    
O30   C16   1.310324 A    
C31   C47   1.403485 A    
O29   Cu5   1.955814 S    
C46   Cl30  1.773388 S    
N18   O52   1.301105 A    
C25   Cl9   1.772996 S    
C150  C166  1.406472 A    
Cu10  O39   1.994071 S    
C53   C68   1.483005 S    
C152  C176  1.428894 A    
C80   C160  1.424609 A    
C55   C66   1.485186 S    
C11   C59   1.488371 S    
C116  Cl44  1.769560 S    
C35   Cl19  1.773756 S    
C36   Cl20  1.774781 S    
N5    C70   1.356949 A    
C21   Cl5   1.773331 S    
C88   C104  1.412422 A    
C89   C105  1.387332 A    
C87   C167  1.420927 A    
N28   O71   1.301141 A    
C174  C189  1.479269 S    
C4    C180  1.486801 S    
C128  C144  1.426877 A    
C27   Cl11  1.772992 S    
C151  C173  1.434050 A    
C28   Cl12  1.774990 S    
O15   Cu7   1.987707 S    
C17   C57   1.431001 A    
C3    C179  1.485424 S    
C120  Cl48  1.770873 S    
N32   O80   1.301027 A    
C40   Cl24  1.774547 S    
C79   C95   1.416209 A    
C41   Cl25  1.772181 S    
C95   N17   1.433265 S    
C94   N18   1.437091 S    
C132  Cl60  1.744164 S    
C131  C147  1.420132 A    
N36   O88   1.300020 A    
C118  Cl46  1.770872 S    
N35   O86   1.298605 A    
O32   Cu6   1.955709 S    
N31   O78   1.300656 A    
C103  C119  1.402187 A    
C122  Cl50  1.756815 S    
N10   C67   1.356926 A    
N29   O74   1.300660 A    
C79   N39   1.439729 S    
N42   O100  1.300235 A    
C25   C41   1.403151 A    
C114  Cl42  1.769561 S    
O18   C10   1.311047 A    
C29   Cl13  1.773063 S    
N47   O110  1.299796 A    
O22   Cu4   1.955710 S    
C112  Cl40  1.770717 S    
C18   C34   1.405689 A    
O23   Cu3   1.955813 S    
Cu9   O34   1.984860 S    
O34   C186  1.293419 A    
C137  C169  1.421692 A    
C148  C164  1.410705 A    
O12   C8    1.311798 A    
C113  Cl41  1.766105 S    
C146  C174  1.423454 A    
O14   C6    1.297413 A    
N14   C65   1.356462 A    
C87   C103  1.413068 A    
Cu9   Cu10  2.679566 S    
O43   C191  1.295016 A    
C146  C162  1.410709 A    
C30   C46   1.404012 A    
C14   C62   1.504551 S    
C140  C156  1.405186 A    
C102  C118  1.401545 A    
N6    N9    1.329930 A    
C102  N26   1.435732 S    
C141  C171  1.425039 A    
O30   Cu8   1.955710 S    
C81   C161  1.420239 A    
C91   N21   1.438368 S    
C21   C59   1.416991 A    
Cu10  O37   1.994068 S    
C47   C55   1.415780 A    
C37   Cl21  1.772369 S    
C34   Cl18  1.774783 S    
C44   C54   1.408832 A    
Cu12  O48   1.984836 S    
C2    C178  1.486801 S    
C18   C58   1.425066 A    
N7    C70   1.356948 A    
C81   N41   1.436830 S    
N44   O103  1.299375 A    
C73   N33   1.397281 S    
C131  Cl59  1.770055 S    
C109  Cl37  1.766775 S    
N43   O101  1.301505 A    
O10   C6    1.311799 A    
C147  C163  1.402621 A    
N37   O90   1.298785 A    
C144  C160  1.413702 A    
N30   O76   1.301029 A    
N41   O98   1.299551 A    
C29   C63   1.411849 A    
C127  C143  1.421124 A    
C141  C157  1.400214 A    
N22   O60   1.301127 A    
C125  C141  1.421122 A    
C130  Cl58  1.744164 S    
O31   Cu7   1.955813 S    
C129  C145  1.420139 A    
N34   O84   1.300017 A    
C157  C179  1.418036 A    
C104  C120  1.401542 A    
C108  Cl36  1.770204 S    
N24   O63   1.301143 A    
O33   C185  1.295548 A    
C32   C64   1.427035 A    
O21   C11   1.310775 A    
C20   C36   1.405694 A    
O22   C12   1.311569 A    
C149  C165  1.405017 A    
Cu9   O36   1.984863 S    
C17   Cl1   1.775713 S    
C92   C108  1.401529 A    
C107  Cl35  1.768491 S    
O13   Cu5   1.987710 S    
N17   O50   1.300502 A    
C23   C59   1.416990 A    
N19   O53   1.301003 A    
C24   C40   1.404929 A    
C22   C60   1.425993 A    
N4    N15   1.330036 A    
C26   C62   1.424437 A    
O3    Cu3   1.984279 S    
N26   O67   1.301140 A    
C98   C114  1.391558 A    
C161  C181  1.419873 A    
C86   C166  1.419770 A    
C134  Cl62  1.748124 S    
C126  Cl54  1.745726 S    
Cu12  O45   1.994068 S    
N27   O69   1.301054 A    
O28   Cu8   1.955710 S    
C21   C37   1.404106 A    
C92   N24   1.435837 S    
C110  C126  1.392271 A    
C138  C170  1.427458 A    
C124  Cl52  1.756817 S    
N48   O112  1.300250 A    
C114  C130  1.394022 A    
C27   C43   1.403153 A    
O4    Cu4   1.996804 S    
C27   C61   1.412293 A    
N6    C69   1.356594 A    
C22   Cl6   1.776080 S    
O9    Cu5   1.984277 S    
C36   C50   1.410537 A    
C6    C182  1.481036 S    
O11   Cu7   1.984279 S    
N45   O105  1.301564 A    
N20   O55   1.301326 A    
C39   Cl23  1.772365 S    
Cu11  O44   1.984863 S    
C86   N46   1.447210 S    
C24   C60   1.425995 A    
N40   O96   1.300072 A    
C83   C99   1.414903 A    
O5    C3    1.298415 A    
C111  C127  1.404768 A    
C165  C183  1.420452 A    
C101  N27   1.433088 S    
C50   C71   1.484706 S    
C42   Cl26  1.773813 S    
C29   C45   1.403491 A    
C115  C131  1.404456 A    
C94   C110  1.385718 A    
C119  Cl47  1.766867 S    
N21   O57   1.301114 A    
C16   C64   1.499275 S    
C105  Cl33  1.768494 S    
C75   C91   1.411514 A    
C117  Cl45  1.766876 S    
N38   O92   1.300074 A    
C121  C137  1.429789 A    
C82   N42   1.420486 S    
C150  C174  1.428890 A    
C23   Cl7   1.773325 S    
N25   O65   1.301192 A    
C42   C54   1.408830 A    
O17   Cu1   1.955820 S    
N21   O58   1.301149 A    
C30   C64   1.427036 A    
N23   O61   1.301114 A    
C152  C168  1.406476 A    
C30   Cl14  1.773820 S    
N46   O108  1.300251 A    
C88   N48   1.447213 S    
C97   C113  1.404042 A    
O14   Cu8   1.993391 S    
N31   O77   1.300859 A    
O2    C2    1.299053 A    
C93   C109  1.404215 A    
Cu10  O40   1.984836 S    
N39   O93   1.301654 A    
C122  C138  1.426234 A    
C19   C57   1.431000 A    
C123  Cl51  1.761569 S    
C12   C60   1.510335 S    
N47   O109  1.301560 A    
C104  N28   1.435735 S    
O8    C4    1.313042 A    
C48   Cl32  1.773388 S    
Cu12  O47   1.994071 S    
C35   C49   1.401920 A    
C153  C177  1.440260 A    
C83   C163  1.420238 A    
N28   O72   1.301278 A    
N1    N14   1.330085 A    
N43   O102  1.299550 A    
C74   C90   1.411929 A    
C31   Cl15  1.773070 S    
C166  C182  1.418064 A    
C40   C52   1.409668 A    
O20   C10   1.311039 A    
C38   Cl22  1.774547 S    
C84   N44   1.420491 S    
C75   C155  1.417127 A    
N8    C69   1.356594 A    
O36   C188  1.293422 A    
C108  C124  1.407282 A    
C142  C158  1.413701 A    
C47   Cl31  1.772261 S    
C20   Cl4   1.775326 S    
C9    C57   1.518542 S    
C41   C53   1.414777 A    
C142  C170  1.427594 A    
O16   C8    1.297412 A    
C99   C115  1.404050 A    
Cu11  O42   1.984860 S    
C100  C116  1.391559 A    
C83   N43   1.436826 S    
C10   C58   1.501983 S    
C46   C56   1.403140 A    
C28   C44   1.405288 A    
Cu5   Cu7   2.717894 S    
O25   Cu5   1.955820 S    
O6    C2    1.313043 A    
C98   N30   1.435248 S    
C107  C123  1.390640 A    
C38   C52   1.409668 A    
O27   Cu7   1.955821 S    
C56   C65   1.469267 S    
C73   C89   1.411513 A    
Cu9   O33   1.994044 S    
C17   C33   1.403985 A    
C143  C169  1.425039 A    
C164  C184  1.432516 A    
C85   C165  1.420929 A    
C124  C140  1.426232 A    
C123  C139  1.429792 A    
C44   Cl28  1.773813 S    
C135  C151  1.423711 A    
C79   C159  1.420288 A    
C51   C70   1.480698 S    
O19   C9    1.316683 A    
C133  C149  1.423693 A    
C24   Cl8   1.776082 S    
C39   C51   1.411484 A    
O24   C12   1.311572 A    
N27   O70   1.300780 A    
O24   Cu2   1.955709 S    
O12   Cu8   1.996804 S    
C32   C48   1.404012 A    
N18   O51   1.301322 A    
C128  Cl56  1.745729 S    
C80   C96   1.410870 A    
C132  C148  1.417752 A    
C129  Cl57  1.770052 S    
O48   C190  1.301576 A    
Cu10  O38   1.984837 S    
C127  Cl55  1.768021 S    
C26   C42   1.405286 A    
C125  Cl53  1.768022 S    
N42   O99   1.299375 A    
C48   C56   1.403142 A    
C96   N20   1.437088 S    
N44   O104  1.300234 A    
C167  C181  1.420444 A    
C93   N19   1.433284 S    
O4    C4    1.299053 A    
O40   C186  1.295503 A    
N37   O89   1.301654 A    
N8    N11   1.329929 A    
C143  C159  1.400216 A    
C73   C153  1.417129 A    
C145  C173  1.429341 A    
N19   O54   1.300519 A    
C109  C125  1.404778 A    
N13   C66   1.356717 A    
N41   O97   1.301504 A    
O20   Cu4   1.955710 S    
N32   O79   1.301222 A    
O1    Cu1   1.984277 S    
C112  C128  1.392268 A    
O47   C191  1.301153 A    
C113  C129  1.404452 A    
C74   N34   1.446446 S    
N39   O94   1.298782 A    
N36   O87   1.301141 A    
O10   Cu6   1.996806 S    
C84   C164  1.426473 A    
C87   N47   1.436623 S    
N5    N10   1.330355 A    
C95   C111  1.404208 A    
N3    C72   1.356428 A    
O15   C5    1.304531 A    
C137  C153  1.407975 A    
O1    C1    1.321434 A    
C78   C158  1.424607 A    
N33   O82   1.298606 A    
N7    N12   1.330359 A    
C13   C61   1.479758 S    
C151  C167  1.405029 A    
O37   C185  1.297720 A    
C7    C183  1.464559 S    
C82   C162  1.426474 A    
N16   C65   1.356462 A    
C43   C53   1.414780 A    
C1    C177  1.485424 S    
