data_mof_unit_31553.cif
_audit_creation_date              2013-03-05T16:32:00-0500
_audit_creation_method            fapswitch 2.2
_symmetry_space_group_name_H-M    P1
_symmetry_Int_Tables_number       1
_space_group_crystal_system       triclinic
_cell_length_a                    9.64311
_cell_length_b                    10.816628
_cell_length_c                    13.870046
_cell_angle_alpha                 90.625303
_cell_angle_beta                  84.169196
_cell_angle_gamma                 89.294621
_cell_volume                      1439.02639585

loop_
_atom_site_label
_atom_site_type_symbol
_atom_site_description
_atom_site_fract_x
_atom_site_fract_y
_atom_site_fract_z
_atom_type_partial_charge
O1    O     O_R   0.381190 0.680360 0.500000 -0.526415
O2    O     O_R   0.618770 0.680320 0.499990 -0.585571
C1    C     C_R   0.499293 0.737324 0.499893 0.796124
O3    O     O_R   0.364410 0.500000 0.637850 -0.544968
O4    O     O_R   0.602000 0.499960 0.637840 -0.549920
C2    C     C_R   0.476753 0.499832 0.682849 0.862075
Cu1   Cu    Cu3+1 0.359330 0.500020 0.500000 1.052917
Cu2   Cu    Cu3+1 0.640670 0.499980 0.500000 1.017268
O5    O     O_R   0.381230 0.319680 0.500010 -0.569368
O6    O     O_R   0.618810 0.319640 0.500000 -0.575962
O7    O     O_R   0.398000 0.500040 0.362160 -0.547812
O8    O     O_R   0.635590 0.500000 0.362150 -0.551478
C3    C     C_R   0.500775 0.262884 0.499856 0.833496
C4    C     C_R   0.523375 0.500500 0.317162 0.811551
C5    C     C_1   0.538014 0.504745 0.213772 -0.028001
C6    C     C_2   0.549957 0.515727 0.023078 -0.207860
C7    C     C_2   0.445171 0.471421 0.976697 0.263198
C8    C     C_1   0.452952 0.484599 0.872869 -0.015383
C9    C     C_1   0.546335 0.509535 0.126849 0.099745
C10   C     C_1   0.462532 0.493322 0.786133 -0.121411
H1    H     H_    0.637279 0.561685 0.983363 0.143525
C11   C     C_R   0.386277 0.939195 0.542385 0.013423
C12   C     C_R   0.497947 0.870787 0.495859 -0.106837
C13   C     C_R   0.607865 0.933258 0.443682 -0.173784
H2    H     H_    0.693519 0.882366 0.404350 0.173076
C14   C     C_R   0.609236 0.062460 0.443989 -0.125226
H3    H     H_    0.695261 0.109443 0.404474 0.183264
C15   C     C_R   0.501304 0.129704 0.497147 -0.044443
C16   C     C_R   0.389488 0.066765 0.544395 -0.055722
C17   C     C_3   0.327297 0.075196 0.648725 0.426019
C18   C     C_3   0.316699 0.932396 0.644701 0.367677
C19   C     C_R   0.938884 0.459795 0.420946 0.103099
N1    N     N_R   0.852140 0.499070 0.499400 -0.225309
C20   C     C_R   0.913050 0.554853 0.573122 0.283936
C21   C     C_R   0.060614 0.545507 0.577276 0.333157
N2    N     N_R   0.148050 0.499110 0.499400 -0.219510
C22   C     C_R   0.085578 0.462706 0.419664 0.129153
C23   C     C_3   0.100695 0.338505 0.369976 0.061175
C24   C     C_3   0.941406 0.335223 0.373582 0.062961
H4    H     H_    0.146481 0.266874 0.414326 0.155638
H5    H     H_    0.893847 0.262367 0.421850 0.116137
N3    N     N_2   0.332887 0.407260 0.028803 -0.372346
H6    H     H_    0.363314 0.332083 0.067106 0.303479
C25   C     C_3   0.204756 0.391999 0.984324 -0.472100
H7    H     H_    0.126542 0.346306 0.035922 0.276704
H8    H     H_    0.222981 0.333572 0.917869 0.245770
H9    H     H_    0.161951 0.483886 0.966947 0.203807
N4    N     N_2   0.114681 0.577315 0.665452 -0.383573
H10   H     H_    0.079137 0.661066 0.694482 0.284145
C26   C     C_3   0.101270 0.480682 0.737385 -0.598516
H11   H     H_    0.990749 0.462979 0.762766 0.203306
H12   H     H_    0.155444 0.509388 0.800417 0.208698
H13   H     H_    0.149601 0.393115 0.707308 0.298283
N5    N     N_R   0.171298 0.343567 0.271551 0.171066
O9    O     O_R   0.200073 0.241119 0.223325 -0.342422
O10   O     O_R   0.200311 0.448737 0.229918 -0.317394
N6    N     N_R   0.887050 0.337668 0.278613 0.185211
O11   O     O_R   0.816498 0.244330 0.250965 -0.354348
O12   O     O_R   0.900890 0.434616 0.223762 -0.308942
N7    N     N_R   0.425962 0.124230 0.714045 0.080727
O13   O     O_R   0.382910 0.200069 0.784528 -0.350916
O14   O     O_R   0.558886 0.098982 0.699021 -0.374053
N8    N     N_R   0.191302 0.140032 0.660949 0.143020
O15   O     O_R   0.135607 0.184285 0.586776 -0.390545
O16   O     O_R   0.121691 0.148835 0.746264 -0.289564
N9    N     N_2   0.400339 0.863193 0.708470 -0.481114
H14   H     H_    0.505663 0.879248 0.698725 0.260309
C27   C     C_3   0.347176 0.852604 0.809414 -0.506497
H15   H     H_    0.429994 0.814470 0.851167 0.199790
H16   H     H_    0.259133 0.787177 0.816884 0.243315
H17   H     H_    0.313463 0.944395 0.840658 0.272871
N10   N     N_R   0.173307 0.887331 0.646880 0.143653
O17   O     O_R   0.126411 0.844002 0.568646 -0.377595
O18   O     O_R   0.087845 0.900558 0.725194 -0.360036
N11   N     N_2   0.827950 0.620184 0.646879 -0.413971
H18   H     H_    0.834843 0.593321 0.717137 0.234911
C28   C     C_3   0.816458 0.752487 0.635486 -0.494549
H19   H     H_    0.872919 0.800599 0.689952 0.258173
H20   H     H_    0.705798 0.780632 0.649199 0.207899
H21   H     H_    0.856635 0.782084 0.561429 0.249715

loop_
_geom_bond_atom_site_label_1
_geom_bond_atom_site_label_2
_geom_bond_distance
_ccdc_geom_bond_type
C18   N9    1.462085 S    
N9    C27   1.447515 S    
N8    O16   1.301723 A    
C6    H1    1.087030 S    
C11   C16   1.380641 A    
Cu1   N2    2.038404 S    
C1    C12   1.445268 S    
C21   N2    1.386424 A    
Cu1   Cu2   2.712986 S    
C24   H5    1.112470 S    
C28   H19   1.104500 S    
C5    C9    1.201868 T    
C14   H3    1.082068 S    
C22   C23   1.501872 S    
C15   C16   1.392775 A    
C13   C14   1.397722 A    
C6    C9    1.438494 S    
C17   C18   1.550023 S    
O7    C4    1.303130 A    
N6    O12   1.302502 A    
C24   N6    1.466712 S    
N7    O14   1.302647 A    
C20   C21   1.432363 A    
C19   C24   1.491447 S    
O5    C3    1.299369 A    
C7    N3    1.430651 S    
C27   H15   1.111035 S    
C17   N7    1.477979 S    
N2    C22   1.368492 A    
C26   H12   1.106581 S    
C12   C13   1.405808 A    
C3    C15   1.440567 S    
C25   H9    1.109811 S    
C20   N11   1.420812 S    
N4    C26   1.450712 S    
N9    H14   1.028067 S    
C17   N8    1.473080 S    
N3    C25   1.446436 S    
O3    Cu1   1.917584 S    
C21   N4    1.418014 S    
C25   H8    1.109735 S    
C26   H11   1.107575 S    
C28   H20   1.103208 S    
C23   C24   1.532635 S    
N5    O10   1.301988 A    
C26   H13   1.108783 S    
C11   C18   1.509807 S    
C13   H2    1.083309 S    
N10   O18   1.300507 A    
C6    C7    1.342316 D    
N7    O13   1.301011 A    
O1    C1    1.301407 A    
Cu1   O7    1.910332 S    
N11   H18   1.028270 S    
C16   C17   1.510432 S    
C23   N5    1.464200 S    
Cu2   O8    1.917584 S    
C4    C5    1.427909 S    
C7    C8    1.443130 S    
C19   C22   1.413632 A    
N11   C28   1.445621 S    
O3    C2    1.304045 A    
C18   N10   1.469336 S    
O8    C4    1.302862 A    
N3    H6    1.031887 S    
C25   H7    1.110203 S    
C28   H21   1.112223 S    
Cu1   O5    1.959486 S    
N5    O9    1.300365 A    
N4    H10   1.027915 S    
O1    Cu1   1.964606 S    
O2    Cu2   1.959486 S    
N10   O17   1.302096 A    
O6    C3    1.300037 A    
O4    Cu2   1.910331 S    
C2    C10   1.427762 S    
C14   C15   1.403450 A    
C19   N1    1.363992 A    
O2    C1    1.300160 A    
C23   H4    1.109428 S    
N6    O11   1.300269 A    
O4    C2    1.302039 A    
C27   H17   1.110551 S    
N1    C20   1.368182 A    
C8    C10   1.202012 T    
Cu2   N1    2.038303 S    
N8    O15   1.301023 A    
Cu2   O6    1.964606 S    
C27   H16   1.109462 S    
C11   C12   1.397252 A    
