data_mof_unit_62074.cif
_audit_creation_date              2012-12-11T17:11:12-0500
_audit_creation_method            fapswitch 2.2
_symmetry_space_group_name_H-M    P1
_symmetry_Int_Tables_number       1
_space_group_crystal_system       triclinic
_cell_length_a                    8.17828
_cell_length_b                    16.545955
_cell_length_c                    16.47254
_cell_angle_alpha                 108.764938
_cell_angle_beta                  92.98779
_cell_angle_gamma                 82.508419
_cell_volume                      2092.40277191

loop_
_atom_site_label
_atom_site_type_symbol
_atom_type_description
_atom_site_fract_x
_atom_site_fract_y
_atom_site_fract_z
_atom_type_partial_charge
Ba1   Ba    Ba6+2 0.642070 0.542310 0.469620 1.659455
Ba2   Ba    Ba6+2 0.168110 0.457680 0.530320 1.642244
C1    C     C_3   0.798222 0.756063 0.207008 -0.358551
C2    C     C_3   0.817529 0.729330 0.287363 0.345044
C3    C     C_3   0.940734 0.721004 0.699686 0.312329
C4    C     C_3   0.935685 0.818044 0.741661 0.186485
C5    C     C_3   0.478672 0.224322 0.662858 0.353569
C6    C     C_3   0.489885 0.135112 0.671880 -0.357166
C7    C     C_3   0.987202 0.271767 0.715779 0.354399
C8    C     C_3   0.011299 0.246253 0.796769 -0.357181
C9    C     C_2   0.711380 0.248160 0.480849 -0.306394
C10   C     C_R   0.101107 0.751046 0.523922 -0.311233
C11   C     C_2   0.540405 0.137776 0.399623 -0.090767
C12   C     C_3   0.323177 0.774183 0.336969 0.344482
C13   C     C_2   0.562748 0.221446 0.430179 0.068493
C14   C     C_2   0.822916 0.191071 0.502139 0.005944
C15   C     C_3   0.775086 0.103103 0.493578 -0.062684
C16   C     C_3   0.668197 0.068843 0.413438 0.023066
C17   C     C_2   0.913465 0.036410 0.501561 -0.076294
C18   C     C_2   0.878742 0.964880 0.515508 -0.077795
C19   C     C_R   0.155226 0.923054 0.571641 -0.002194
C20   C     C_R   0.007505 0.898496 0.529076 -0.043838
C21   C     C_R   0.272654 0.862758 0.591639 -0.099695
C22   C     C_R   0.244746 0.776511 0.568451 0.069240
C23   C     C_3   0.306172 0.863253 0.327319 -0.360406
C24   C     C_R   0.980468 0.811333 0.505829 0.006460
C25   C     C_R   0.106479 0.533975 0.273165 -0.371078
C26   C     C_R   0.978027 0.485780 0.237353 0.044551
C27   C     C_R   0.935257 0.469994 0.150091 0.330248
C28   C     C_R   0.016726 0.508899 0.100181 0.180918
C29   C     C_R   0.152476 0.552836 0.136875 -0.205859
C30   C     C_R   0.199490 0.563327 0.222374 -0.004778
C31   C     C_R   0.871426 0.521480 0.857704 -0.122482
C32   C     C_R   0.824219 0.514332 0.772995 0.005753
C33   C     C_R   0.784017 0.484279 0.905668 0.249911
C34   C     C_3   0.347231 0.350468 0.262802 0.325447
C35   C     C_R   0.694070 0.468587 0.734802 -0.284440
C36   C     C_R   0.600580 0.435709 0.782289 -0.005723
C37   C     C_R   0.645421 0.443221 0.867704 -0.164734
C38   C     C_3   0.332278 0.326449 0.165717 -0.351777
C39   C     C_3   0.459032 0.650323 0.737848 0.322947
C40   C     C_3   0.473588 0.674893 0.835000 -0.365063
C41   C     C_3   0.867985 0.282128 0.316959 0.309955
C42   C     C_3   0.884455 0.184637 0.275208 0.178579
H1    H     H_    0.755556 0.670714 0.275818 0.091176
H2    H     H_    0.242795 0.278843 0.141273 0.117633
H3    H     H_    0.289231 0.384141 0.146776 0.046761
H4    H     H_    0.454346 0.298310 0.136155 0.151937
H5    H     H_    0.582029 0.625426 0.709412 -0.010991
H6    H     H_    0.375830 0.599630 0.714999 0.064199
H7    H     H_    0.564186 0.721930 0.859187 0.128270
H8    H     H_    0.514927 0.617301 0.854458 0.051864
H9    H     H_    0.351749 0.703978 0.864378 0.140525
H10   H     H_    0.740908 0.305790 0.340266 0.007457
H11   H     H_    0.955990 0.297224 0.371787 0.013489
H12   H     H_    0.665386 0.770522 0.192790 0.149968
H13   H     H_    0.877905 0.153430 0.325012 0.026851
H14   H     H_    0.006894 0.161096 0.244040 0.053468
H15   H     H_    0.951173 0.714239 0.298996 -0.051423
H16   H     H_    0.854539 0.703103 0.151757 0.084566
H17   H     H_    0.066690 0.694266 0.675037 0.021224
H18   H     H_    0.851166 0.709037 0.645335 0.003566
H19   H     H_    0.953308 0.848066 0.691984 0.023666
H20   H     H_    0.812915 0.845819 0.771056 0.049859
H21   H     H_    0.860827 0.814130 0.216280 0.116619
H22   H     H_    0.224747 0.864990 0.271647 0.116291
H23   H     H_    0.402502 0.224715 0.605197 0.094414
H24   H     H_    0.605011 0.237378 0.653965 -0.058082
H25   H     H_    0.365417 0.120440 0.682213 0.152831
H26   H     H_    0.541771 0.086200 0.612689 0.068228
H27   H     H_    0.571172 0.131703 0.727128 0.113226
H28   H     H_    0.852841 0.280921 0.702506 -0.062102
H29   H     H_    0.038296 0.333527 0.727511 0.092602
H30   H     H_    0.948150 0.297423 0.851161 0.076126
H31   H     H_    0.144711 0.237244 0.812474 0.152536
H32   H     H_    0.402999 0.774921 0.393726 0.094336
H33   H     H_    0.958421 0.185341 0.787374 0.116385
H34   H     H_    0.435909 0.117946 0.357860 0.089059
H35   H     H_    0.383103 0.883810 0.626797 0.094803
H36   H     H_    0.735402 0.314132 0.494239 0.070505
H37   H     H_    0.080250 0.684357 0.506679 0.077240
H38   H     H_    0.040632 0.045288 0.494851 0.102200
H39   H     H_    0.750292 0.955487 0.517589 0.103852
H40   H     H_    0.972409 0.557764 0.886450 0.103646
H41   H     H_    0.222212 0.578314 0.098548 0.111137
H42   H     H_    0.198655 0.760134 0.347970 -0.055930
H43   H     H_    0.573093 0.417269 0.904497 0.101803
H44   H     H_    0.141979 0.543130 0.339443 0.090089
H45   H     H_    0.658733 0.463458 0.669251 0.070050
H46   H     H_    0.251319 0.911575 0.386164 0.069803
H47   H     H_    0.429196 0.879939 0.317401 0.147660
H48   H     H_    0.223823 0.374232 0.291197 -0.017769
H49   H     H_    0.429055 0.401850 0.285924 0.065710
N1    N     N_2   0.972315 0.503296 0.013379 -0.236295
N2    N     N_2   0.826268 0.490429 0.992589 -0.205766
O1    O     O_2   0.554430 0.712240 0.583340 -0.465754
O2    O     O_3   0.903280 0.319591 0.255973 -0.626375
O3    O     O_3   0.394468 0.713523 0.262638 -0.600032
O4    O     O_2   0.255890 0.287710 0.416620 -0.470796
O5    O     O_3   0.472550 0.396030 0.437270 -0.508814
O6    O     O_3   0.997190 0.341000 0.573500 -0.483515
O7    O     O_3   0.412853 0.277169 0.283633 -0.599657
O8    O     O_3   0.856110 0.544300 0.605450 -0.479031
O9    O     O_3   0.397490 0.384750 0.623120 -0.491250
O10   O     O_2   0.258602 0.441876 0.777699 -0.482145
O11   O     O_3   0.405754 0.285078 0.736572 -0.597073
O12   O     O_3   0.337760 0.603960 0.562660 -0.505282
O13   O     O_3   0.954190 0.455690 0.394480 -0.503738
O14   O     O_2   0.106750 0.542200 0.705290 -0.456526
O15   O     O_3   0.898515 0.684285 0.760394 -0.657369
O16   O     O_2   0.164014 0.189677 0.492145 -0.504878
O17   O     O_3   0.069949 0.207231 0.647710 -0.598772
O18   O     O_3   0.813110 0.658990 0.426440 -0.494578
O19   O     O_2   0.639377 0.808893 0.508094 -0.503304
O20   O     O_3   0.395895 0.723570 0.716382 -0.599451
O21   O     O_3   0.744690 0.796426 0.356728 -0.600265
O22   O     O_2   0.703570 0.457750 0.294670 -0.433908
O23   O     O_3   0.412810 0.615240 0.376810 -0.497927
O24   O     O_2   0.542222 0.556219 0.220527 -0.445731
P1    P     P_3+3 0.385820 0.698700 0.604730 0.999177
P2    P     P_3+3 0.884390 0.431600 0.301750 1.042720
P3    P     P_3+3 0.387797 0.610504 0.269313 0.966245
P4    P     P_3+3 0.424480 0.301290 0.395200 1.000796
P5    P     P_3+3 0.415186 0.388185 0.730799 0.955617
P6    P     P_3+3 0.792413 0.770449 0.450893 0.937915
P7    P     P_3+3 0.917308 0.572505 0.713387 0.947685
P8    P     P_3+3 0.015817 0.230137 0.552586 0.938326
O25   O     O_3   0.756586 0.161009 0.215503 -0.704744
H50   H     H_    0.785825 0.173102 0.163167 0.327426
O26   O     O_3   0.062107 0.837111 0.803178 -0.700547
H51   H     H_    0.024455 0.827319 0.855198 0.321929
O27   O     O_3   0.821673 0.413213 0.115085 -0.691186
H52   H     H_    0.859509 0.377504 0.056928 0.306156

loop_
_geom_bond_atom_site_label_1
_geom_bond_atom_site_label_2
_ccdc_geom_bond_type
C38   H3    S    
Ba2   O14   S    
C29   H41   S    
C25   H44   S    
C32   C35   A    
C39   C40   S    
C39   H6    S    
C17   C18   D    
C7    H28   S    
C37   H43   S    
O13   P2    S    
C4    O26   S    
O25   H50   S    
C5    C6    S    
Ba2   P4    S    
C38   H2    S    
C6    H25   S    
C27   C28   A    
C13   P4    S    
C11   C16   S    
C26   C27   A    
C40   H9    S    
O23   P3    S    
C28   C29   A    
C27   O27   S    
O18   P6    S    
C3    O15   S    
Ba2   O12   S    
C34   O7    S    
Ba1   Ba2   S    
C1    H12   S    
C4    H20   S    
O8    P7    S    
O22   P2    D    
O17   P8    S    
O2    P2    S    
O6    P8    S    
C5    H24   S    
C11   H34   S    
C9    C13   S    
C34   H49   S    
C42   H14   S    
O27   H52   S    
C10   H37   S    
C21   C22   A    
C17   H38   S    
C7    C8    S    
Ba1   O8    S    
C40   H7    S    
C1    H16   S    
C34   H48   S    
C7    O17   S    
Ba2   O5    S    
C19   C20   A    
C1    H21   S    
Ba1   O18   S    
C39   O20   S    
Ba1   O5    S    
C39   H5    S    
C31   H40   S    
C8    H33   S    
O1    P1    D    
C12   O3    S    
C2    H1    S    
C36   C37   A    
C23   H47   S    
C22   P1    S    
C30   P3    S    
C34   C38   S    
C12   H42   S    
O19   P6    D    
C26   P2    S    
C14   C15   S    
Ba2   O6    S    
O10   P5    D    
C10   C24   A    
C7    H29   S    
C24   P6    S    
C12   H32   S    
C4    H19   S    
C33   C37   A    
C41   C42   S    
C35   C36   A    
C8    H31   S    
C41   H10   S    
C29   C30   A    
Ba2   O9    S    
C42   H13   S    
C32   P7    S    
C15   C16   S    
C23   H46   S    
C5    O11   S    
C3    H17   S    
Ba1   O22   S    
O15   P7    S    
C41   H11   S    
C18   C20   S    
Ba2   O4    S    
O21   P6    S    
C11   C13   D    
O16   P8    D    
C15   C17   S    
O7    P4    S    
O12   P1    S    
O4    P4    D    
O24   P3    D    
O3    P3    S    
C38   H4    S    
C42   O25   S    
C6    H27   S    
C25   C30   A    
C2    O21   S    
C23   H22   S    
C41   O2    S    
O9    P5    S    
C33   N2    S    
C10   C22   A    
C6    H26   S    
C35   H45   S    
O5    P4    S    
C19   C21   A    
O26   H51   S    
C28   N1    S    
C8    H30   S    
C3    C4    S    
Ba2   O8    S    
Ba1   O1    S    
C2    H15   S    
Ba2   O13   S    
C31   C33   A    
C31   C32   A    
C3    H18   S    
Ba1   O23   S    
C12   C23   S    
N1    N2    D    
C14   P8    S    
Ba1   P2    S    
C9    C14   D    
C9    H36   S    
Ba1   O13   S    
C5    H23   S    
Ba1   O12   S    
O14   P7    D    
O20   P1    S    
C20   C24   A    
C18   H39   S    
O11   P5    S    
C25   C26   A    
C21   H35   S    
Ba1   P1    S    
C36   P5    S    
C1    C2    S    
C40   H8    S    
