data_mof_unit_32922.cif
_audit_creation_date              2013-03-05T15:52:14-0500
_audit_creation_method            fapswitch 2.2
_symmetry_space_group_name_H-M    P1
_symmetry_Int_Tables_number       1
_space_group_crystal_system       triclinic
_cell_length_a                    8.430368
_cell_length_b                    17.471656
_cell_length_c                    27.09719
_cell_angle_alpha                 97.478505
_cell_angle_beta                  92.055774
_cell_angle_gamma                 83.96358
_cell_volume                      3934.32405534

loop_
_atom_site_label
_atom_site_type_symbol
_atom_site_description
_atom_site_fract_x
_atom_site_fract_y
_atom_site_fract_z
_atom_type_partial_charge
P1    P     P_3+3 0.078810 0.562990 0.610370 0.504042
O1    O     O_2   0.910880 0.540430 0.617910 -0.366041
O2    O     O_3   0.142880 0.540370 0.557740 -0.356748
O3    O     O_3   0.675650 0.402220 0.588450 -0.407067
O4    O     O_2   0.822175 0.445420 0.673348 -0.401676
O5    O     O_3   0.074708 0.664722 0.623207 -0.587789
O6    O     O_3   0.673888 0.322081 0.672897 -0.465902
H1    H     H_    0.794192 0.274857 0.608250 0.089355
C1    C     C_3   0.727627 0.183376 0.645900 0.107664
H2    H     H_    0.727337 0.140434 0.611859 0.077052
H3    H     H_    0.847107 0.175827 0.663969 0.136158
P2    P     P_3+3 0.645380 0.325580 0.462150 0.452934
P3    P     P_3+3 0.126051 0.262817 0.565287 0.500805
O7    O     O_2   0.823810 0.314230 0.476690 -0.331849
O8    O     O_3   0.086630 0.363340 0.564170 -0.365914
O9    O     O_2   0.996643 0.224587 0.531457 -0.372141
O10   O     O_3   0.658302 0.312244 0.397193 -0.574875
O11   O     O_3   0.092333 0.238052 0.624723 -0.584910
C2    C     C_3   0.119230 0.300295 0.661598 0.812788
H4    H     H_    0.056045 0.355575 0.652547 0.077290
C3    C     C_3   0.061367 0.284806 0.711693 -0.720569
H5    H     H_    0.931562 0.281531 0.710694 0.225450
H6    H     H_    0.122381 0.229578 0.722249 0.294650
C4    C     C_3   0.178072 0.278820 0.379378 1.363101
C5    C     C_3   0.348708 0.275386 0.362824 -1.005658
H7    H     H_    0.394777 0.331768 0.372763 0.287369
H8    H     H_    0.422583 0.230911 0.381183 0.204166
H9    H     H_    0.354079 0.260382 0.321765 0.236249
Ba1   Ba    Ba6+2 0.856110 0.463800 0.523550 1.621168
C6    C     C_3   0.921101 0.704231 0.622233 0.693149
H10   H     H_    0.834268 0.669755 0.600261 0.013879
C7    C     C_3   0.861283 0.732973 0.675323 0.528306
H11   H     H_    0.742584 0.765354 0.670638 0.109608
C8    C     C_3   0.739981 0.239361 0.380917 0.359408
H12   H     H_    0.676789 0.191290 0.390961 -0.103984
H13   H     H_    0.861004 0.234173 0.397775 0.147337
C9    C     C_3   0.751822 0.230163 0.324336 0.216127
H14   H     H_    0.631544 0.221596 0.307632 0.049751
H15   H     H_    0.834379 0.177509 0.312337 0.059282
P4    P     P_3+3 0.110900 0.436950 0.389630 0.550086
O12   O     O_2   0.278810 0.459550 0.382060 -0.382412
O13   O     O_3   0.046820 0.459570 0.442260 -0.325269
O14   O     O_3   0.514050 0.597710 0.411540 -0.361646
O15   O     O_3   0.088738 0.341394 0.360725 -0.580760
P5    P     P_3+3 0.072523 0.738248 0.438582 0.521693
O16   O     O_3   0.627090 0.591350 0.524530 -0.429146
O17   O     O_3   0.103080 0.636600 0.435820 -0.340951
O18   O     O_2   0.208107 0.773074 0.471091 -0.341348
O19   O     O_3   0.106425 0.762696 0.379685 -0.504961
Ba2   Ba    Ba6+2 0.333710 0.536130 0.476450 1.647418
P6    P     P_3+3 0.664080 0.414693 0.653189 0.506796
C10   C     C_3   0.693040 0.265099 0.630914 0.315876
H16   H     H_    0.583150 0.266758 0.607416 0.084617
O20   O     O_3   0.562610 0.408580 0.475460 -0.426832
C11   C     C_3   0.486711 0.655448 0.626353 0.404885
H17   H     H_    0.390966 0.626938 0.604165 0.126340
H18   H     H_    0.587521 0.611031 0.632010 0.097165
C12   C     C_3   0.417939 0.690519 0.676264 -0.902029
H19   H     H_    0.316288 0.734064 0.669926 0.286358
H20   H     H_    0.377021 0.644710 0.695936 0.205825
H21   H     H_    0.507713 0.720387 0.700178 0.281885
P7    P     P_3+3 0.546458 0.688590 0.539449 0.476236
O21   O     O_2   0.365880 0.685750 0.523280 -0.306962
O22   O     O_3   0.541858 0.715082 0.603739 -0.577320
H22   H     H_    0.085770 0.333118 0.740838 0.239538
C13   C     C_3   0.981072 0.739842 0.347575 0.424231
H23   H     H_    0.987223 0.675609 0.341031 0.084913
H24   H     H_    0.863283 0.764631 0.362808 -0.023228
C14   C     C_3   0.997238 0.769861 0.298022 -0.885442
H25   H     H_    0.104898 0.739749 0.278818 0.279437
H26   H     H_    0.890092 0.759256 0.274188 0.250648
H27   H     H_    0.007339 0.833289 0.304072 0.238489
P8    P     P_3+3 0.530953 0.594860 0.346456 0.489397
C15   C     C_3   0.520160 0.738686 0.336881 0.442738
H28   H     H_    0.622049 0.725909 0.311125 0.040837
O23   O     O_2   0.439941 0.526577 0.322159 -0.386187
O24   O     O_3   0.420382 0.678288 0.329567 -0.467227
H29   H     H_    0.565387 0.747368 0.376161 0.052730
H30   H     H_    0.510165 0.860186 0.327608 0.203886
C16   C     C_3   0.427956 0.814118 0.325380 -0.936357
H31   H     H_    0.332694 0.832956 0.352791 0.290331
H32   H     H_    0.374059 0.806373 0.287285 0.259827
C17   C     C_R   0.054189 0.454140 0.180904 0.530438
O25   O     O_2   0.091635 0.397821 0.202746 -0.611017
N1    N     N_R   0.974558 0.520790 0.206045 -0.156444
C18   C     C_R   0.937481 0.585124 0.180830 0.528171
C19   C     C_2   0.779006 0.555820 0.272533 -0.239482
C20   C     C_3   0.748020 0.581452 0.326993 -0.041680
C21   C     C_1   0.994255 0.497198 0.345289 0.230765
C22   C     C_2   0.042339 0.497626 0.298593 -0.275304
C23   C     C_2   0.927334 0.524171 0.258277 0.129570
C24   C     C_R   0.043187 0.513569 0.103382 -0.077354
C25   C     C_R   0.090598 0.450091 0.129602 -0.059537
C26   C     C_R   0.176445 0.384541 0.104057 -0.104538
C27   C     C_R   0.967976 0.581734 0.129493 -0.047151
C28   C     C_2   0.856673 0.535421 0.360433 0.253117
H33   H     H_    0.164465 0.477005 0.288976 0.215283
H34   H     H_    0.223305 0.336332 0.123497 0.172835
C29   C     C_2   0.349744 0.481838 0.640316 -0.409414
C30   C     C_R   0.160017 0.432869 0.971577 -0.168944
C31   C     C_R   0.074412 0.572596 0.974960 0.089919
C32   C     C_R   0.136229 0.501037 0.947663 0.057507
C33   C     C_R   0.191032 0.360640 0.940755 0.329759
C34   C     C_R   0.234148 0.357819 0.890535 0.485431
C35   C     C_R   0.229767 0.426958 0.867790 -0.295320
C36   C     C_R   0.171869 0.497742 0.895920 -0.107401
C37   C     C_R   0.149593 0.565766 0.872367 -0.003392
C38   C     C_R   0.186136 0.563062 0.821562 0.545273
N2    N     N_R   0.248381 0.494728 0.794504 -0.176726
C39   C     C_R   0.274501 0.427707 0.817284 0.612414
C40   C     C_2   0.446278 0.479663 0.728925 -0.054565
C41   C     C_3   0.492164 0.485636 0.675959 0.199977
C42   C     C_1   0.208509 0.513829 0.655900 0.257127
C43   C     C_2   0.167532 0.512736 0.703032 -0.229991
C44   C     C_2   0.291728 0.494366 0.742526 0.103903
O26   O     O_2   0.337790 0.368993 0.793596 -0.466008
C45   C     C_R   0.144281 0.439462 0.024743 0.102653
C46   C     C_R   0.073059 0.509360 0.051164 0.082931
C47   C     C_R   0.033527 0.575442 0.026053 0.044705
C48   C     C_R   0.206338 0.380361 0.053247 -0.115138
H35   H     H_    0.539340 0.468883 0.756650 0.147351
H36   H     H_    0.284738 0.331350 0.037236 0.184792
O27   O     O_2   0.878819 0.646147 0.203202 -0.623068
C49   C     C_R   0.923982 0.645586 0.103745 -0.080681
H37   H     H_    0.690180 0.573926 0.245273 0.182467
H38   H     H_    0.863924 0.698710 0.122558 0.166768
C50   C     C_R   0.055877 0.639347 0.950066 -0.208727
C51   C     C_R   0.091983 0.635834 0.900103 -0.074528
O28   O     O_2   0.165394 0.622232 0.801647 -0.618221
C52   C     C_R   0.955580 0.642625 0.053360 -0.208211
H39   H     H_    0.016642 0.696216 0.968479 0.133591
H40   H     H_    0.075232 0.689121 0.883220 0.167617
H41   H     H_    0.043775 0.523779 0.713383 0.222029
H42   H     H_    0.914124 0.693945 0.036653 0.132909
H43   H     H_    0.365131 0.456072 0.601895 0.163897
H44   H     H_    0.480708 0.857439 0.530656 0.161854
H45   H     H_    0.310780 0.106472 0.547649 0.166451
C53   C     C_R   0.417207 0.280131 0.523013 -0.365094
C54   C     C_R   0.552114 0.254573 0.494538 0.277018
C55   C     C_R   0.609017 0.175267 0.489358 -0.329492
C56   C     C_R   0.524481 0.121509 0.509415 0.055268
C57   C     C_R   0.380925 0.147630 0.534175 -0.247296
C58   C     C_R   0.326139 0.226963 0.540511 0.341290
C59   C     C_R   0.589014 0.835847 0.510860 -0.186221
C60   C     C_R   0.641382 0.756265 0.506281 0.282615
C61   C     C_R   0.877280 0.779119 0.464196 0.232171
C62   C     C_R   0.825812 0.858982 0.468478 -0.237960
C63   C     C_R   0.680197 0.887714 0.491515 0.085453
C64   C     C_1   0.627239 0.970399 0.497406 0.003804
C65   C     C_1   0.581206 0.039248 0.502778 0.014491
C66   C     C_R   0.782379 0.728388 0.481815 -0.382129
H46   H     H_    0.899628 0.898366 0.454718 0.137283
H47   H     H_    0.717628 0.155208 0.469454 0.153006
H48   H     H_    0.374672 0.341206 0.527776 0.179405
H49   H     H_    0.824367 0.667402 0.479692 0.190409
Cl1   Cl    Cl    0.935554 0.787162 0.591307 -0.618750
Cl2   Cl    Cl    0.820768 0.654586 0.708929 -0.740457
O29   O     O_3   0.958452 0.788199 0.700729 -0.594345
C67   C     C_3   0.062715 0.757721 0.736755 0.108550
H50   H     H_    0.120873 0.699229 0.723069 0.153025
H51   H     H_    0.997527 0.756075 0.771449 0.175991
H52   H     H_    0.157907 0.796816 0.746043 0.133081
O30   O     O_3   0.807657 0.297189 0.309908 -0.556665
C68   C     C_3   0.816449 0.289437 0.257667 -0.054960
H53   H     H_    0.698088 0.281003 0.239404 0.096565
H54   H     H_    0.906942 0.241111 0.243852 0.138091
H55   H     H_    0.854033 0.343865 0.247051 0.185650
Cl3   Cl    Cl    0.583297 0.161639 0.687041 -0.413009
Cl4   Cl    Cl    0.280866 0.264848 0.856272 -0.407394
Cl5   Cl    Cl    0.140231 0.272983 0.959783 -0.537370
Cl6   Cl    Cl    0.325053 0.310001 0.669102 -0.601235
O31   O     O_3   0.818924 0.542634 0.409175 -0.674056
C69   C     C_3   0.730632 0.480828 0.414588 0.196597
H56   H     H_    0.805117 0.426531 0.418138 0.149529
H57   H     H_    0.642844 0.465591 0.384256 0.101988
H58   H     H_    0.667124 0.501628 0.448575 0.225532
Cl7   Cl    Cl    0.160759 0.289200 0.444886 -0.691106
O32   O     O_3   0.109838 0.210852 0.357507 -0.636956
C70   C     C_3   0.190307 0.140446 0.370234 -0.373452
H59   H     H_    0.291084 0.120704 0.344813 0.174817
H60   H     H_    0.105725 0.095376 0.364764 0.180994
H61   H     H_    0.234051 0.143817 0.409537 0.180592

loop_
_geom_bond_atom_site_label_1
_geom_bond_atom_site_label_2
_geom_bond_distance
_ccdc_geom_bond_type
C27   C49   1.402120 A    
O14   P8    1.768265 S    
C13   H24   1.111950 S    
C19   C20   1.509165 S    
C20   C28   1.510661 S    
P6    C41   1.872112 S    
C19   C23   1.360983 D    
P2    Ba1   3.376454 S    
C40   H35   1.085752 S    
C8    C9    1.526410 S    
C2    H4    1.104899 S    
C59   C63   1.409225 A    
P3    O9    1.548809 D    
C43   C44   1.510917 S    
N1    C23   1.476122 S    
C53   C54   1.398098 A    
C64   C65   1.216161 T    
N1    C18   1.392363 Am   
O31   C69   1.399907 S    
C5    H9    1.110754 S    
C6    Cl1   1.782434 S    
Ba2   O20   2.788272 S    
P3    O11   1.761253 S    
O16   P7    1.763504 S    
O1    Ba1   2.774461 S    
C68   H53   1.113008 S    
C2    C3    1.524702 S    
C35   C39   1.434601 A    
C2    Cl6   1.763093 S    
O6    C10   1.412777 S    
O11   C2    1.408985 S    
C53   C58   1.402832 A    
C18   O27   1.221138 D    
C6    H10   1.105123 S    
Ba1   O13   2.762079 S    
C11   H17   1.110363 S    
P5    O18   1.545066 D    
C13   C14   1.519251 S    
C36   C37   1.413157 A    
C26   H34   1.083321 S    
C12   H20   1.107264 S    
C17   C25   1.425534 A    
C47   C52   1.415523 A    
C38   N2    1.380708 Am   
O2    Ba1   2.947817 S    
C8    H12   1.107838 S    
C14   H26   1.108852 S    
C24   C46   1.437175 A    
C46   C47   1.419294 A    
C24   C25   1.409290 A    
P7    O22   1.744069 S    
C33   C34   1.414453 A    
C42   C43   1.337986 D    
C26   C48   1.399760 A    
C62   C63   1.411540 A    
C15   O24   1.407368 S    
P2    O10   1.750997 S    
C33   Cl5   1.775989 S    
C37   C38   1.415188 A    
C67   H51   1.110894 S    
P3    C58   1.854193 S    
C66   H49   1.081726 S    
P4    C21   1.882930 S    
C1    H2    1.110794 S    
H1    C10   1.108536 S    
C22   H33   1.083749 S    
C15   H29   1.114587 S    
O3    Ba1   2.755632 S    
C55   H47   1.082062 S    
C9    O30   1.412114 S    
C70   H61   1.110724 S    
C53   H48   1.082083 S    
C12   H21   1.106740 S    
P4    O13   1.531507 S    
C13   H23   1.109159 S    
C15   C16   1.520635 S    
C3    H5    1.100981 S    
Ba2   O21   2.788961 S    
C52   H42   1.076789 S    
C1    C10   1.530837 S    
P1    C42   1.853896 S    
C51   H40   1.083796 S    
P1    Ba1   3.371779 S    
C34   C35   1.422395 A    
O2    Ba2   2.762669 S    
C48   H36   1.078501 S    
C56   C65   1.456367 S    
O8    Ba1   2.775060 S    
O17   Ba2   2.775864 S    
C7    O29   1.424382 S    
Ba1   Ba2   4.614761 S    
P5    O17   1.759700 S    
C67   H52   1.109044 S    
H45   C57   1.083227 S    
C15   H28   1.112143 S    
C61   C62   1.408123 A    
O3    P6    1.744321 S    
C29   H43   1.085714 S    
P1    O5    1.763073 S    
C31   C47   1.432051 A    
C31   C32   1.425384 A    
O32   C70   1.417922 S    
C4    C5    1.515023 S    
C16   H32   1.110542 S    
O19   C13   1.402002 S    
C45   C48   1.414734 A    
C16   H31   1.108400 S    
C12   H19   1.108626 S    
C69   H56   1.094365 S    
P7    C60   1.836686 S    
C24   C27   1.405358 A    
C70   H59   1.110750 S    
C61   C66   1.392955 A    
P1    O2    1.531477 S    
C14   H27   1.110759 S    
P8    C20   1.904909 S    
C11   H18   1.109467 S    
C9    H14   1.112115 S    
C67   H50   1.109647 S    
P5    O19   1.745560 S    
C11   O22   1.402046 S    
P7    O21   1.572998 D    
C30   C32   1.421263 A    
P2    C54   1.861623 S    
C49   C52   1.393718 A    
C25   C26   1.403499 A    
C55   C56   1.409572 A    
C1    H3    1.106874 S    
C38   O28   1.221041 D    
C60   C66   1.392978 A    
C69   H57   1.111290 S    
O13   Ba2   2.948597 S    
P4    O12   1.536628 D    
C17   N1    1.390206 Am   
P2    O7    1.540242 D    
C3    H6    1.111023 S    
C4    O32   1.424197 S    
O29   C67   1.408696 S    
C4    O15   1.400458 S    
P8    O23   1.548306 D    
C17   O25   1.221085 D    
O10   C8    1.407604 S    
O7    Ba1   2.788650 S    
C50   C51   1.390460 A    
C39   O26   1.219452 D    
O12   Ba2   2.775020 S    
C19   H37   1.085240 S    
C10   H16   1.105140 S    
C49   H38   1.083615 S    
C7    Cl2   1.807465 S    
C69   H58   1.083615 S    
C40   C41   1.519136 S    
C3    H22   1.108981 S    
C1    Cl3   1.781069 S    
C59   C60   1.404820 A    
C37   C51   1.400367 A    
C54   C55   1.408587 A    
O14   Ba2   2.755195 S    
Ba1   O20   2.948660 S    
C5    H8    1.102625 S    
C35   C36   1.415300 A    
O16   Ba2   2.947692 S    
P5    C61   1.845711 S    
Ba1   O16   2.788904 S    
C7    H11   1.108171 S    
C21   C28   1.326489 D    
P3    O8    1.756786 S    
C62   H46   1.083167 S    
C5    H7    1.094376 S    
O6    P6    1.761766 S    
H44   C59   1.083407 S    
C56   C57   1.409075 A    
C6    C7    1.544917 S    
C22   C23   1.519820 S    
P4    Ba2   3.372238 S    
C29   C41   1.515144 S    
P1    O1    1.536368 D    
C68   H54   1.112544 S    
C68   H55   1.108415 S    
C31   C50   1.413670 A    
C43   H41   1.081186 S    
C32   C36   1.437005 A    
C8    H13   1.102601 S    
C63   C64   1.456456 S    
C30   C33   1.424892 A    
C14   H25   1.110650 S    
O5    C6    1.403001 S    
C50   H39   1.076690 S    
O30   C68   1.408278 S    
C18   C27   1.416236 A    
N2    C44   1.466768 S    
H30   C16   1.110616 S    
P4    O15   1.774933 S    
C9    H15   1.113625 S    
C28   O31   1.356471 S    
C11   C12   1.518731 S    
N2    C39   1.387408 Am   
C4    Cl7   1.770411 S    
P8    O24   1.749369 S    
C57   C58   1.404660 A    
O4    P6    1.544313 D    
C40   C44   1.356026 D    
C30   C45   1.440018 A    
C21   C22   1.343622 D    
C45   C46   1.418988 A    
P2    O20   1.545635 S    
C34   Cl4   1.776167 S    
C70   H60   1.109335 S    
C29   C42   1.320258 D    
