data_mof_unit_50456.cif
_audit_creation_date              2012-12-10T17:38:47-0500
_audit_creation_method            fapswitch 2.2
_symmetry_space_group_name_H-M    P1
_symmetry_Int_Tables_number       1
_space_group_crystal_system       triclinic
_cell_length_a                    12.363007
_cell_length_b                    13.243007
_cell_length_c                    23.492858
_cell_angle_alpha                 76.668857
_cell_angle_beta                  100.950114
_cell_angle_gamma                 116.899245
_cell_volume                      3321.44827857

loop_
_atom_site_label
_atom_site_type_symbol
_atom_type_description
_atom_site_fract_x
_atom_site_fract_y
_atom_site_fract_z
_atom_type_partial_charge
C1    C     C_R   0.854847 0.286663 0.505966 0.767006
C2    C     C_R   0.804659 0.331460 0.031711 -0.161358
C3    C     C_R   0.804793 0.332554 0.972289 -0.161598
C4    C     C_R   0.901444 0.417442 0.940871 0.008209
C5    C     C_R   0.998918 0.502449 0.969627 -0.082788
C6    C     C_R   0.096206 0.588704 0.938287 -0.129167
C7    C     C_R   0.192627 0.674032 0.967849 0.496632
C8    C     C_R   0.192931 0.669327 0.028091 -0.244843
C9    C     C_R   0.903360 0.418983 0.881273 0.556835
C10   C     C_R   0.093024 0.586670 0.878223 0.605321
C11   C     C_R   0.917919 0.531413 0.748486 -0.197630
C12   C     C_R   0.999380 0.499460 0.608898 0.808951
C13   C     C_R   0.917980 0.531169 0.689286 -0.220699
C14   C     C_R   0.998976 0.499620 0.671501 -0.090179
C15   C     C_R   0.079655 0.467916 0.713994 -0.324935
C16   C     C_R   0.082020 0.470435 0.773793 0.544937
C17   C     C_R   0.999011 0.500774 0.790718 0.280153
C18   C     C_R   0.078236 0.463587 0.251755 -0.116575
C19   C     C_R   0.078445 0.464280 0.311025 -0.171463
C20   C     C_R   0.999268 0.498289 0.328688 -0.037487
C21   C     C_R   0.918931 0.530431 0.286115 -0.221544
C22   C     C_R   0.918634 0.529359 0.226923 -0.101004
C23   C     C_R   0.144820 0.713369 0.492423 0.835052
C24   C     C_R   0.998487 0.496311 0.209584 0.358938
C25   C     C_R   0.271903 0.030763 0.435126 -0.001430
C26   C     C_R   0.226808 0.835753 0.484250 -0.071983
C27   C     C_R   0.811867 0.086758 0.551403 -0.182020
C28   C     C_R   0.729588 0.975114 0.569767 -0.130567
C29   C     C_R   0.606073 0.939407 0.551380 -0.159484
C30   C     C_R   0.562322 0.013316 0.510614 0.078900
C31   C     C_R   0.648315 0.124626 0.488731 0.086389
C32   C     C_R   0.436380 0.980790 0.490921 0.060043
C33   C     C_R   0.398025 0.060790 0.451662 0.088165
C34   C     C_R   0.999988 0.499714 0.391172 0.823695
C35   C     C_R   0.486580 0.164904 0.426428 -0.186210
C36   C     C_R   0.609114 0.194072 0.442995 -0.193407
C37   C     C_R   0.347800 0.869527 0.507421 -0.242647
C38   C     C_R   0.187906 0.916921 0.450306 -0.227597
C39   C     C_R   0.771850 0.163685 0.512870 -0.097251
C40   C     C_R   0.335816 0.314982 0.588926 -0.282054
C41   C     C_R   0.755849 0.637144 0.416704 0.003839
C42   C     C_R   0.648285 0.642252 0.389229 -0.329847
C43   C     C_R   0.538884 0.572237 0.414840 0.503327
C44   C     C_R   0.542262 0.514150 0.473534 -0.076894
C45   C     C_R   0.094839 0.580417 0.119238 0.563716
C46   C     C_R   0.650118 0.498980 0.495776 0.220059
C47   C     C_R   0.440214 0.461618 0.508585 -0.028106
C48   C     C_R   0.437522 0.374156 0.556680 0.165103
C49   C     C_R   0.538589 0.349677 0.573617 -0.254994
C50   C     C_R   0.644513 0.414323 0.545502 -0.155004
C51   C     C_R   0.346042 0.498897 0.501226 0.147946
C52   C     C_R   0.239433 0.346442 0.575551 0.051066
C53   C     C_R   0.903421 0.414981 0.120922 0.530280
C54   C     C_R   0.901383 0.414994 0.061028 0.005681
C55   C     C_R   0.998859 0.500718 0.029942 -0.016580
C56   C     C_R   0.096436 0.584143 0.059223 -0.087177
Cu1   Cu    Cu3+1 0.098270 0.475410 0.513370 0.977097
Cu2   Cu    Cu3+1 0.901730 0.524590 0.486630 0.932329
H1    H     H_    0.728727 0.264746 0.054602 0.189125
H2    H     H_    0.139881 0.437700 0.343077 0.189475
H3    H     H_    0.856728 0.556901 0.298423 0.158028
H4    H     H_    0.856932 0.554889 0.194408 0.141558
H5    H     H_    0.092278 0.891039 0.434827 0.187944
H6    H     H_    0.462565 0.222806 0.391640 0.162503
H7    H     H_    0.370869 0.804675 0.536024 0.165204
H8    H     H_    0.906075 0.114462 0.569838 0.153508
H9    H     H_    0.548163 0.853650 0.570551 0.153696
H10   H     H_    0.761015 0.917116 0.600623 0.146869
H11   H     H_    0.728926 0.266547 0.951091 0.185426
H12   H     H_    0.672744 0.271600 0.418697 0.170641
H13   H     H_    0.159975 0.299280 0.599706 0.129222
H14   H     H_    0.538003 0.283504 0.610827 0.156224
H15   H     H_    0.331364 0.245306 0.624688 0.143812
H16   H     H_    0.838340 0.684969 0.394823 0.157786
H17   H     H_    0.648123 0.693429 0.346046 0.169587
H18   H     H_    0.718937 0.392892 0.563259 0.202343
H19   H     H_    0.269483 0.733151 0.050276 0.201227
H20   H     H_    0.854937 0.555802 0.761704 0.158886
H21   H     H_    0.854568 0.555658 0.657514 0.174772
H22   H     H_    0.139367 0.439753 0.700774 0.164209
H23   H     H_    0.139664 0.437372 0.238507 0.132509
N1    N     N_R   0.999144 0.496940 0.148615 -0.469695
N2    N     N_R   0.998282 0.502292 0.851483 -0.454713
N3    N     N_R   0.246280 0.438190 0.533650 -0.230924
N4    N     N_R   0.754320 0.561190 0.466710 -0.204270
O1    O     O_R   0.972510 0.318130 0.516820 -0.580453
O2    O     O_2   0.810993 0.333478 0.151384 -0.535291
O3    O     O_2   0.811657 0.337329 0.853303 -0.540305
O4    O     O_2   0.183140 0.668154 0.846449 -0.500264
O5    O     O_R   0.806530 0.359650 0.494230 -0.600198
O6    O     O_R   0.082990 0.479200 0.593420 -0.590260
O7    O     O_R   0.917010 0.520720 0.570830 -0.600175
O8    O     O_R   0.193470 0.640350 0.505770 -0.576641
O9    O     O_R   0.027490 0.681870 0.483180 -0.586043
O10   O     O_R   0.082990 0.479280 0.429170 -0.534893
O11   O     O_R   0.917010 0.520800 0.406580 -0.602830
O12   O     O_2   0.187456 0.660141 0.147942 -0.528604
C57   C     C_2   0.224056 0.114959 0.402588 0.811203
O13   O     O_2   0.271649 0.213290 0.412759 -0.616614
O14   O     O_R   0.120574 0.080081 0.362222 -0.759806
H24   H     H_    0.095646 0.144471 0.343563 0.335965
C58   C     C_2   0.370305 0.615587 0.468417 0.918321
O15   O     O_2   0.304428 0.630347 0.424677 -0.528618
O16   O     O_R   0.475733 0.708727 0.485364 -0.814985
H25   H     H_    0.487359 0.783364 0.457842 0.337138
O17   O     O_3   0.428694 0.550718 0.380783 -0.565529
C59   C     C_3   0.418101 0.488615 0.336936 -0.227532
H26   H     H_    0.441548 0.414722 0.355208 0.165473
H27   H     H_    0.475435 0.545800 0.301023 0.154974
H28   H     H_    0.322393 0.453128 0.317232 0.182937
O18   O     O_3   0.291278 0.757761 0.939226 -0.532046
C60   C     C_3   0.281184 0.862654 0.927908 -0.228732
H29   H     H_    0.291892 0.894751 0.969352 0.142282
H30   H     H_    0.193180 0.854925 0.901992 0.157024
H31   H     H_    0.355565 0.927672 0.901336 0.198436
O19   O     O_3   0.156417 0.434652 0.817308 -0.572422
C61   C     C_3   0.278686 0.490805 0.803860 -0.257584
H32   H     H_    0.307051 0.583659 0.785603 0.178226
H33   H     H_    0.294140 0.446858 0.773372 0.146475
H34   H     H_    0.338321 0.485520 0.845080 0.201275

loop_
_geom_bond_atom_site_label_1
_geom_bond_atom_site_label_2
_ccdc_geom_bond_type
C55   C56   A    
C13   H21   S    
C1    O5    A    
C41   C42   A    
C12   O6    A    
C45   N1    A    
C8    C56   A    
C60   H30   S    
C7    C8    A    
C53   C54   A    
Cu1   O1    S    
C51   C58   S    
C42   H17   S    
C18   C24   A    
C28   C29   A    
C28   H10   S    
C34   O11   A    
C61   H33   S    
C9    O3    S    
C5    C6    A    
O17   C59   S    
C15   C16   A    
C10   N2    A    
C18   H23   S    
C40   H15   S    
C18   C19   A    
C23   C26   S    
C52   N3    A    
C24   N1    S    
C60   H29   S    
Cu2   O11   S    
C41   H16   S    
C29   H9    S    
C19   C20   A    
C45   C56   A    
C44   C46   A    
C16   C17   A    
C49   H14   S    
C37   H7    S    
C59   H26   S    
C35   H6    S    
C21   H3    S    
C44   C47   A    
C46   N4    A    
C20   C34   S    
Cu1   O8    S    
C21   C22   A    
C59   H27   S    
C5    C55   A    
C16   O19   S    
O16   H25   S    
C36   H12   S    
C47   C48   A    
C34   O10   A    
C10   O4    S    
C2    C54   A    
C61   H34   S    
C27   C39   A    
C2    H1    S    
C26   C38   A    
C47   C51   A    
C40   C52   A    
C23   O8    A    
C53   N1    A    
C17   N2    S    
C43   O17   S    
C43   C44   A    
C29   C30   A    
C11   H20   S    
C50   H18   S    
C25   C38   A    
C22   H4    S    
C15   H22   S    
C52   H13   S    
Cu1   N3    S    
C53   O2    S    
C32   C37   A    
C58   O16   S    
Cu2   O5    S    
C9    N2    A    
C48   C49   A    
C12   C14   S    
C49   C50   A    
C57   O14   S    
C8    H19   S    
C59   H28   S    
C22   C24   A    
C42   C43   A    
C3    C4    A    
Cu2   N4    S    
C38   H5    S    
C1    O1    A    
C40   C48   A    
C54   C55   A    
C11   C17   A    
Cu1   O6    S    
O18   C60   S    
C3    H11   S    
C14   C15   A    
C12   O7    A    
C4    C5    A    
C6    C10   A    
C26   C37   A    
C6    C7    A    
C19   H2    S    
C41   N4    A    
C46   C50   A    
C23   O9    A    
C32   C33   A    
C2    C3    A    
Cu2   O9    S    
C27   H8    S    
C45   O12   S    
C61   H32   S    
C30   C32   A    
C11   C13   A    
Cu1   Cu2   S    
C30   C31   A    
O14   H24   S    
C33   C35   A    
C7    O18   S    
O19   C61   S    
C58   O15   D    
C1    C39   S    
C25   C57   S    
C20   C21   A    
C57   O13   D    
Cu1   O10   S    
C27   C28   A    
C31   C39   A    
C31   C36   A    
C35   C36   A    
C4    C9    A    
C13   C14   A    
Cu2   O7    S    
C51   N3    A    
C60   H31   S    
C25   C33   A    
