data_mof_unit_56115.cif
_audit_creation_date              2012-12-10T16:50:19-0500
_audit_creation_method            fapswitch 2.2
_symmetry_space_group_name_H-M    P1
_symmetry_Int_Tables_number       1
_space_group_crystal_system       triclinic
_cell_length_a                    23.472085
_cell_length_b                    8.678297
_cell_length_c                    7.461371
_cell_angle_alpha                 103.175581
_cell_angle_beta                  94.476803
_cell_angle_gamma                 92.712317
_cell_volume                      1472.01773864

loop_
_atom_site_label
_atom_site_type_symbol
_atom_type_description
_atom_site_fract_x
_atom_site_fract_y
_atom_site_fract_z
_atom_type_partial_charge
C1    C     C_R   0.498255 0.199634 0.453049 0.859431
C2    C     C_R   0.501745 0.800366 0.546951 0.859410
C3    C     C_R   0.233614 0.476665 0.343069 -0.102722
C4    C     C_R   0.766401 0.524195 0.657035 -0.102723
C5    C     C_R   0.292855 0.477369 0.340108 -0.197157
C6    C     C_R   0.707156 0.523343 0.659978 -0.197249
C7    C     C_R   0.328372 0.498947 0.505831 -0.036326
C8    C     C_R   0.671629 0.501187 0.494193 -0.036309
C9    C     C_R   0.303480 0.519773 0.674462 -0.182088
C10   C     C_R   0.696513 0.479924 0.325519 -0.182064
C11   C     C_R   0.244122 0.519528 0.676964 -0.103842
C12   C     C_R   0.755874 0.480303 0.323034 -0.103814
C13   C     C_R   0.209182 0.497905 0.511260 0.361943
C14   C     C_R   0.790825 0.502499 0.488797 0.361829
C15   C     C_2   0.497447 0.031526 0.426826 -0.330717
C16   C     C_2   0.502553 0.968474 0.573174 -0.330711
C17   C     C_R   0.390960 0.499515 0.501930 0.779916
C18   C     C_R   0.609039 0.500506 0.498075 0.779899
C19   C     C_R   0.883754 0.643408 0.528737 0.536693
C20   C     C_R   0.116254 0.357019 0.471337 0.536717
C21   C     C_R   0.876415 0.359806 0.448760 0.538612
C22   C     C_R   0.123595 0.640621 0.551273 0.538625
C23   C     C_R   0.936143 0.356076 0.453078 -0.014611
C24   C     C_R   0.063867 0.644354 0.546950 -0.014624
C25   C     C_R   0.969912 0.500570 0.496856 -0.016931
C26   C     C_R   0.030097 0.499860 0.503180 -0.016937
C27   C     C_R   0.943637 0.645768 0.534549 -0.014552
C28   C     C_R   0.056372 0.354661 0.465502 -0.014561
C29   C     C_R   0.962778 0.212001 0.416017 -0.161802
C30   C     C_R   0.037231 0.788429 0.584011 -0.161799
C31   C     C_R   0.022304 0.211297 0.422200 -0.173984
C32   C     C_R   0.977705 0.789133 0.577845 -0.173986
Cu1   Cu    Cu3+1 0.506340 0.517380 0.684380 1.115326
Cu2   Cu    Cu3+1 0.493660 0.482620 0.315620 1.115333
H1    H     H_    0.937751 0.099429 0.382174 0.194879
H2    H     H_    0.062257 0.901001 0.617850 0.194878
H3    H     H_    0.041482 0.098205 0.392649 0.187224
H4    H     H_    0.958525 0.902224 0.607404 0.187226
H5    H     H_    0.206603 0.460206 0.214778 0.138453
H6    H     H_    0.793420 0.541099 0.785372 0.138572
H7    H     H_    0.310742 0.460958 0.208093 0.175491
H8    H     H_    0.689274 0.540116 0.792025 0.175616
H9    H     H_    0.329769 0.536547 0.804197 0.180744
H10   H     H_    0.670215 0.462685 0.195740 0.180651
H11   H     H_    0.225235 0.535944 0.807313 0.136848
H12   H     H_    0.774756 0.463522 0.192650 0.136954
H13   H     H_    0.492661 0.959363 0.286056 0.202816
H14   H     H_    0.507339 0.040636 0.713944 0.202816
N1    N     N_R   0.851679 0.501923 0.486917 -0.475690
N2    N     N_R   0.148329 0.498501 0.513142 -0.475710
N3    N     N_2   0.484110 0.456420 0.038520 0.227523
N4    N     N_2   0.515890 0.543580 0.961480 0.227530
O1    O     O_R   0.504120 0.286130 0.619770 -0.546916
O2    O     O_R   0.495880 0.713870 0.380230 -0.546926
O3    O     O_R   0.493410 0.256770 0.308360 -0.573799
O4    O     O_R   0.506590 0.743230 0.691640 -0.573807
O5    O     O_R   0.423230 0.514630 0.655730 -0.550024
O6    O     O_R   0.576770 0.485370 0.344270 -0.550012
O7    O     O_R   0.412530 0.485280 0.344320 -0.577475
O8    O     O_R   0.587470 0.514720 0.655680 -0.577488
O9    O     O_2   0.857702 0.781047 0.564702 -0.509754
O10   O     O_2   0.142306 0.219378 0.435391 -0.509715
O11   O     O_2   0.843278 0.222834 0.408334 -0.506865
O12   O     O_2   0.156733 0.777589 0.591687 -0.506819
F1    F     F_    0.443989 0.359182 0.925970 -0.560736
F2    F     F_    0.556011 0.640817 0.074030 -0.560713

loop_
_geom_bond_atom_site_label_1
_geom_bond_atom_site_label_2
_ccdc_geom_bond_type
C30   C32   A    
C30   H2    S    
C5    H7    S    
C20   O10   S    
C4    H6    S    
C1    C15   S    
C32   H4    S    
C25   C27   A    
C2    C16   S    
Cu1   O5    S    
C29   H1    S    
C26   C28   A    
C3    C13   A    
C15   H13   S    
C22   N2    A    
N3    F1    S    
C16   H14   S    
Cu1   O4    S    
C21   N1    A    
Cu1   Cu2   S    
C1    O3    A    
C3    H5    S    
Cu2   O3    S    
C29   C31   A    
C2    O4    A    
Cu1   N4    S    
C4    C14   A    
N4    F2    S    
C9    C11   A    
Cu2   N3    S    
C10   C12   A    
C17   O7    A    
C6    C8    A    
C23   C29   A    
C4    C6    A    
C19   C27   A    
C24   C26   A    
Cu2   O2    S    
Cu1   O8    S    
C24   C30   A    
C21   C23   A    
Cu1   O1    S    
Cu2   O7    S    
C19   O9    S    
Cu2   O6    S    
C22   C24   A    
C19   N1    A    
C9    H9    S    
C2    O2    A    
C11   H11   S    
C15   C16   D    
C27   C32   A    
C22   O12   S    
C13   N2    S    
C14   N1    S    
C7    C9    A    
C11   C13   A    
C23   C25   A    
N3    N4    D    
C8    C10   A    
C6    H8    S    
C18   O8    A    
C5    C7    A    
C1    O1    A    
C20   N2    A    
C20   C28   A    
C7    C17   S    
C25   C26   A    
C17   O5    A    
C10   H10   S    
C18   O6    A    
C28   C31   A    
C8    C18   S    
C31   H3    S    
C21   O11   S    
C12   C14   A    
C3    C5    A    
C12   H12   S    
