data_mof_unit_42250.cif
_audit_creation_date              2012-12-11T14:06:37-0500
_audit_creation_method            fapswitch 2.2
_symmetry_space_group_name_H-M    P1
_symmetry_Int_Tables_number       1
_space_group_crystal_system       triclinic
_cell_length_a                    6.920145
_cell_length_b                    17.332751
_cell_length_c                    24.117362
_cell_angle_alpha                 104.544332
_cell_angle_beta                  90.457214
_cell_angle_gamma                 89.8877
_cell_volume                      2799.96895176

loop_
_atom_site_label
_atom_site_type_symbol
_atom_type_description
_atom_site_fract_x
_atom_site_fract_y
_atom_site_fract_z
_atom_type_partial_charge
O1    O     O_R   0.494290 0.391990 0.999150 -0.553156
O2    O     O_R   0.827170 0.534410 0.082350 -0.542138
O3    O     O_R   0.994360 0.608010 0.000850 -0.539103
C1    C     C_R   0.658581 0.549589 0.106160 0.706208
O4    O     O_R   0.824210 0.388010 0.004470 -0.511235
O5    O     O_R   0.991370 0.460560 0.922410 -0.541220
C2    C     C_R   0.654886 0.355389 0.002405 0.723487
O6    O     O_R   0.497270 0.539440 0.077590 -0.542705
O7    O     O_3   0.659770 0.523970 0.973170 -0.376185
V1    V     V_3+5 0.935840 0.495550 0.004980 1.470097
O8    O     O_R   0.320910 0.465590 0.917650 -0.545378
C3    C     C_R   0.151291 0.450267 0.893858 0.709415
O9    O     O_R   0.323870 0.611990 0.995530 -0.547622
C4    C     C_R   0.154285 0.645112 0.998523 0.766706
V2    V     V_3+5 0.435470 0.504450 0.995020 1.423379
O10   O     O_3   0.161670 0.476030 0.026830 -0.362471
C5    C     C_2   0.142711 0.730169 0.998097 -0.336410
H1    H     H_    0.277266 0.760812 0.994720 0.148877
C6    C     C_2   0.972837 0.769869 0.002023 -0.333800
H2    H     H_    0.838283 0.739227 0.005400 0.149045
C7    C     C_R   0.035204 0.252709 0.626596 0.573176
N1    N     N_R   0.096937 0.329693 0.648378 -0.568315
C8    C     C_R   0.142883 0.377222 0.612628 0.620428
C9    C     C_R   0.127162 0.347871 0.552679 -0.037934
C10   C     C_R   0.063577 0.269035 0.529828 -0.022156
C11   C     C_R   0.017094 0.220908 0.566979 -0.025299
C12   C     C_R   0.172596 0.395421 0.515132 -0.098162
C13   C     C_R   0.155804 0.365019 0.455808 -0.136054
C14   C     C_R   0.093185 0.286281 0.432504 -0.034632
C15   C     C_R   0.046530 0.238219 0.469687 -0.014322
C16   C     C_R   0.983076 0.159363 0.446867 -0.025055
C17   C     C_R   0.937191 0.111876 0.484405 -0.148783
C18   C     C_R   0.954002 0.142257 0.543699 -0.134639
C19   C     C_R   0.075920 0.254254 0.372851 0.586034
N2    N     N_R   0.014664 0.177171 0.351128 -0.561638
C20   C     C_R   0.968189 0.129822 0.386947 0.573000
O11   O     O_2   0.992747 0.206757 0.662470 -0.513935
O12   O     O_2   0.201747 0.452894 0.634946 -0.477152
H3    H     H_    0.221376 0.456311 0.531437 0.196866
H4    H     H_    0.192275 0.403448 0.428291 0.180846
O13   O     O_2   0.118830 0.300042 0.336907 -0.507456
O14   O     O_2   0.909781 0.054062 0.364710 -0.517462
H5    H     H_    0.888281 0.051004 0.468112 0.169841
H6    H     H_    0.917396 0.103839 0.571212 0.176952
C21   C     C_R   0.821565 0.123806 0.262939 -0.074023
H7    H     H_    0.691061 0.131682 0.288217 0.122287
C22   C     C_R   0.809043 0.092802 0.203444 -0.188139
H8    H     H_    0.668100 0.077291 0.184088 0.127330
C23   C     C_R   0.976491 0.082205 0.169496 -0.060249
C24   C     C_R   0.156495 0.103473 0.196756 -0.184389
H9    H     H_    0.288510 0.096412 0.172191 0.129383
C25   C     C_R   0.168581 0.134603 0.256157 -0.081682
H10   H     H_    0.308503 0.150409 0.276157 0.120144
C26   C     C_R   0.001381 0.145113 0.289754 0.375158
C27   C     C_R   0.291617 0.381410 0.736514 -0.074722
H11   H     H_    0.421730 0.373886 0.711073 0.125068
C28   C     C_R   0.305234 0.410501 0.796176 -0.189696
H12   H     H_    0.446542 0.425156 0.815499 0.129849
C29   C     C_R   0.138329 0.420216 0.830333 -0.059297
C30   C     C_R   0.957742 0.400316 0.803107 -0.189109
H13   H     H_    0.826051 0.406893 0.827800 0.128785
C31   C     C_R   0.944571 0.371131 0.743574 -0.067141
H14   H     H_    0.804259 0.356079 0.723640 0.120981
C32   C     C_R   0.111222 0.361229 0.709775 0.373992
C33   C     C_R   0.419770 0.857832 0.612146 0.576354
N3    N     N_R   0.509269 0.820325 0.649040 -0.566721
C34   C     C_R   0.616832 0.752478 0.628744 0.653313
C35   C     C_R   0.641344 0.720155 0.568892 -0.120507
C36   C     C_R   0.549066 0.758992 0.530749 -0.066548
C37   C     C_R   0.436916 0.827875 0.552526 0.000518
C38   C     C_R   0.753949 0.650950 0.545390 0.415217
C39   C     C_R   0.771640 0.622433 0.485943 -0.187340
C40   C     C_R   0.680237 0.660765 0.448134 -0.093577
C41   C     C_R   0.568752 0.729209 0.470538 -0.013899
C42   C     C_R   0.476824 0.768040 0.432708 -0.008949
C43   C     C_R   0.365395 0.836408 0.455191 -0.143148
C44   C     C_R   0.345698 0.865911 0.514280 -0.145006
C45   C     C_R   0.696927 0.631809 0.388174 0.604972
N4    N     N_R   0.606599 0.670191 0.351788 -0.556324
C46   C     C_R   0.498668 0.737553 0.373132 0.574378
O15   O     O_2   0.316402 0.924782 0.633078 -0.520420
O16   O     O_2   0.697793 0.716469 0.666621 -0.463269
H15   H     H_    0.858340 0.569643 0.469380 0.194533
O17   O     O_2   0.800566 0.565175 0.366534 -0.515124
O18   O     O_2   0.413710 0.775475 0.336880 -0.521338
H16   H     H_    0.292884 0.867472 0.427201 0.176549
H17   H     H_    0.258746 0.918855 0.529873 0.168130
C47   C     C_R   0.454963 0.614793 0.256884 -0.078910
H18   H     H_    0.314763 0.618870 0.277047 0.129856
C48   C     C_R   0.467594 0.585803 0.197397 -0.190684
H19   H     H_    0.335607 0.568365 0.173099 0.134384
C49   C     C_R   0.647699 0.579283 0.169725 -0.056839
C50   C     C_R   0.815061 0.602270 0.203428 -0.190719
H20   H     H_    0.955943 0.598325 0.183696 0.128120
C51   C     C_R   0.801972 0.631826 0.263066 -0.075075
H21   H     H_    0.932213 0.650211 0.288034 0.133566
C52   C     C_R   0.621606 0.638591 0.290332 0.366694
C53   C     C_R   0.660524 0.879570 0.743430 -0.083443
H22   H     H_    0.800626 0.875070 0.723174 0.128753
C54   C     C_R   0.647699 0.911076 0.802688 -0.188202
H23   H     H_    0.779509 0.929856 0.826754 0.132767
C55   C     C_R   0.467659 0.918254 0.830444 -0.054647
C56   C     C_R   0.300553 0.893314 0.797052 -0.195958
H24   H     H_    0.159777 0.897578 0.816875 0.128580
C57   C     C_R   0.313845 0.861232 0.737658 -0.058643
H25   H     H_    0.183810 0.841472 0.712934 0.140701
C58   C     C_R   0.494160 0.853845 0.710321 0.362688
C59   C     C_2   0.646953 0.271926 0.006195 0.194500
C60   C     C_2   0.477883 0.230062 0.998063 -0.398689
H26   H     H_    0.345649 0.258971 0.989361 0.156661
O19   O     O_R   0.618210 0.960470 0.922400 -0.545103
O20   O     O_R   0.291310 0.111960 0.995450 -0.524033
O21   O     O_R   0.124210 0.039530 0.077580 -0.541025
C61   C     C_R   0.461743 0.145286 0.999084 0.836852
O22   O     O_R   0.288310 0.965490 0.917650 -0.547180
O23   O     O_R   0.121180 0.892010 0.999220 -0.542187
C62   C     C_R   0.456848 0.949794 0.893875 0.690029
O24   O     O_R   0.621230 0.107990 0.000760 -0.499652
O25   O     O_3   0.455770 0.976060 0.026840 -0.386071
V3    V     V_3+5 0.179680 0.004440 0.995020 1.488890
O26   O     O_R   0.791670 0.888040 0.004570 -0.551859
C63   C     C_R   0.961257 0.854919 0.001576 0.753194
O27   O     O_R   0.794680 0.034510 0.082370 -0.542154
C64   C     C_R   0.964184 0.050420 0.106097 0.746100
V4    V     V_3+5 0.680070 0.995560 0.005010 1.472385
O28   O     O_3   0.953840 0.023940 0.973160 -0.348012
Cl1   Cl    Cl    0.879541 0.596249 0.586929 -0.540908
Cl2   Cl    Cl    0.869803 0.232652 0.024013 -0.630991

loop_
_geom_bond_atom_site_label_1
_geom_bond_atom_site_label_2
_ccdc_geom_bond_type
C27   H11   S    
C6    C63   S    
C50   H20   S    
C40   C41   A    
C20   O14   S    
C51   H21   S    
C9    C12   A    
N3    C58   S    
C1    O6    A    
O20   C61   A    
C28   H12   S    
O27   C64   A    
C22   C23   A    
C21   H7    S    
C57   C58   A    
C46   O18   S    
O23   C63   A    
C13   C14   A    
C16   C20   A    
O5    C3    A    
C15   C16   A    
V3    O28   S    
C28   C29   A    
C13   H4    S    
C33   C37   A    
C53   H22   S    
C59   C60   D    
C30   C31   A    
C19   N2    A    
C54   H23   S    
C31   C32   A    
C3    C29   S    
C48   C49   A    
C16   C17   A    
C12   H3    S    
C35   C36   A    
O22   C62   A    
O19   V4    S    
C24   C25   A    
C40   C45   A    
O1    V2    S    
O24   V4    S    
C42   C46   A    
C47   C52   A    
N3    C34   A    
C29   C30   A    
C50   C51   A    
O9    C4    A    
N2    C26   S    
C4    C5    S    
C38   Cl1   S    
C36   C37   A    
C19   O13   S    
O8    V2    S    
C7    C11   A    
C25   C26   A    
C24   H9    S    
C21   C22   A    
C37   C44   A    
C41   C42   A    
C34   C35   A    
C9    C10   A    
O20   V3    S    
C45   N4    A    
C10   C11   A    
C23   C64   S    
C14   C19   A    
C59   Cl2   S    
C53   C58   A    
O23   V3    S    
C30   H13   S    
N2    C20   A    
O2    C1    A    
C42   C43   A    
O26   V4    S    
C14   C15   A    
O21   V3    S    
C11   C18   A    
C33   O15   S    
C22   H8    S    
C8    C9    A    
C27   C32   A    
C31   H14   S    
C54   C55   A    
C5    H1    S    
C36   C41   A    
C56   C57   A    
C43   C44   A    
O3    C4    A    
O26   C63   A    
C61   O24   A    
C55   C62   S    
C60   C61   S    
O25   V4    S    
C47   C48   A    
C21   C26   A    
C23   C24   A    
O6    V2    S    
C53   C54   A    
O9    V2    S    
V4    O28   S    
O2    V1    S    
C43   H16   S    
C56   H24   S    
C25   H10   S    
O4    C2    A    
O7    V1    S    
C10   C15   A    
O1    C2    A    
C18   H6    S    
N4    C52   S    
N1    C8    A    
C39   C40   A    
O5    V1    S    
O25   V3    S    
C51   C52   A    
C8    O12   S    
C57   H25   S    
O19   C62   A    
C17   C18   A    
C6    H2    S    
C27   C28   A    
O7    V2    S    
O4    V1    S    
O3    V1    S    
V1    O10   S    
C60   H26   S    
C48   H19   S    
O21   C64   A    
C35   C38   A    
C49   C50   A    
C5    C6    D    
C17   H5    S    
C33   N3    A    
C55   C56   A    
C39   H15   S    
O27   V4    S    
N1    C32   S    
N4    C46   A    
C45   O17   S    
C38   C39   A    
C7    O11   S    
C47   H18   S    
C44   H17   S    
C34   O16   S    
O22   V3    S    
C12   C13   A    
C2    C59   S    
C7    N1    A    
V2    O10   S    
O8    C3    A    
C1    C49   S    
