data_mof_unit_34801.cif
_audit_creation_date              2012-12-11T15:23:37-0500
_audit_creation_method            fapswitch 2.2
_symmetry_space_group_name_H-M    P1
_symmetry_Int_Tables_number       1
_space_group_crystal_system       triclinic
_cell_length_a                    6.955684
_cell_length_b                    17.554608
_cell_length_c                    19.295763
_cell_angle_alpha                 109.469927
_cell_angle_beta                  90.830359
_cell_angle_gamma                 90.973334
_cell_volume                      2220.53792848

loop_
_atom_site_label
_atom_site_type_symbol
_atom_type_description
_atom_site_fract_x
_atom_site_fract_y
_atom_site_fract_z
_atom_type_partial_charge
O1    O     O_R   0.505810 0.439670 0.562310 -0.516240
O2    O     O_R   0.169070 0.404920 0.411210 -0.526631
O3    O     O_R   0.005550 0.560330 0.437690 -0.517300
C1    C     C_R   0.337094 0.380700 0.383635 0.762502
O4    O     O_R   0.175650 0.430000 0.560110 -0.520067
O5    O     O_R   0.012170 0.585580 0.587650 -0.548566
C2    C     C_R   0.344548 0.415440 0.582078 0.772184
O6    O     O_R   0.499180 0.414420 0.412350 -0.547012
O7    O     O_3   0.341430 0.551020 0.508860 -0.382754
V1    V     V_3+5 0.063930 0.490540 0.498360 1.520593
O8    O     O_R   0.682850 0.595080 0.588790 -0.545365
C3    C     C_R   0.853872 0.617951 0.616868 0.709695
O9    O     O_R   0.676280 0.570000 0.439890 -0.548980
C4    C     C_R   0.844613 0.584947 0.418159 0.732117
V2    V     V_3+5 0.564760 0.509460 0.501640 1.462781
O10   O     O_3   0.837130 0.448980 0.491140 -0.357722
C5    C     C_R   0.761456 0.872674 0.177936 -0.266533
C6    C     C_R   0.914787 0.863148 0.129131 -0.183056
C7    C     C_R   0.055266 0.804594 0.126249 0.414808
C8    C     C_R   0.045069 0.759046 0.174408 0.004006
C9    C     C_R   0.891257 0.770154 0.223698 0.012014
C10   C     C_R   0.748873 0.826902 0.225107 0.091840
C11   C     C_R   0.184817 0.701828 0.173707 -0.177315
C12   C     C_R   0.170079 0.654997 0.219480 -0.177757
C13   C     C_R   0.017556 0.665267 0.268493 0.004662
C14   C     C_R   0.878966 0.724018 0.271431 0.014012
C15   C     C_R   0.725978 0.735675 0.321039 0.095180
C16   C     C_R   0.585351 0.792321 0.321733 -0.166391
C17   C     C_R   0.596286 0.837266 0.274050 -0.156190
C18   C     C_R   0.999056 0.616879 0.313655 0.408277
C19   C     C_R   0.854458 0.632436 0.367098 -0.179995
C20   C     C_R   0.716454 0.690794 0.369237 -0.284083
H1    H     H_    0.652823 0.916961 0.180092 0.171828
H2    H     H_    0.305654 0.692425 0.137258 0.168142
H3    H     H_    0.279728 0.611043 0.216711 0.170652
H4    H     H_    0.601543 0.701271 0.408470 0.151081
H5    H     H_    0.466254 0.801694 0.359030 0.126454
H6    H     H_    0.485357 0.880385 0.275599 0.132754
C21   C     C_3   0.773340 0.807574 0.746133 0.229463
C22   C     C_3   0.937987 0.774441 0.692763 -0.214451
H7    H     H_    0.981212 0.795205 0.646721 0.117675
C23   C     C_3   0.870697 0.688028 0.687260 -0.068522
C24   C     C_3   0.701892 0.721716 0.739167 -0.118765
C25   C     C_3   0.834163 0.725296 0.806140 -0.238414
C26   C     C_3   0.002441 0.690197 0.753308 -0.173843
C27   C     C_3   0.063683 0.777074 0.759871 0.212578
C28   C     C_3   0.901073 0.812014 0.812721 -0.014572
H8    H     H_    0.553813 0.695710 0.729301 0.097138
H9    H     H_    0.791571 0.705673 0.852908 0.107709
H10   H     H_    0.100694 0.641995 0.755911 0.104372
C29   C     C_3   0.530099 0.252893 0.299630 -0.254599
C30   C     C_3   0.391414 0.179905 0.261910 0.340098
H11   H     H_    0.646028 0.256744 0.340832 0.173589
C31   C     C_3   0.421589 0.189850 0.186052 -0.251135
C32   C     C_3   0.556068 0.262950 0.223732 0.139311
C33   C     C_3   0.386952 0.320487 0.237715 0.064529
C34   C     C_3   0.250195 0.248140 0.199920 0.376454
C35   C     C_3   0.216987 0.235943 0.274786 0.363440
C36   C     C_3   0.353069 0.309992 0.313028 -0.232038
C37   C     C_R   0.276711 0.117821 0.815125 -0.213216
C38   C     C_R   0.415888 0.137601 0.872047 -0.150738
C39   C     C_R   0.538999 0.205862 0.883005 0.122500
C40   C     C_R   0.524696 0.251331 0.834971 0.138114
C41   C     C_R   0.383622 0.230427 0.777438 -0.018519
C42   C     C_R   0.256969 0.164102 0.768435 -0.028294
C43   C     C_R   0.653397 0.316063 0.842019 -0.197561
C44   C     C_R   0.643941 0.359276 0.793458 -0.163123
C45   C     C_R   0.503321 0.340342 0.736926 0.037185
C46   C     C_R   0.371826 0.275277 0.728387 -0.125396
C47   C     C_R   0.230638 0.254760 0.670854 -0.068112
C48   C     C_R   0.101738 0.188566 0.663324 0.147560
C49   C     C_R   0.114059 0.144266 0.712282 0.391486
C50   C     C_R   0.492043 0.386441 0.689673 0.383599
C51   C     C_R   0.354146 0.366353 0.631770 -0.291967
C52   C     C_R   0.224329 0.300393 0.622000 0.416795
H12   H     H_    0.184748 0.064980 0.806943 0.175583
H13   H     H_    0.764629 0.333160 0.884578 0.162647
H14   H     H_    0.747884 0.408107 0.800751 0.162918
O11   O     O_R   0.271890 0.085690 0.087580 -0.529921
O12   O     O_R   0.595690 0.070020 0.939870 -0.547446
O13   O     O_R   0.758900 0.914390 0.912370 -0.531683
C53   C     C_R   0.426721 0.086565 0.919667 0.714227
O14   O     O_R   0.602020 0.095100 0.088770 -0.538762
O15   O     O_R   0.765280 0.939660 0.062330 -0.543796
C54   C     C_R   0.434609 0.119017 0.116163 0.768431
O16   O     O_R   0.265520 0.060430 0.937620 -0.544749
O17   O     O_3   0.429560 0.949050 0.991100 -0.358872
V3    V     V_3+5 0.707160 0.009450 0.001650 1.450362
O18   O     O_R   0.094540 0.929890 0.060190 -0.512139
C55   C     C_R   0.925741 0.914372 0.081353 0.733618
O19   O     O_R   0.088200 0.904800 0.911290 -0.532744
C56   C     C_R   0.917343 0.882110 0.883125 0.691674
V4    V     V_3+5 0.206300 0.990390 0.998440 1.499390
O20   O     O_3   0.934030 0.050940 0.008900 -0.375202
N1    N     N_3   0.650535 0.872678 0.742988 -0.649364
H15   H     H_    0.601375 0.858444 0.688618 0.223688
H16   H     H_    0.737798 0.924587 0.754536 0.220494
N2    N     N_3   0.259594 0.809073 0.770907 -0.628000
H17   H     H_    0.327646 0.783449 0.720925 0.232806
H18   H     H_    0.326321 0.788065 0.809713 0.230964
O21   O     O_3   0.403955 0.102421 0.268575 -0.559496
C57   C     C_3   0.394309 0.108534 0.342950 -0.288770
H19   H     H_    0.252067 0.130340 0.365223 0.151716
H20   H     H_    0.512227 0.147683 0.376659 0.135590
H21   H     H_    0.410795 0.047365 0.346887 0.162733
N3    N     N_3   0.738380 0.278644 0.195101 -0.573262
H22   H     H_    0.793397 0.333315 0.231251 0.238627
H23   H     H_    0.710387 0.287013 0.144805 0.220645
N4    N     N_3   0.396059 0.397697 0.224877 -0.664744
H24   H     H_    0.494223 0.435201 0.263186 0.240677
H25   H     H_    0.454253 0.387972 0.173124 0.212737
O22   O     O_3   0.100669 0.243124 0.148290 -0.538339
C58   C     C_3   0.166413 0.268743 0.090721 -0.172356
H26   H     H_    0.070051 0.241727 0.042041 0.154986
H27   H     H_    0.314888 0.249334 0.073628 0.076471
H28   H     H_    0.156943 0.335345 0.106490 0.140977
O23   O     O_3   0.205748 0.793298 0.077883 -0.545738
C59   C     C_3   0.145768 0.736571 0.009735 -0.239313
H29   H     H_    0.022624 0.758823 0.984968 0.109833
H30   H     H_    0.107638 0.677037 0.015225 0.120777
H31   H     H_    0.266681 0.727200 0.971120 0.154612
O24   O     O_3   0.038175 0.222759 0.303158 -0.560729
C60   C     C_3   0.955800 0.148150 0.258290 -0.189692
H32   H     H_    0.048598 0.096398 0.254794 0.146741
H33   H     H_    0.920641 0.148550 0.202165 0.209304
H34   H     H_    0.820262 0.136926 0.283051 0.161176
N5    N     N_3   0.676774 0.230603 0.943007 -0.699177
H35   H     H_    0.782496 0.187040 0.934212 0.241049
H36   H     H_    0.606889 0.236006 0.991964 0.215643
O25   O     O_3   0.619376 0.450854 0.699533 -0.537756
C61   C     C_3   0.535550 0.521504 0.746488 -0.273801
H37   H     H_    0.485657 0.514209 0.798565 0.122794
H38   H     H_    0.414744 0.540603 0.718135 0.119189
H39   H     H_    0.646455 0.570467 0.761705 0.165514
O26   O     O_3   0.084500 0.283669 0.566876 -0.516143
C62   C     C_3   0.163690 0.234825 0.500349 -0.140902
H40   H     H_    0.223827 0.178459 0.505364 0.113206
H41   H     H_    0.276193 0.268066 0.480801 0.080947
H42   H     H_    0.047030 0.217059 0.457826 0.172417
N6    N     N_3   0.959814 0.164431 0.604877 -0.600773
H43   H     H_    0.822796 0.171826 0.627209 0.240274
H44   H     H_    0.977071 0.103399 0.574539 0.241633
O27   O     O_3   0.995670 0.076641 0.700258 -0.559150
C63   C     C_3   0.830835 0.099281 0.743375 -0.262673
H45   H     H_    0.866835 0.113786 0.802695 0.142040
H46   H     H_    0.725889 0.047888 0.727243 0.167811
H47   H     H_    0.758550 0.151102 0.734250 0.143374
O28   O     O_3   0.114293 0.550659 0.302424 -0.550476
C64   C     C_3   0.012129 0.481438 0.256415 -0.182975
H48   H     H_    0.852668 0.484004 0.262007 0.069303
H49   H     H_    0.056357 0.428576 0.271363 0.195493
H50   H     H_    0.047929 0.471024 0.198135 0.149898

loop_
_geom_bond_atom_site_label_1
_geom_bond_atom_site_label_2
_ccdc_geom_bond_type
C25   H9    S    
C49   O27   S    
C9    C14   A    
V4    O20   S    
C10   C17   A    
C28   C56   S    
C31   C32   S    
N1    H15   S    
O11   C54   A    
C4    C19   S    
C1    O6    A    
C61   H39   S    
C64   H48   S    
C60   H32   S    
C26   C27   S    
C22   C27   S    
C14   C15   A    
O21   C57   S    
C5    H1    S    
C20   H4    S    
C16   C17   A    
N6    H44   S    
O11   V4    S    
C38   C53   S    
C62   H42   S    
O5    C3    A    
C39   N5    S    
C52   O26   S    
C60   H33   S    
C34   O22   S    
N3    H22   S    
O27   C63   S    
C33   C34   S    
C57   H21   S    
C6    C7    A    
C50   C51   A    
C59   H29   S    
C3    C23   S    
C57   H19   S    
C27   C28   S    
O13   C56   A    
O8    V2    S    
C7    C8    A    
C45   C46   A    
C17   H6    S    
C11   C12   A    
N5    H35   S    
C47   C48   A    
O1    V2    S    
C24   H8    S    
C25   C28   S    
C58   H28   S    
C45   C50   A    
C22   C23   S    
O14   V3    S    
C27   N2    S    
C40   C43   A    
O9    C4    A    
O18   V4    S    
C64   H49   S    
C38   C39   A    
C44   H14   S    
O15   C55   A    
C63   H47   S    
O22   C58   S    
C30   C31   S    
C2    C51   S    
V3    O20   S    
C30   O21   S    
C35   O24   S    
C12   H3    S    
C51   C52   A    
C32   N3    S    
C44   C45   A    
C6    C55   S    
O26   C62   S    
C12   C13   A    
C62   H41   S    
C64   H50   S    
O19   C56   A    
O4    C2    A    
C63   H45   S    
C60   H34   S    
C21   C24   S    
C13   C14   A    
C53   O16   A    
C37   H12   S    
C29   C30   S    
C37   C38   A    
C29   H11   S    
C23   C26   S    
O2    C1    A    
C24   C25   S    
N5    H36   S    
C39   C40   A    
O16   V4    S    
O19   V4    S    
C19   C20   A    
C8    C11   A    
C11   H2    S    
C32   C33   S    
C5    C6    A    
C41   C46   A    
N6    H43   S    
C57   H20   S    
C21   N1    S    
O3    C4    A    
C30   C35   S    
C63   H46   S    
C22   H7    S    
O14   C54   A    
C37   C42   A    
O6    V2    S    
N2    H18   S    
O9    V2    S    
C29   C36   S    
C23   C24   S    
C61   H37   S    
O2    V1    S    
C33   N4    S    
C21   C22   S    
C25   C26   S    
C21   C28   S    
C58   H26   S    
O7    V1    S    
C13   C18   A    
C43   H13   S    
C50   O25   S    
C15   C20   A    
O1    C2    A    
O15   V3    S    
C62   H40   S    
C61   H38   S    
O5    V1    S    
C31   C54   S    
O8    C3    A    
N1    H16   S    
C18   O28   S    
C48   N6    S    
C42   C49   A    
C5    C10   A    
C33   C36   S    
C41   C42   A    
N4    H25   S    
O25   C61   S    
C35   C36   S    
C48   C49   A    
O12   V3    S    
O3    V1    S    
V1    O10   S    
O23   C59   S    
C26   H10   S    
C34   C35   S    
C18   C19   A    
N3    H23   S    
C16   H5    S    
O17   V4    S    
C1    C36   S    
O12   C53   A    
C43   C44   A    
C29   C32   S    
O28   C64   S    
O7    V2    S    
C46   C47   A    
C59   H30   S    
O13   V3    S    
C40   C41   A    
O4    V1    S    
C8    C9    A    
C7    O23   S    
O17   V3    S    
N2    H17   S    
N4    H24   S    
C47   C52   A    
O24   C60   S    
C58   H27   S    
O18   C55   A    
C9    C10   A    
C59   H31   S    
V2    O10   S    
C15   C16   A    
C31   C34   S    
