data_mof_unit_43449.cif
_audit_creation_date              2012-12-11T14:36:09-0500
_audit_creation_method            fapswitch 2.2
_symmetry_space_group_name_H-M    P1
_symmetry_Int_Tables_number       1
_space_group_crystal_system       triclinic
_cell_length_a                    13.486531
_cell_length_b                    13.478532
_cell_length_c                    27.485999
_cell_angle_alpha                 90.56273
_cell_angle_beta                  89.749038
_cell_angle_gamma                 60.124421
_cell_volume                      4331.93925661

loop_
_atom_site_label
_atom_site_type_symbol
_atom_type_description
_atom_site_fract_x
_atom_site_fract_y
_atom_site_fract_z
_atom_type_partial_charge
C1    C     C_R   0.619619 0.101089 0.570371 0.548679
C2    C     C_1   0.629467 0.734280 0.616914 -0.003412
C3    C     C_3   0.696969 0.567455 0.769187 -0.080560
C4    C     C_3   0.678017 0.661321 0.806455 0.042025
C5    C     C_3   0.587834 0.654816 0.742413 -0.079257
C6    C     C_3   0.661395 0.688632 0.711620 0.056960
C7    C     C_3   0.569068 0.748341 0.780393 -0.115211
C8    C     C_3   0.642457 0.782675 0.748872 -0.112170
C9    C     C_1   0.687396 0.639081 0.858759 -0.060597
C10   C     C_1   0.647394 0.708593 0.659144 -0.039738
C11   C     C_3   0.109564 0.118870 0.740451 -0.064502
C12   C     C_R   0.599181 0.780004 0.568928 0.544601
C13   C     C_3   0.204413 0.053013 0.778305 -0.114142
C14   C     C_1   0.102120 0.198844 0.902810 -0.014875
C15   C     C_1   0.233565 0.136429 0.618487 -0.008060
C16   C     C_3   0.063954 0.229597 0.771675 -0.059741
C17   C     C_3   0.159063 0.163641 0.808714 0.046446
C18   C     C_3   0.144149 0.261750 0.744258 -0.113114
C19   C     C_3   0.189340 0.151264 0.713773 0.042946
C20   C     C_3   0.238951 0.196048 0.782019 -0.109090
C21   C     C_3   0.284800 0.085210 0.750737 -0.106743
C22   C     C_1   0.133638 0.177926 0.860998 -0.052758
C23   C     C_R   0.278180 0.121618 0.569905 0.548109
C24   C     C_1   0.208947 0.144438 0.661086 -0.051652
C25   C     C_3   0.685704 0.237456 0.739304 0.112249
C26   C     C_3   0.583637 0.284701 0.775389 -0.143542
C27   C     C_1   0.689514 0.206925 0.903686 -0.015742
C28   C     C_1   0.632118 0.131468 0.619095 0.008578
C29   C     C_3   0.757470 0.138304 0.773578 0.308755
C30   C     C_3   0.656402 0.184515 0.809522 0.031499
C31   C     C_3   0.716228 0.062523 0.748293 -0.141130
C32   C     C_3   0.643396 0.163383 0.714364 -0.000015
C33   C     C_3   0.613684 0.109549 0.784840 -0.160072
C34   C     C_R   0.623304 0.099617 0.431188 0.551227
C35   C     C_3   0.540732 0.209544 0.749941 -0.131098
C36   C     C_1   0.670259 0.195728 0.861822 -0.037617
C37   C     C_1   0.637947 0.149092 0.661724 -0.023917
C38   C     C_R   0.742211 0.694606 0.361469 -0.125531
C39   C     C_R   0.757070 0.671066 0.311410 0.021698
C40   C     C_R   0.770640 0.648809 0.209445 0.001519
C41   C     C_R   0.859594 0.649419 0.235579 -0.124736
C42   C     C_R   0.851764 0.662794 0.286242 -0.121892
C43   C     C_R   0.777708 0.633017 0.158958 -0.181083
C44   C     C_R   0.686405 0.634873 0.133619 -0.018879
C45   C     C_R   0.603189 0.773936 0.430887 0.546455
C46   C     C_R   0.568068 0.683052 0.360291 -0.124474
C47   C     C_R   0.578374 0.665687 0.310340 0.016802
C48   C     C_R   0.670992 0.663489 0.285470 0.065497
C49   C     C_R   0.492171 0.660180 0.284569 -0.154423
C50   C     C_R   0.491326 0.664032 0.234121 -0.121492
C51   C     C_R   0.581888 0.664020 0.208814 0.029313
C52   C     C_R   0.675037 0.657878 0.234555 0.016667
C53   C     C_R   0.582074 0.667704 0.158185 0.261768
C54   C     C_R   0.643067 0.709099 0.385055 -0.011366
C55   C     C_R   0.189698 0.073326 0.361122 -0.106376
C56   C     C_R   0.278014 0.121190 0.431024 0.548891
C57   C     C_R   0.160008 0.087655 0.311713 0.029066
C58   C     C_R   0.117803 0.110212 0.211183 -0.039365
C59   C     C_R   0.105916 0.028056 0.237448 -0.121239
C60   C     C_R   0.128484 0.014940 0.287583 0.273357
C61   C     C_R   0.093916 0.124408 0.161638 -0.136012
C62   C     C_R   0.099092 0.211923 0.136345 -0.005355
C63   C     C_R   0.214774 0.239768 0.358400 -0.122848
C64   C     C_R   0.192765 0.251031 0.309236 0.014390
C65   C     C_R   0.166868 0.173985 0.285409 0.016785
C66   C     C_R   0.201234 0.335597 0.283349 -0.122843
C67   C     C_3   0.770438 0.601584 0.737655 -0.094065
C68   C     C_R   0.184898 0.343609 0.233452 -0.126657
C69   C     C_R   0.157953 0.268475 0.209281 0.023314
C70   C     C_R   0.148255 0.183602 0.235237 0.049183
C71   C     C_R   0.135362 0.280547 0.159887 -0.139019
C72   C     C_R   0.220980 0.146982 0.383917 -0.016776
C73   C     C_R   0.563020 0.233594 0.361764 -0.153195
C74   C     C_R   0.566758 0.250731 0.311901 0.011606
C75   C     C_R   0.574743 0.282411 0.211266 0.015338
C76   C     C_R   0.493703 0.371511 0.240931 -0.125188
C77   C     C_R   0.488342 0.354965 0.290810 -0.123345
C78   C     C_3   0.751755 0.695142 0.775779 -0.105890
C79   C     C_R   0.588697 0.300259 0.162162 -0.137520
C80   C     C_R   0.674692 0.210856 0.134028 -0.009290
C81   C     C_R   0.739121 0.049175 0.354147 0.059344
C82   C     C_R   0.732776 0.057883 0.303280 -0.003200
C83   C     C_R   0.648564 0.160759 0.282365 0.041727
C84   C     C_R   0.808454 0.966654 0.272706 -0.108962
C85   C     C_R   0.804794 0.978817 0.222665 -0.142336
C86   C     C_R   0.728470 0.083735 0.202276 0.014736
C87   C     C_R   0.649237 0.175177 0.231877 0.068054
C88   C     C_R   0.736623 0.100838 0.153202 -0.132779
C89   C     C_1   0.696803 0.610999 0.900714 -0.017901
C90   C     C_R   0.646331 0.131672 0.382980 -0.020387
C91   C     C_R   0.050276 0.235755 0.950027 0.544937
C92   C     C_R   0.711611 0.563492 0.948327 0.539159
C93   C     C_R   0.722070 0.225287 0.951063 0.542654
C94   C     C_R   0.046599 0.245736 0.088733 0.544190
C95   C     C_R   0.707818 0.574992 0.086586 0.542336
C96   C     C_R   0.717557 0.233749 0.089020 0.546250
Cr1   Cr    Cr6+3 0.417550 0.169090 0.500530 1.029973
Cr2   Cr    Cr6+3 0.669180 0.913420 0.499920 1.059933
Cr3   Cr    Cr6+3 0.413260 0.917540 0.499520 1.032305
Cr4   Cr    Cr6+3 0.909170 0.177380 0.020380 1.011462
Cr5   Cr    Cr6+3 0.912710 0.429210 0.018220 1.015594
Cr6   Cr    Cr6+3 0.657170 0.432570 0.019030 1.036465
H1    H     H_    0.818655 0.712347 0.790111 0.102616
H2    H     H_    0.292467 0.227199 0.799633 0.106059
H3    H     H_    0.118811 0.347627 0.729721 0.105168
H4    H     H_    0.973175 0.289642 0.781480 0.161183
H5    H     H_    0.529507 0.375652 0.786782 0.115701
H6    H     H_    0.451054 0.238461 0.739502 0.123384
H7    H     H_    0.583312 0.057524 0.804143 0.110226
H8    H     H_    0.767096 0.971695 0.736263 0.095548
H9    H     H_    0.856409 0.612567 0.139982 0.133259
H10   H     H_    0.852893 0.540880 0.719620 0.102522
H11   H     H_    0.802761 0.709992 0.381118 0.175000
H12   H     H_    0.933989 0.641707 0.216803 0.099574
H13   H     H_    0.919169 0.667386 0.305639 0.130363
H14   H     H_    0.420977 0.664595 0.215031 0.146178
H15   H     H_    0.423211 0.657447 0.303528 0.090712
H16   H     H_    0.493431 0.690062 0.378656 0.131656
H17   H     H_    0.065384 0.071392 0.143505 0.130811
H18   H     H_    0.193442 0.002751 0.381190 0.165738
H19   H     H_    0.077930 0.974796 0.219205 0.111788
H20   H     H_    0.619961 0.871580 0.739878 0.102390
H21   H     H_    0.139397 0.348134 0.140461 0.126397
H22   H     H_    0.191907 0.409316 0.213884 0.100176
H23   H     H_    0.222100 0.394426 0.301600 0.103633
H24   H     H_    0.236594 0.298946 0.375695 0.137909
H25   H     H_    0.539175 0.385104 0.147119 0.140328
H26   H     H_    0.493748 0.298382 0.383851 0.126430
H27   H     H_    0.435655 0.454125 0.225668 0.105568
H28   H     H_    0.425219 0.424533 0.313189 0.096577
H29   H     H_    0.800641 0.030694 0.131157 0.126606
H30   H     H_    0.486530 0.808964 0.798399 0.102719
H31   H     H_    0.865256 0.907571 0.200098 0.096793
H32   H     H_    0.869803 0.884620 0.286858 0.144962
H33   H     H_    0.520850 0.637640 0.728181 0.137940
H34   H     H_    0.719450 0.478883 0.778682 0.140324
H35   H     H_    0.229863 0.967172 0.792905 0.093022
H36   H     H_    0.056576 0.087581 0.722487 0.160614
H37   H     H_    0.376074 0.025653 0.741468 0.105026
O1    O     O_R   0.301710 0.195650 0.554160 -0.505246
O2    O     O_R   0.658900 0.818120 0.449760 -0.490188
O3    O     O_R   0.503220 0.801620 0.445520 -0.521050
O4    O     O_R   0.319370 0.022040 0.450020 -0.498821
O5    O     O_3   0.499990 0.000010 0.499990 -0.255285
O6    O     O_R   0.818720 0.150820 0.967160 -0.514598
O7    O     O_R   0.006410 0.181720 0.970200 -0.495200
O8    O     O_R   0.027890 0.334070 0.964920 -0.508029
O9    O     O_R   0.809600 0.521790 0.967960 -0.496470
O10   O     O_R   0.635520 0.542770 0.964420 -0.512264
O11   O     O_R   0.665950 0.325030 0.970100 -0.494737
O12   O     O_R   0.522390 0.158990 0.550460 -0.493814
O13   O     O_R   0.816620 0.158530 0.074540 -0.523917
O14   O     O_R   0.004460 0.188870 0.069750 -0.505745
O15   O     O_R   0.025800 0.341780 0.072300 -0.519984
O16   O     O_R   0.807650 0.528950 0.067500 -0.511781
O17   O     O_R   0.633420 0.550490 0.071810 -0.468970
O18   O     O_R   0.664000 0.332180 0.069640 -0.496797
O19   O     O_3   0.826350 0.346390 0.019210 -0.242799
O20   O     O_R   0.694390 0.003530 0.554040 -0.505199
O21   O     O_R   0.657700 0.819660 0.549320 -0.499335
O22   O     O_R   0.501930 0.803280 0.552920 -0.503198
O23   O     O_R   0.318170 0.023580 0.549580 -0.493371
O24   O     O_R   0.303010 0.193990 0.446760 -0.522015
O25   O     O_R   0.523600 0.157450 0.450900 -0.507219
O26   O     O_R   0.695690 0.001860 0.446640 -0.473880
C97   C     C_2   0.722938 0.309264 0.712107 0.564197
O27   O     O_2   0.653595 0.389126 0.687879 -0.538344
O28   O     O_R   0.836495 0.284010 0.714024 -0.706726
H38   H     H_    0.851002 0.338569 0.694144 0.325493
O29   O     O_3   0.868302 0.112478 0.788180 -0.549304
C98   C     C_3   0.943125 0.993244 0.791372 0.008957
H39   H     H_    0.031274 0.979262 0.793751 0.148474
H40   H     H_    0.942263 0.946680 0.757908 0.117885
C99   C     C_3   0.920035 0.943749 0.837326 -0.271065
H41   H     H_    0.923520 0.991538 0.869851 0.191727
H42   H     H_    0.833810 0.952517 0.835802 0.156681
C100  C     C_3   0.008076 0.817239 0.842499 -0.485642
H43   H     H_    0.004769 0.767655 0.810631 0.142585
H44   H     H_    0.989132 0.783815 0.875923 0.153424
H45   H     H_    0.095455 0.805403 0.845360 0.148264
O30   O     O_3   0.482395 0.693690 0.133549 -0.569066
C101  C     C_3   0.446637 0.793410 0.105464 0.017033
H46   H     H_    0.375879 0.802893 0.081848 0.152555
H47   H     H_    0.515382 0.785514 0.080434 0.126322
C102  C     C_3   0.401790 0.901843 0.137485 -0.282822
H48   H     H_    0.325682 0.914811 0.158578 0.168922
H49   H     H_    0.468225 0.892977 0.163625 0.164050
C103  C     C_3   0.370207 0.006563 0.106535 -0.473743
H50   H     H_    0.444945 0.993537 0.084376 0.145110
H51   H     H_    0.344153 0.082239 0.130624 0.164433
H52   H     H_    0.298479 0.023088 0.082015 0.148827
O31   O     O_3   0.108797 0.939377 0.314087 -0.556330
C104  C     C_3   0.184583 0.824859 0.299322 0.002692
H53   H     H_    0.236454 0.779092 0.331393 0.142162
H54   H     H_    0.245412 0.815161 0.269483 0.113568
C105  C     C_3   0.115934 0.768042 0.283588 -0.259077
H55   H     H_    0.060542 0.771633 0.314335 0.203007
H56   H     H_    0.061242 0.814715 0.252319 0.151791
C106  C     C_3   0.193618 0.643294 0.268605 -0.499719
H57   H     H_    0.248843 0.637120 0.237317 0.141177
H58   H     H_    0.140640 0.605046 0.257650 0.139634
H59   H     H_    0.247781 0.594468 0.299606 0.139727
C107  C     C_2   0.845438 0.959772 0.377124 0.610083
O32   O     O_2   0.872312 0.858928 0.373893 -0.579858
O33   O     O_R   0.912216 0.992634 0.404055 -0.661146
H60   H     H_    0.982247 0.924866 0.418184 0.339409

loop_
_geom_bond_atom_site_label_1
_geom_bond_atom_site_label_2
_ccdc_geom_bond_type
Cr4   O14   S    
C59   H19   S    
C66   C68   A    
C107  O32   D    
Cr5   O9    S    
C40   C41   A    
C61   H17   S    
C73   C74   A    
Cr3   O3    S    
C83   C87   A    
C41   H12   S    
C98   H39   S    
C2    C12   S    
C68   H22   S    
C91   O8    A    
C81   C82   A    
C7    C8    S    
C97   O28   S    
C85   C86   A    
Cr4   O13   S    
C98   H40   S    
C56   O24   A    
C11   C19   S    
C20   C21   S    
C103  H52   S    
C106  H57   S    
C50   H14   S    
Cr5   O15   S    
C71   H21   S    
C19   C21   S    
C11   H36   S    
C73   C90   A    
C18   C19   S    
C34   O25   A    
C4    C7    S    
C5    C6    S    
C86   C88   A    
C102  H49   S    
C92   O9    A    
O29   C98   S    
Cr5   O16   S    
C65   C70   A    
C96   O13   A    
O30   C101  S    
C17   C20   S    
C46   H16   S    
C103  H51   S    
C3    H34   S    
C41   C42   A    
C69   C71   A    
C99   H41   S    
C79   H25   S    
C35   H6    S    
C12   O22   A    
Cr3   O22   S    
C56   O4    A    
C44   C53   A    
C40   C43   A    
C49   H15   S    
C31   C32   S    
Cr4   O7    S    
C16   C17   S    
C56   C72   S    
C74   C77   A    
C1    C28   S    
C31   C33   S    
C93   O6    A    
C29   O29   S    
C80   C96   S    
C34   O26   A    
C45   C54   S    
C74   C83   A    
Cr1   O1    S    
C18   C20   S    
C55   C72   A    
C16   H4    S    
C23   O23   A    
C57   C60   A    
C104  C105  S    
C58   C61   A    
C15   C23   S    
C96   O18   A    
C59   C60   A    
C8    C78   S    
Cr6   O19   S    
C93   O11   A    
C61   C62   A    
C67   C78   S    
C43   H9    S    
C105  C106  S    
Cr6   O18   S    
C39   C42   A    
C99   H42   S    
C55   H18   S    
C25   C29   S    
C38   C39   A    
C98   C99   S    
C51   C52   A    
C63   H24   S    
C32   C35   S    
Cr3   O5    S    
C1    O20   A    
C84   C85   A    
C76   C77   A    
C81   C107  S    
C9    C89   T    
C26   C35   S    
C5    C7    S    
C38   H11   S    
C86   C87   A    
C58   C70   A    
C102  C103  S    
C6    C8    S    
Cr1   O24   S    
C25   C26   S    
O33   H60   S    
C12   O21   A    
C63   C64   A    
C103  H50   S    
C51   C53   A    
C101  C102  S    
C13   H35   S    
C75   C76   A    
C34   C90   S    
Cr1   O5    S    
C4    C78   S    
C29   C30   S    
C53   O30   S    
C106  H59   S    
Cr3   O23   S    
C107  O33   S    
C11   C16   S    
C23   O1    A    
C47   C48   A    
C38   C54   A    
Cr4   O6    S    
C60   O31   S    
C100  H45   S    
C84   H32   S    
C46   C54   A    
C76   H27   S    
C104  H54   S    
C50   C51   A    
Cr1   O12   S    
C13   C21   S    
C67   H10   S    
C16   C18   S    
C32   C37   S    
C95   O17   A    
C89   C92   S    
C99   C100  S    
C7    H30   S    
C45   O2    A    
C81   C90   A    
C75   C87   A    
O28   H38   S    
Cr6   O11   S    
Cr5   O19   S    
C104  H53   S    
C82   C84   A    
C62   C94   S    
C43   C44   A    
C45   O3    A    
C27   C36   T    
C49   C50   A    
C27   C93   S    
C33   H7    S    
C21   H37   S    
C3    C4    S    
C2    C10   T    
Cr6   O17   S    
C6    C67   S    
Cr3   O4    S    
C5    H33   S    
Cr2   O2    S    
C46   C47   A    
C15   C24   T    
C30   C33   S    
Cr2   O5    S    
C78   H1    S    
C105  H56   S    
C68   C69   A    
C3    C67   S    
Cr2   O21   S    
C105  H55   S    
C3    C5    S    
C26   H5    S    
C6    C10   S    
C26   C30   S    
C20   H2    S    
C30   C36   S    
C25   C97   S    
C47   C49   A    
C73   H26   S    
C17   C22   S    
C66   H23   S    
C13   C17   S    
Cr1   O25   S    
O31   C104  S    
C14   C22   T    
C55   C57   A    
C19   C24   S    
C58   C59   A    
C18   H3    S    
C80   C88   A    
C44   C95   S    
C40   C52   A    
C64   C65   A    
C94   O15   A    
C11   C13   S    
Cr5   O8    S    
C102  H48   S    
C97   O27   D    
C28   C37   T    
C25   C32   S    
C94   O14   A    
C63   C72   A    
C33   C35   S    
C31   H8    S    
C100  H44   S    
C62   C71   A    
C1    O12   A    
C95   O16   A    
C77   H28   S    
C8    H20   S    
C69   C70   A    
C101  H47   S    
C14   C91   S    
Cr2   O26   S    
C100  H43   S    
Cr6   O10   S    
C79   C80   A    
Cr4   O19   S    
C42   H13   S    
C48   C52   A    
Cr2   O20   S    
C29   C31   S    
C82   C83   A    
C85   H31   S    
C92   O10   A    
C106  H58   S    
C88   H29   S    
C4    C9    S    
C75   C79   A    
C91   O7    A    
C101  H46   S    
C64   C66   A    
C39   C48   A    
C57   C65   A    
