data_mof_unit_42474.cif
_audit_creation_date              2012-12-10T17:56:42-0500
_audit_creation_method            fapswitch 2.2
_symmetry_space_group_name_H-M    P1
_symmetry_Int_Tables_number       1
_space_group_crystal_system       triclinic
_cell_length_a                    10.814136
_cell_length_b                    9.537507
_cell_length_c                    10.800993
_cell_angle_alpha                 86.897484
_cell_angle_beta                  91.210506
_cell_angle_gamma                 90.130262
_cell_volume                      1112.13153249

loop_
_atom_site_label
_atom_site_type_symbol
_atom_type_description
_atom_site_fract_x
_atom_site_fract_y
_atom_site_fract_z
_atom_type_partial_charge
C1    C     C_R   0.262162 0.499712 0.496269 0.903633
C2    C     C_R   0.737334 0.500480 0.495075 0.731290
C3    C     C_R   0.937213 0.602910 0.548883 -0.216599
C4    C     C_R   0.064838 0.601925 0.549697 -0.170163
C5    C     C_R   0.447464 0.079712 0.403744 0.019055
C6    C     C_R   0.552422 0.068211 0.595901 0.005911
C7    C     C_R   0.446458 0.931146 0.404238 0.054025
C8    C     C_R   0.553901 0.920023 0.595377 -0.016995
C9    C     C_R   0.505599 0.504985 0.262295 0.850612
C10   C     C_R   0.507993 0.495928 0.737833 0.859911
C11   C     C_R   0.723666 0.608578 0.117045 -0.039719
C12   C     C_R   0.742023 0.481223 0.890806 -0.010982
C13   C     C_R   0.838077 0.596955 0.061176 -0.186785
C14   C     C_R   0.847603 0.530659 0.951109 -0.186040
C15   C     C_R   0.622610 0.502146 0.940721 0.035747
C16   C     C_R   0.616260 0.546124 0.063233 0.035695
C17   C     C_R   0.504490 0.520488 0.127288 -0.077443
C18   C     C_R   0.509706 0.484640 0.873050 -0.082932
C19   C     C_R   0.392908 0.495015 0.062141 -0.070431
C20   C     C_R   0.394901 0.481410 0.933465 -0.074121
C21   C     C_R   0.061889 0.398080 0.422199 -0.041540
C22   C     C_R   0.932454 0.401241 0.419147 -0.076090
C23   C     C_R   0.870811 0.501419 0.486559 -0.092716
C24   C     C_R   0.127894 0.498839 0.489018 -0.031872
Cu1   Cu    Cu3+1 0.500000 0.640660 0.500000 0.995584
Cu2   Cu    Cu3+1 0.500000 0.359340 0.500000 1.029775
H1    H     H_    0.920589 0.641867 0.101975 0.152553
H2    H     H_    0.938608 0.515940 0.913598 0.134079
H3    H     H_    0.890180 0.680762 0.600145 0.159939
H4    H     H_    0.114528 0.679667 0.600920 0.156592
H5    H     H_    0.406223 0.139263 0.325809 0.156084
H6    H     H_    0.592926 0.118033 0.673512 0.197302
H7    H     H_    0.403303 0.879852 0.327545 0.162314
H8    H     H_    0.598104 0.860382 0.671884 0.139475
N1    N     N_R   0.500000 0.852070 0.500000 -0.172824
N2    N     N_R   0.500000 0.147940 0.500000 -0.175953
O1    O     O_R   0.319640 0.618740 0.499990 -0.578478
O2    O     O_R   0.680360 0.618740 0.500010 -0.597239
O3    O     O_R   0.319620 0.381170 0.499990 -0.559306
O4    O     O_R   0.680380 0.381170 0.500010 -0.564545
O5    O     O_R   0.500000 0.618810 0.319650 -0.535873
O6    O     O_R   0.500000 0.618810 0.680350 -0.612541
O7    O     O_R   0.499970 0.381240 0.319640 -0.594197
O8    O     O_R   0.500030 0.381240 0.680360 -0.513722
C25   C     C_2   0.272702 0.487112 0.127042 0.312136
H9    H     H_    0.200182 0.417348 0.096454 0.088127
O9    O     O_2   0.251584 0.563018 0.211475 -0.566989
C26   C     C_2   0.275660 0.467588 0.862941 0.313024
H10   H     H_    0.194865 0.525832 0.888614 0.056606
O10   O     O_2   0.265199 0.387406 0.779051 -0.533525
C27   C     C_2   0.719209 0.711536 0.213824 0.393942
H11   H     H_    0.791413 0.712459 0.285046 0.073713
O11   O     O_2   0.641975 0.804942 0.207463 -0.511374
C28   C     C_2   0.765355 0.383727 0.793291 0.340802
H12   H     H_    0.840853 0.402964 0.730337 0.073880
O12   O     O_2   0.709881 0.272703 0.792028 -0.544633
C29   C     C_1   0.124746 0.293336 0.354195 0.285659
N3    N     N_1   0.173264 0.209029 0.299444 -0.309173
C30   C     C_1   0.863689 0.305677 0.342951 0.258778
N4    N     N_1   0.808917 0.229806 0.282083 -0.231446

loop_
_geom_bond_atom_site_label_1
_geom_bond_atom_site_label_2
_ccdc_geom_bond_type
Cu1   O6    S    
C5    H5    S    
C15   C18   A    
C6    H6    S    
C19   C25   S    
C21   C29   S    
C13   C14   A    
Cu1   O2    S    
C10   O6    A    
C11   C13   A    
C11   C16   A    
C2    O2    A    
C9    O5    A    
C19   C20   A    
C12   C15   A    
C1    O1    A    
C4    H4    S    
Cu1   O1    S    
C26   O10   D    
C12   C14   A    
Cu2   O8    S    
C30   N4    T    
C8    H8    S    
C21   C22   A    
C7    H7    S    
Cu2   O4    S    
C29   N3    T    
C20   C26   S    
C7    N1    A    
Cu1   N1    S    
C9    C17   S    
C26   H10   S    
C17   C19   A    
C10   C18   S    
Cu2   O7    S    
C18   C20   A    
C25   O9    D    
C4    C24   A    
C28   O12   D    
Cu2   O3    S    
C9    O7    A    
C11   C27   S    
C1    O3    A    
C10   O8    A    
C15   C16   A    
C5    N2    A    
C2    O4    A    
C2    C23   S    
C27   H11   S    
C1    C24   S    
C3    H3    S    
C21   C24   A    
Cu1   O5    S    
C22   C30   S    
C5    C7    A    
Cu2   N2    S    
C28   H12   S    
C13   H1    S    
C6    C8    A    
C14   H2    S    
Cu1   Cu2   S    
C25   H9    S    
C3    C23   A    
C22   C23   A    
C12   C28   S    
C3    C4    A    
C6    N2    A    
C16   C17   A    
C27   O11   D    
C8    N1    A    
