data_mof_unit_48050.cif
_audit_creation_date              2012-12-11T14:08:35-0500
_audit_creation_method            fapswitch 2.2
_symmetry_space_group_name_H-M    P1
_symmetry_Int_Tables_number       1
_space_group_crystal_system       triclinic
_cell_length_a                    28.210481
_cell_length_b                    7.189448
_cell_length_c                    17.184591
_cell_angle_alpha                 89.999667
_cell_angle_beta                  101.837303
_cell_angle_gamma                 89.99961
_cell_volume                      3411.22159453

loop_
_atom_site_label
_atom_site_type_symbol
_atom_type_description
_atom_site_fract_x
_atom_site_fract_y
_atom_site_fract_z
_atom_type_partial_charge
O1    O     O_R   0.000700 0.436510 0.857920 -0.531362
O2    O     O_R   0.999300 0.563490 0.142080 -0.531027
O3    O     O_R   0.999300 0.936510 0.642080 -0.531021
O4    O     O_R   0.000700 0.063490 0.357920 -0.531353
O5    O     O_R   0.930080 0.766380 0.721890 -0.516422
O6    O     O_R   0.069920 0.233620 0.278110 -0.515957
O7    O     O_R   0.069920 0.266380 0.778110 -0.515946
O8    O     O_R   0.930080 0.733620 0.221890 -0.516408
C1    C     C_R   0.910708 0.598189 0.707388 0.733654
C2    C     C_R   0.089322 0.401828 0.292586 0.733106
C3    C     C_R   0.089322 0.098170 0.792579 0.733116
C4    C     C_R   0.910708 0.901813 0.207386 0.733659
O9    O     O_R   0.996180 0.766230 0.862310 -0.545989
O10   O     O_R   0.003820 0.233770 0.137690 -0.546051
O11   O     O_R   0.003820 0.266230 0.637690 -0.546049
O12   O     O_R   0.996180 0.733770 0.362310 -0.545986
O13   O     O_R   0.065870 0.936460 0.783500 -0.538233
O14   O     O_R   0.934130 0.063540 0.216500 -0.538086
O15   O     O_R   0.934130 0.436460 0.716500 -0.538082
O16   O     O_R   0.065870 0.563540 0.283500 -0.538232
C5    C     C_R   0.998478 0.596461 0.894496 0.783662
C6    C     C_R   0.001520 0.403538 0.105504 0.784544
C7    C     C_R   0.001520 0.096462 0.605503 0.784549
C8    C     C_R   0.998478 0.903538 0.394496 0.783691
O17   O     O_3   0.022790 0.603020 0.723980 -0.375711
O18   O     O_3   0.977210 0.396980 0.276020 -0.376171
O19   O     O_3   0.977210 0.103020 0.776020 -0.376188
O20   O     O_3   0.022790 0.896980 0.223980 -0.375728
V1    V     V_3+5 0.995770 0.877900 0.754830 1.514539
V2    V     V_3+5 0.004230 0.122100 0.245170 1.514680
V3    V     V_3+5 0.004230 0.377900 0.745170 1.514690
V4    V     V_3+5 0.995770 0.622100 0.254830 1.514554
C9    C     C_2   0.001726 0.082693 0.519557 -0.292415
C10   C     C_2   0.998266 0.917308 0.480441 -0.291969
C11   C     C_2   0.998266 0.582692 0.980441 -0.292025
C12   C     C_2   0.001726 0.417307 0.019557 -0.292471
H1    H     H_    0.004583 0.211591 0.487867 0.149913
H2    H     H_    0.995406 0.788411 0.512130 0.150445
H3    H     H_    0.995406 0.711589 0.012129 0.150442
H4    H     H_    0.004583 0.288409 0.987868 0.149909
C13   C     C_R   0.684182 0.975680 0.023612 0.632725
C14   C     C_R   0.316158 0.038140 0.977323 0.631838
C15   C     C_R   0.316151 0.462104 0.477381 0.631865
C16   C     C_R   0.684186 0.524035 0.523662 0.632749
O21   O     O_2   0.714382 0.984746 0.972210 -0.468246
O22   O     O_2   0.286164 0.044501 0.029108 -0.468926
O23   O     O_2   0.286154 0.456038 0.529168 -0.468914
O24   O     O_2   0.714389 0.514637 0.472277 -0.468244
N1    N     N_R   0.703448 0.956757 0.103156 -0.566325
N2    N     N_R   0.296675 0.039996 0.897389 -0.565386
N3    N     N_R   0.296671 0.459934 0.397448 -0.565415
N4    N     N_R   0.703447 0.543301 0.603191 -0.566339
C17   C     C_R   0.674274 0.949449 0.157551 0.578300
C18   C     C_R   0.325694 0.028880 0.842814 0.577994
C19   C     C_R   0.325692 0.470698 0.342867 0.578007
C20   C     C_R   0.674269 0.550967 0.657570 0.578322
C21   C     C_R   0.781769 0.082630 0.175141 -0.050546
C22   C     C_R   0.217947 0.912800 0.827351 -0.047861
C23   C     C_R   0.217954 0.587119 0.327361 -0.047911
C24   C     C_R   0.781763 0.417469 0.675214 -0.050610
C25   C     C_R   0.832058 0.067945 0.199912 -0.188639
C26   C     C_R   0.167712 0.928656 0.802249 -0.188165
C27   C     C_R   0.167718 0.571282 0.302246 -0.188170
C28   C     C_R   0.832053 0.432132 0.699973 -0.188671
C29   C     C_R   0.830150 0.768206 0.133875 0.229887
C30   C     C_R   0.170295 0.233784 0.863870 0.229841
C31   C     C_R   0.170282 0.266250 0.363950 0.229828
C32   C     C_R   0.830154 0.731752 0.633841 0.229896
C33   C     C_R   0.779774 0.784516 0.109589 -0.101137
C34   C     C_R   0.220661 0.216714 0.888099 -0.100829
C35   C     C_R   0.220647 0.283312 0.388204 -0.100843
C36   C     C_R   0.779778 0.715457 0.609562 -0.101130
C37   C     C_R   0.755298 0.941038 0.129817 0.309224
C38   C     C_R   0.244813 0.056743 0.870415 0.306773
C39   C     C_R   0.244808 0.443220 0.370480 0.306831
C40   C     C_R   0.755297 0.559009 0.629846 0.309291
C41   C     C_R   0.602689 0.978320 0.051231 -0.097383
C42   C     C_R   0.397445 0.016915 0.949563 -0.097359
C43   C     C_R   0.397442 0.483002 0.449611 -0.097383
C44   C     C_R   0.602688 0.521720 0.551267 -0.097373
C45   C     C_R   0.633282 0.986508 0.995539 -0.045422
C46   C     C_R   0.367065 0.027987 0.005476 -0.044987
C47   C     C_R   0.367058 0.472273 0.505532 -0.044997
C48   C     C_R   0.633284 0.513200 0.495591 -0.045442
C49   C     C_R   0.612072 0.006221 0.914067 0.217175
C50   C     C_R   0.388507 0.029915 0.087305 0.216727
C51   C     C_R   0.388499 0.470687 0.587367 0.216793
C52   C     C_R   0.612079 0.493173 0.414135 0.217171
C53   C     C_R   0.623632 0.960412 0.132781 -0.022161
C54   C     C_R   0.376304 0.016288 0.867729 -0.021685
C55   C     C_R   0.376303 0.483263 0.367774 -0.021653
C56   C     C_R   0.623626 0.540003 0.632801 -0.022186
C57   C     C_R   0.857102 0.910908 0.180220 -0.111965
C58   C     C_R   0.142978 0.088759 0.819677 -0.113164
C59   C     C_R   0.142976 0.411230 0.319704 -0.113137
C60   C     C_R   0.857102 0.589101 0.680229 -0.111937
H5    H     H_    0.759447 0.675458 0.074030 0.161862
H6    H     H_    0.241228 0.327904 0.921805 0.162445
H7    H     H_    0.241207 0.172161 0.421952 0.162440
H8    H     H_    0.759453 0.824470 0.573966 0.161855
C61   C     C_R   0.478839 0.000901 0.917839 0.062242
C62   C     C_R   0.521186 0.984648 0.082900 0.062010
C63   C     C_R   0.521180 0.515724 0.582926 0.062001
C64   C     C_R   0.478839 0.498665 0.417878 0.062242
C65   C     C_R   0.469923 0.002381 0.057482 0.007890
C66   C     C_R   0.530288 0.999987 0.943483 0.007794
C67   C     C_R   0.530289 0.499644 0.443529 0.007781
C68   C     C_R   0.469916 0.497943 0.557522 0.007881
C69   C     C_R   0.448902 0.006637 0.975101 0.066074
C70   C     C_R   0.551222 0.987753 0.025739 0.066103
C71   C     C_R   0.551219 0.512256 0.525775 0.066103
C72   C     C_R   0.448898 0.493299 0.475143 0.066079
C73   C     C_R   0.456032 0.994675 0.836419 -0.187885
C74   C     C_R   0.543683 0.962407 0.163932 -0.187432
C75   C     C_R   0.543673 0.538385 0.663937 -0.187395
C76   C     C_R   0.456034 0.504453 0.336449 -0.187887
C77   C     C_R   0.405989 0.002981 0.812136 -0.152483
C78   C     C_R   0.593696 0.951271 0.188116 -0.151415
C79   C     C_R   0.593686 0.549523 0.688118 -0.151396
C80   C     C_R   0.405991 0.496171 0.312171 -0.152426
O25   O     O_2   0.305679 0.032380 0.764429 -0.507700
O26   O     O_2   0.694201 0.929561 0.235502 -0.507420
O27   O     O_2   0.694192 0.571209 0.735504 -0.507382
O28   O     O_2   0.305678 0.466880 0.264484 -0.507667
C81   C     C_R   0.561700 0.013135 0.889370 -0.246163
C82   C     C_R   0.438817 0.017976 0.111986 -0.245733
C83   C     C_R   0.438809 0.482665 0.612039 -0.245744
C84   C     C_R   0.561707 0.486227 0.389435 -0.246121
H9    H     H_    0.148156 0.814989 0.768755 0.172600
H10   H     H_    0.851405 0.179718 0.235066 0.168825
H11   H     H_    0.851398 0.320401 0.735160 0.168738
H12   H     H_    0.148170 0.684915 0.268714 0.172515
H13   H     H_    0.235989 0.787687 0.813651 0.150157
H14   H     H_    0.763373 0.204941 0.190829 0.148196
H15   H     H_    0.763362 0.295216 0.690946 0.148151
H16   H     H_    0.236004 0.712179 0.313628 0.150087
H17   H     H_    0.390615 0.998479 0.748971 0.163509
H18   H     H_    0.608834 0.934752 0.250985 0.163324
H19   H     H_    0.608821 0.566346 0.750971 0.163240
H20   H     H_    0.390619 0.500374 0.249001 0.163410
H21   H     H_    0.475694 0.979656 0.789323 0.120318
H22   H     H_    0.523723 0.949084 0.210715 0.120322
H23   H     H_    0.523708 0.552039 0.710699 0.120289
H24   H     H_    0.475695 0.519089 0.289332 0.120331
H25   H     H_    0.548454 0.033201 0.826593 0.122476
H26   H     H_    0.452342 0.025538 0.175200 0.122268
H27   H     H_    0.452334 0.475394 0.675261 0.122291
H28   H     H_    0.548466 0.465934 0.326672 0.122458
Br1   Br    Br    0.859326 0.552983 0.096585 -0.539313
Br2   Br    Br    0.141747 0.453617 0.898573 -0.543307
Br3   Br    Br    0.141718 0.046492 0.398683 -0.543244
Br4   Br    Br    0.859341 0.946871 0.596490 -0.539206
N5    N     N_3   0.641220 0.020092 0.855028 -0.561831
H29   H     H_    0.633123 0.145967 0.824696 0.235876
H30   H     H_    0.631524 0.911903 0.814180 0.237703
N6    N     N_3   0.359686 0.045380 0.146748 -0.560203
H31   H     H_    0.366653 0.929544 0.184175 0.235986
H32   H     H_    0.370744 0.164090 0.180823 0.237540
N7    N     N_3   0.359678 0.455536 0.646822 -0.560305
H33   H     H_    0.366643 0.571525 0.684158 0.235970
H34   H     H_    0.370731 0.336956 0.680990 0.237590
N8    N     N_3   0.641231 0.479029 0.355112 -0.561879
H35   H     H_    0.633138 0.353037 0.324871 0.235892
H36   H     H_    0.631533 0.587065 0.314185 0.237703

loop_
_geom_bond_atom_site_label_1
_geom_bond_atom_site_label_2
_ccdc_geom_bond_type
O17   V3    S    
C47   C51   A    
N1    C17   A    
C22   C26   A    
O1    C5    A    
C50   C82   A    
O13   V1    S    
O3    C7    A    
C11   C12   D    
C14   C46   A    
C44   C48   A    
O15   V3    S    
C51   C83   A    
C82   H26   S    
O4    V2    S    
C42   C54   A    
O7    C3    A    
C66   C81   A    
C41   C53   A    
C32   C60   A    
C43   C72   A    
C62   C74   A    
C74   H22   S    
C63   C71   A    
N6    H31   S    
C56   C79   A    
N3    C39   S    
C67   C84   A    
C18   C54   A    
C17   O26   S    
N2    C38   S    
C66   C70   A    
O4    C8    A    
C25   C57   A    
C31   C35   A    
O19   V1    S    
C61   C69   A    
C27   C59   A    
C23   H16   S    
O1    V3    S    
C61   C73   A    
C62   C65   A    
O2    V4    S    
C14   O22   S    
C21   C37   A    
O3    V1    S    
C50   N6    S    
C34   C38   A    
C19   C55   A    
C64   C76   A    
C49   C81   A    
C1    O15   A    
C2    O16   A    
C7    C9    S    
O2    C6    A    
N7    H34   S    
C33   C37   A    
C63   C68   A    
C80   H20   S    
N5    H30   S    
N8    H36   S    
C36   C40   A    
C30   C58   A    
C68   C72   A    
C16   N4    A    
O11   C7    A    
O12   C8    A    
C76   H24   S    
C31   C59   A    
C26   H9    S    
C67   C71   A    
O10   V2    S    
C13   N1    A    
O5    V1    S    
C22   H13   S    
C75   H23   S    
O7    V3    S    
C31   Br3   S    
O8    V4    S    
C20   O27   S    
C12   H4    S    
C28   C60   A    
C64   C72   A    
O18   V4    S    
C84   H28   S    
N4    C40   S    
C46   C50   A    
C35   H7    S    
C24   C40   A    
C8    C10   S    
C76   C80   A    
C32   C36   A    
C44   C56   A    
C11   H3    S    
C54   C77   A    
O5    C1    A    
C63   C75   A    
C32   Br4   S    
C42   C46   A    
N7    H33   S    
C24   H15   S    
C28   H11   S    
C41   C45   A    
O8    C4    A    
C13   C45   A    
C9    C10   D    
O9    C5    A    
C49   N5    S    
C27   H12   S    
O11   V3    S    
C1    C60   S    
C74   C78   A    
C25   H10   S    
C14   N2    A    
C73   C77   A    
C65   C82   A    
C3    C58   S    
O6    V2    S    
C18   O25   S    
C75   C79   A    
C26   C58   A    
C17   C53   A    
O14   V2    S    
N1    C37   S    
C4    C57   S    
C62   C70   A    
C23   C39   A    
C22   C38   A    
N8    H35   S    
O16   V4    S    
O9    V1    S    
C61   C66   A    
C65   C69   A    
C52   N8    S    
C3    O13   A    
C10   H2    S    
C43   C55   A    
C77   H17   S    
C48   C52   A    
C16   C48   A    
C36   H8    S    
C30   Br2   S    
C21   C25   A    
C5    C11   S    
O12   V4    S    
C6    C12   S    
C23   C27   A    
C24   C28   A    
C79   H19   S    
O10   C6    A    
N6    H32   S    
N2    C18   A    
C81   H25   S    
C35   C39   A    
C15   C47   A    
C15   N3    A    
C30   C34   A    
N4    C20   A    
C2    C59   S    
C29   C33   A    
C44   C71   A    
O20   V2    S    
C29   C57   A    
C51   N7    S    
C42   C69   A    
N3    C19   A    
C73   H21   S    
C68   C83   A    
C29   Br1   S    
C41   C70   A    
C21   H14   S    
C9    H1    S    
O6    C2    A    
C43   C47   A    
C16   O24   S    
C20   C56   A    
C53   C78   A    
C52   C84   A    
C19   O28   S    
C4    O14   A    
C13   O21   S    
C55   C80   A    
N5    H29   S    
C78   H18   S    
C15   O23   S    
C64   C67   A    
C45   C49   A    
C34   H6    S    
C83   H27   S    
C33   H5    S    
