data_mof_unit_23341.cif
_audit_creation_date              2013-03-05T15:49:18-0500
_audit_creation_method            fapswitch 2.2
_symmetry_space_group_name_H-M    P1
_symmetry_Int_Tables_number       1
_space_group_crystal_system       monoclinic
_cell_length_a                    20.641049
_cell_length_b                    22.75864
_cell_length_c                    6.942609
_cell_angle_alpha                 90.0
_cell_angle_beta                  86.572391
_cell_angle_gamma                 90.0
_cell_volume                      3255.54113851

loop_
_atom_site_label
_atom_site_type_symbol
_atom_site_description
_atom_site_fract_x
_atom_site_fract_y
_atom_site_fract_z
_atom_type_partial_charge
O1    O     O_R   0.387100 0.552640 0.378490 -0.588078
O2    O     O_R   0.612900 0.052640 0.621510 -0.588079
O3    O     O_R   0.249610 0.559600 0.072250 -0.598512
O4    O     O_R   0.750390 0.059600 0.927750 -0.598512
O5    O     O_R   0.249120 0.447360 0.902040 -0.600073
O6    O     O_R   0.750880 0.947360 0.097960 -0.600072
C1    C     C_R   0.227196 0.573474 0.245034 0.956091
C2    C     C_R   0.772804 0.073474 0.754966 0.956091
O7    O     O_R   0.386610 0.559560 0.048860 -0.590108
O8    O     O_R   0.613390 0.059560 0.951140 -0.590109
O9    O     O_R   0.387100 0.447320 0.878470 -0.588733
O10   O     O_R   0.612900 0.947320 0.121530 -0.588733
C3    C     C_R   0.407817 0.574819 0.213859 0.924204
C4    C     C_R   0.592183 0.074819 0.786140 0.924206
O11   O     O_R   0.249120 0.552680 0.402050 -0.601157
O12   O     O_R   0.750880 0.052680 0.597950 -0.601157
O13   O     O_3   0.318110 0.463180 0.223790 -0.276561
O14   O     O_3   0.681890 0.963180 0.776210 -0.276561
V1    V     V_3+5 0.318110 0.506830 0.948930 1.169231
V2    V     V_3+5 0.681890 0.006830 0.051070 1.169231
O15   O     O_R   0.386610 0.440400 0.548840 -0.590228
O16   O     O_R   0.613390 0.940400 0.451160 -0.590228
C5    C     C_R   0.407875 0.425180 0.713833 0.926060
C6    C     C_R   0.592125 0.925180 0.286166 0.926060
O17   O     O_R   0.249610 0.440440 0.572240 -0.604776
O18   O     O_R   0.750390 0.940440 0.427760 -0.604776
C7    C     C_R   0.227173 0.426417 0.744864 0.935265
C8    C     C_R   0.772827 0.926417 0.255136 0.935265
V3    V     V_3+5 0.318110 0.493170 0.448930 1.164420
V4    V     V_3+5 0.681890 0.993170 0.551070 1.164420
O19   O     O_3   0.318110 0.536820 0.723940 -0.271771
O20   O     O_3   0.681890 0.036820 0.276060 -0.271771
C9    C     C_R   0.173873 0.383000 0.762717 -0.123358
C10   C     C_R   0.826127 0.883000 0.237283 -0.123358
C11   C     C_R   0.152251 0.355280 0.597501 -0.181742
C12   C     C_R   0.847749 0.855281 0.402499 -0.181742
C13   C     C_R   0.101910 0.314443 0.612920 -0.111695
C14   C     C_R   0.898090 0.814443 0.387079 -0.111695
C15   C     C_R   0.071390 0.300881 0.794163 0.209907
C16   C     C_R   0.928609 0.800881 0.205837 0.209907
C17   C     C_R   0.093617 0.327805 0.959559 -0.144587
C18   C     C_R   0.906383 0.827805 0.040441 -0.144587
C19   C     C_R   0.144212 0.368616 0.944237 -0.151604
C20   C     C_R   0.855788 0.868616 0.055763 -0.151604
C21   C     C_R   0.888021 0.196311 0.863088 -0.092451
C22   C     C_R   0.111979 0.696311 0.136912 -0.092452
C23   C     C_R   0.837530 0.155763 0.883746 -0.114929
C24   C     C_R   0.162470 0.655763 0.116254 -0.114928
C25   C     C_R   0.867322 0.117231 0.565755 -0.274213
C26   C     C_R   0.132678 0.617231 0.434245 -0.274213
C27   C     C_R   0.919600 0.156648 0.544844 0.357354
C28   C     C_R   0.080400 0.656648 0.455157 0.357353
C29   C     C_R   0.929549 0.197210 0.695085 0.036458
C30   C     C_R   0.070451 0.697210 0.304915 0.036459
C31   C     C_2   0.017891 0.257554 0.816717 -0.203885
C32   C     C_2   0.982109 0.757554 0.183283 -0.203885
C33   C     C_2   0.980438 0.242764 0.672381 -0.131300
C34   C     C_2   0.019562 0.742765 0.327619 -0.131301
C35   C     C_R   0.826478 0.116172 0.734824 -0.187673
C36   C     C_R   0.173522 0.616172 0.265176 -0.187673
H1    H     H_    0.174556 0.364697 0.455693 0.136408
H2    H     H_    0.825444 0.864697 0.544307 0.136408
H3    H     H_    0.806361 0.156165 0.014933 0.137672
H4    H     H_    0.193639 0.656165 0.985066 0.137671
H5    H     H_    0.859741 0.085864 0.451909 0.183297
H6    H     H_    0.140259 0.585864 0.548091 0.183298
H7    H     H_    0.987662 0.263220 0.531753 0.140975
H8    H     H_    0.012338 0.763220 0.468246 0.140976
H9    H     H_    0.071425 0.317556 0.100962 0.111539
H10   H     H_    0.928575 0.817555 0.899038 0.111539
H11   H     H_    0.893929 0.227741 0.977855 0.130009
H12   H     H_    0.106071 0.727741 0.022145 0.130009
H13   H     H_    0.159858 0.388989 0.074556 0.133417
H14   H     H_    0.840141 0.888989 0.925444 0.133417
H15   H     H_    0.009038 0.237116 0.957352 0.177695
H16   H     H_    0.990962 0.737116 0.042648 0.177695
H17   H     H_    0.088233 0.292988 0.482526 0.125579
H18   H     H_    0.911767 0.792988 0.517474 0.125579
C37   C     C_R   0.576015 0.360787 0.655790 -0.171749
C38   C     C_R   0.423985 0.860786 0.344212 -0.171749
H19   H     H_    0.534693 0.446817 0.635732 0.112093
H20   H     H_    0.465307 0.946817 0.364269 0.112093
H21   H     H_    0.666213 0.277854 0.644153 0.135212
H22   H     H_    0.333787 0.777854 0.355850 0.135212
H23   H     H_    0.624680 0.376870 0.620047 0.119806
H24   H     H_    0.375320 0.876870 0.379955 0.119806
C39   C     C_R   0.461481 0.381916 0.711462 -0.097147
C40   C     C_R   0.538519 0.881916 0.288538 -0.097148
C41   C     C_R   0.475295 0.095588 0.834018 -0.162747
C42   C     C_R   0.524705 0.595588 0.165981 -0.162746
C43   C     C_R   0.421966 0.133015 0.845267 -0.085627
C44   C     C_R   0.578034 0.633015 0.154731 -0.085628
C45   C     C_R   0.429611 0.193157 0.813403 -0.175331
C46   C     C_R   0.570389 0.693157 0.186595 -0.175331
C47   C     C_R   0.491570 0.217809 0.768514 0.088410
C48   C     C_R   0.508430 0.717809 0.231485 0.088410
C49   C     C_R   0.546349 0.178828 0.755464 0.105581
C50   C     C_R   0.453651 0.678828 0.244536 0.105581
C51   C     C_R   0.500947 0.279733 0.736468 0.088974
C52   C     C_R   0.499053 0.779733 0.263532 0.088974
C53   C     C_R   0.564858 0.300736 0.690559 0.182240
C54   C     C_R   0.435142 0.800736 0.309442 0.182240
C55   C     C_R   0.617448 0.261823 0.678788 -0.230896
C56   C     C_R   0.382552 0.761822 0.321214 -0.230897
C57   C     C_R   0.608490 0.201992 0.710990 -0.214632
C58   C     C_R   0.391510 0.701992 0.289011 -0.214633
C59   C     C_R   0.449504 0.321795 0.747434 -0.241552
C60   C     C_R   0.550496 0.821795 0.252565 -0.241552
C61   C     C_R   0.524836 0.400812 0.665066 -0.162993
C62   C     C_R   0.475164 0.900812 0.334935 -0.162994
C63   C     C_R   0.537657 0.117416 0.788942 -0.175579
C64   C     C_R   0.462343 0.617416 0.211057 -0.175579
H25   H     H_    0.399751 0.309359 0.781315 0.102576
H26   H     H_    0.600249 0.809360 0.218683 0.102576
H27   H     H_    0.467875 0.049099 0.861073 0.111219
H28   H     H_    0.532125 0.549099 0.138925 0.111219
H29   H     H_    0.385972 0.219166 0.825181 0.117627
H30   H     H_    0.614028 0.719166 0.174817 0.117627
H31   H     H_    0.374033 0.115228 0.879948 0.124316
H32   H     H_    0.625967 0.615228 0.120049 0.124316
H33   H     H_    0.650886 0.173882 0.700364 0.112692
H34   H     H_    0.349114 0.673882 0.299638 0.112693
N1    N     N_R   0.962964 0.153278 0.374385 0.221459
O21   O     O_R   0.024509 0.164624 0.383215 -0.407642
O22   O     O_R   0.943133 0.130409 0.216537 -0.424459
N2    N     N_R   0.037036 0.653278 0.625615 0.221459
O23   O     O_R   0.975491 0.664625 0.616786 -0.407642
O24   O     O_R   0.056867 0.630409 0.783463 -0.424460

loop_
_geom_bond_atom_site_label_1
_geom_bond_atom_site_label_2
_geom_bond_distance
_ccdc_geom_bond_type
C19   H13   1.082961 S    
V4    O20   2.152266 S    
C41   H27   1.083856 S    
N2    O23   1.301372 A    
C32   H16   1.087068 S    
C21   H11   1.083062 S    
C27   N1    1.442530 S    
C42   C64   1.397671 A    
O4    C2    1.298597 A    
V1    O19   1.704625 S    
C56   C58   1.390455 A    
N1    O21   1.301373 A    
C15   C17   1.402669 A    
C7    C9    1.478435 S    
O9    V1    2.004535 S    
C18   C20   1.396908 A    
O10   V2    2.004534 S    
H20   C62   1.083585 S    
O16   C6    1.298040 A    
C11   C13   1.393444 A    
C3    C64   1.484691 S    
O3    C1    1.298597 A    
C2    C35   1.474032 S    
C23   H3    1.083261 S    
C49   C63   1.426418 A    
C47   C51   1.438047 A    
C24   H4    1.083262 S    
O12   V4    2.005870 S    
C18   H10   1.083610 S    
O13   V3    1.705580 S    
C60   H26   1.077575 S    
O7    C3    1.297847 A    
C59   H25   1.077575 S    
C38   H24   1.083876 S    
C9    C11   1.405009 A    
O5    C7    1.297019 A    
O7    V1    2.009454 S    
O6    C8    1.297019 A    
O8    V2    2.009456 S    
C16   C32   1.481767 S    
C48   C50   1.435780 A    
C26   C28   1.404091 A    
O3    V1    2.007422 S    
O14   V4    1.705578 S    
C42   H28   1.083856 S    
C41   C43   1.390335 A    
C22   H12   1.083061 S    
C40   C62   1.395858 A    
C24   C36   1.400374 A    
C31   H15   1.087067 S    
C16   C18   1.402670 A    
C8    C10   1.478435 S    
C2    O12   1.294622 A    
C5    C39   1.480505 S    
C17   C19   1.396908 A    
C22   C30   1.405728 A    
C45   H29   1.076842 S    
C33   H7    1.083860 S    
C12   H2    1.083036 S    
O1    V3    2.003891 S    
C28   C30   1.417028 A    
O11   V3    2.005872 S    
C21   C23   1.393001 A    
O17   V3    2.006850 S    
C4    C63   1.484691 S    
C13   C15   1.407345 A    
C22   C24   1.392999 A    
C52   C60   1.428286 A    
C23   C35   1.400373 A    
C50   C64   1.426416 A    
C37   C61   1.393473 A    
C9    C19   1.406382 A    
C20   H14   1.082961 S    
C10   C20   1.406381 A    
C11   H1    1.083036 S    
O8    C4    1.297845 A    
C29   C33   1.477589 S    
C1    O11   1.294622 A    
C14   H18   1.080832 S    
C25   C27   1.404091 A    
C13   H17   1.080832 S    
C38   C54   1.404429 A    
C27   C29   1.417029 A    
C46   C48   1.414156 A    
C43   C45   1.393959 A    
C6    C40   1.480505 S    
C42   C44   1.390334 A    
C58   H34   1.082946 S    
C44   C46   1.393961 A    
C57   H33   1.082948 S    
C55   C57   1.390456 A    
C54   C56   1.399546 A    
C26   H6    1.083325 S    
C25   H5    1.083325 S    
O5    V1    2.005270 S    
C34   H8    1.083858 S    
C51   C53   1.421282 A    
H19   C61   1.083586 S    
O18   V4    2.006851 S    
C31   C33   1.344501 D    
O17   C7    1.298569 A    
H22   C56   1.084056 S    
C43   H31   1.082700 S    
O1    C3    1.298298 A    
C12   C14   1.393444 A    
C1    C36   1.474032 S    
C37   H23   1.083875 S    
O6    V2    2.005270 S    
C17   H9    1.083610 S    
C52   C54   1.421280 A    
V2    O20   1.704625 S    
C41   C63   1.397668 A    
N2    O24   1.301158 A    
O16   V4    2.009944 S    
C25   C35   1.403843 A    
C47   C49   1.435780 A    
C39   C61   1.395858 A    
C15   C31   1.481767 S    
C51   C59   1.428286 A    
O10   C6    1.298318 A    
O18   C8    1.298569 A    
C30   C34   1.477589 S    
C50   C58   1.403959 A    
O2    V4    2.003893 S    
C26   C36   1.403842 A    
H21   C55   1.084057 S    
O15   C5    1.298040 A    
C44   H32   1.082699 S    
C49   C57   1.403958 A    
V3    O19   2.152265 S    
C14   C16   1.407344 A    
C46   H30   1.076840 S    
C28   N2    1.442531 S    
C45   C47   1.414156 A    
O15   V3    2.009945 S    
C40   C60   1.410065 A    
C48   C52   1.438047 A    
O9    C5    1.298318 A    
O13   V1    2.151342 S    
C10   C12   1.405009 A    
C32   C34   1.344500 D    
O14   V2    2.151342 S    
O2    C4    1.298297 A    
N1    O22   1.301159 A    
C21   C29   1.405728 A    
O4    V2    2.007422 S    
C39   C59   1.410064 A    
C53   C55   1.399544 A    
C38   C62   1.393475 A    
C37   C53   1.404429 A    
