data_mof_unit_58236.cif
_audit_creation_date              2013-03-05T16:35:15-0500
_audit_creation_method            fapswitch 2.2
_symmetry_space_group_name_H-M    P1
_symmetry_Int_Tables_number       1
_space_group_crystal_system       triclinic
_cell_length_a                    10.885448
_cell_length_b                    9.065951
_cell_length_c                    8.054471
_cell_angle_alpha                 89.999775
_cell_angle_beta                  87.372749
_cell_angle_gamma                 90.000377
_cell_volume                      794.035577753

loop_
_atom_site_label
_atom_site_type_symbol
_atom_site_description
_atom_site_fract_x
_atom_site_fract_y
_atom_site_fract_z
_atom_type_partial_charge
O1    O     O_R   0.500000 0.288400 0.642760 -0.567137
O2    O     O_R   0.500000 0.288400 0.357240 -0.567112
C1    C     C_R   0.500000 0.221144 0.500000 0.790882
O3    O     O_R   0.317700 0.499990 0.642790 -0.522612
O4    O     O_R   0.317700 0.499990 0.357210 -0.540141
O5    O     O_R   0.682300 0.499990 0.642790 -0.540134
O6    O     O_R   0.682300 0.499990 0.357210 -0.522576
N1    N     N_1   0.500000 0.499970 0.076820 0.031638
N2    N     N_1   0.500000 0.499970 0.923180 0.031624
C2    C     C_R   0.260587 0.488561 0.502482 0.776620
C3    C     C_R   0.739412 0.488557 0.497515 0.776664
Cu1   Cu    Cu3+1 0.500000 0.500010 0.669080 1.126506
Cu2   Cu    Cu3+1 0.500000 0.500010 0.330920 1.126524
O7    O     O_R   0.500000 0.711620 0.642810 -0.573552
O8    O     O_R   0.500000 0.711620 0.357190 -0.573552
C4    C     C_R   0.500000 0.778850 0.500000 0.805760
C5    C     C_1   0.500000 0.065680 0.500000 -0.116361
C6    C     C_3   0.063164 0.380315 0.645265 0.054279
C7    C     C_3   0.078874 0.402705 0.341895 0.087821
C8    C     C_3   0.921127 0.402677 0.658072 0.087824
C9    C     C_3   0.936836 0.380327 0.354708 0.054311
H1    H     H_    0.078639 0.262626 0.608626 0.065483
H2    H     H_    0.120314 0.289950 0.336725 0.083769
H3    H     H_    0.879695 0.289917 0.663219 0.083756
H4    H     H_    0.921381 0.262633 0.391344 0.065486
C10   C     C_1   0.500000 0.934330 0.500000 -0.130222
H5    H     H_    0.083959 0.688146 0.639093 0.243101
H6    H     H_    0.118498 0.715082 0.427811 0.199394
H7    H     H_    0.881497 0.715072 0.572196 0.199398
H8    H     H_    0.916035 0.688149 0.360912 0.243097
C11   C     C_3   0.069142 0.639056 0.515897 -0.334203
C12   C     C_3   0.930855 0.639054 0.484105 -0.334228
C13   C     C_3   0.122121 0.479639 0.503592 -0.146206
C14   C     C_3   0.877878 0.479634 0.496394 -0.146186
N3    N     N_R   0.119251 0.397222 0.802261 0.203184
O9    O     O_R   0.176931 0.283937 0.860603 -0.313974
O10   O     O_R   0.140168 0.529236 0.856809 -0.234874
N4    N     N_R   0.123385 0.478113 0.190889 0.224615
O11   O     O_R   0.219519 0.422631 0.112345 -0.257109
O12   O     O_R   0.092111 0.613479 0.159714 -0.281708
N5    N     N_R   0.876611 0.478054 0.809091 0.224597
O13   O     O_R   0.780493 0.422531 0.887633 -0.257120
O14   O     O_R   0.907855 0.613428 0.840275 -0.281687
N6    N     N_R   0.880720 0.397224 0.197730 0.203197
O15   O     O_R   0.822889 0.283981 0.139543 -0.313976
O16   O     O_R   0.859823 0.529242 0.143175 -0.234861

loop_
_geom_bond_atom_site_label_1
_geom_bond_atom_site_label_2
_geom_bond_distance
_ccdc_geom_bond_type
O6    C3    1.318617 A    
C11   C13   1.557553 S    
N1    Cu2   2.046640 S    
C7    N4    1.458566 S    
O3    Cu1   2.005312 S    
C9    N6    1.437381 S    
C6    N3    1.437367 S    
O4    Cu2   1.986009 S    
C11   C12   1.538466 S    
C3    C14   1.509049 S    
C8    C14   1.568565 S    
C8    N5    1.458548 S    
Cu1   O7    1.930077 S    
O4    C2    1.303715 A    
N4    O12   1.301094 A    
N6    O15   1.302694 A    
H8    C12   1.106064 S    
N5    O14   1.301098 A    
O1    Cu1   1.930125 S    
C5    C10   1.190816 T    
C7    C9    1.558123 S    
N6    O16   1.298647 A    
C1    C5    1.409434 S    
H7    C12   1.110012 S    
C6    C8    1.558096 S    
Cu2   O8    1.930079 S    
O5    Cu1   1.986008 S    
N4    O11   1.299084 A    
C6    C13   1.567696 S    
O7    C4    1.301765 A    
N2    Cu1   2.046640 S    
H5    C11   1.106062 S    
O8    C4    1.301767 A    
C8    H3    1.117345 S    
O6    Cu2   2.005311 S    
Cu1   Cu2   2.723701 S    
C2    C13   1.509046 S    
N5    O13   1.299078 A    
O5    C3    1.303730 A    
O2    Cu2   1.930123 S    
C9    H4    1.117731 S    
C7    H2    1.117341 S    
O2    C1    1.301515 A    
C9    C14   1.567693 S    
N3    O10   1.298643 A    
C6    H1    1.117728 S    
O3    C2    1.318635 A    
H6    C11   1.110012 S    
N3    O9    1.302646 A    
C7    C13   1.568604 S    
N1    N2    1.237490 T    
O1    C1    1.301517 A    
C4    C10   1.409566 S    
C12   C14   1.557555 S    
