data_mof_unit_25381.cif
_audit_creation_date              2012-12-10T19:46:22-0500
_audit_creation_method            fapswitch 2.2
_symmetry_space_group_name_H-M    P1
_symmetry_Int_Tables_number       1
_space_group_crystal_system       triclinic
_cell_length_a                    10.852992
_cell_length_b                    10.850935
_cell_length_c                    10.42425
_cell_angle_alpha                 90.673321
_cell_angle_beta                  90.380802
_cell_angle_gamma                 89.860211
_cell_volume                      1227.49765367

loop_
_atom_site_label
_atom_site_type_symbol
_atom_type_description
_atom_site_fract_x
_atom_site_fract_y
_atom_site_fract_z
_atom_type_partial_charge
C1    C     C_R   0.497091 0.261532 0.498979 0.792422
C2    C     C_R   0.502757 0.738503 0.501059 0.808944
C3    C     C_R   0.872019 0.493484 0.501656 -0.092019
C4    C     C_R   0.127954 0.505354 0.498144 -0.080199
C5    C     C_R   0.940191 0.455994 0.610419 -0.005465
C6    C     C_R   0.059759 0.542765 0.389353 -0.001335
C7    C     C_R   0.264689 0.211433 0.129705 -0.115603
C8    C     C_R   0.732658 0.788551 0.871347 -0.125211
C9    C     C_R   0.300753 0.163512 0.248978 0.227056
C10   C     C_R   0.697468 0.836760 0.752058 0.232470
C11   C     C_R   0.421458 0.115541 0.263902 0.118954
C12   C     C_R   0.576669 0.884839 0.736433 0.126069
C13   C     C_R   0.502304 0.115459 0.159148 -0.190712
C14   C     C_R   0.495475 0.884893 0.840939 -0.192273
C15   C     C_R   0.464924 0.163545 0.041452 -0.148248
C16   C     C_R   0.532333 0.836829 0.958793 -0.148247
C17   C     C_R   0.346459 0.211616 0.026825 -0.168137
C18   C     C_R   0.650581 0.788498 0.973888 -0.167418
C19   C     C_R   0.469546 0.932049 0.389984 -0.261036
C20   C     C_R   0.528131 0.068042 0.610424 -0.252080
C21   C     C_R   0.503418 0.872042 0.502948 -0.084856
C22   C     C_R   0.494757 0.128039 0.497339 -0.076821
C23   C     C_R   0.261519 0.503734 0.499357 0.793106
C24   C     C_R   0.738455 0.495803 0.500609 0.796959
C25   C     C_R   0.534265 0.940777 0.614581 0.006291
C26   C     C_R   0.463342 0.059376 0.385872 0.017594
C27   C     C_1   0.500008 0.500003 0.071936 0.092190
C28   C     C_1   0.499973 0.499986 0.928064 0.092777
C29   C     C_R   0.224867 0.758359 0.165105 -0.137903
C30   C     C_R   0.773985 0.241686 0.835125 -0.137976
C31   C     C_R   0.174559 0.709410 0.276682 -0.109400
C32   C     C_R   0.824845 0.290012 0.723519 -0.107021
C33   C     C_R   0.116722 0.593713 0.272699 0.134948
C34   C     C_R   0.883055 0.405522 0.727204 0.133684
C35   C     C_R   0.109633 0.528115 0.155980 -0.143206
C36   C     C_R   0.889912 0.471605 0.843645 -0.146756
C37   C     C_R   0.161786 0.576486 0.045158 -0.144916
C38   C     C_R   0.837305 0.423810 0.954517 -0.144230
C39   C     C_R   0.219088 0.691669 0.049637 -0.120827
C40   C     C_R   0.779641 0.308798 0.950337 -0.121843
C41   C     C_R   0.932393 0.535179 0.392274 -0.245239
C42   C     C_R   0.067589 0.463468 0.607469 -0.243490
Cu1   Cu    Cu3+1 0.500000 0.500000 0.625300 0.977894
Cu2   Cu    Cu3+1 0.500000 0.500000 0.374700 0.979110
H1    H     H_    0.258501 0.729424 0.963514 0.128608
H2    H     H_    0.739776 0.271529 0.036472 0.128478
H3    H     H_    0.594345 0.077647 0.168712 0.135648
H4    H     H_    0.403463 0.922697 0.831063 0.136074
H5    H     H_    0.527590 0.162885 0.961164 0.138126
H6    H     H_    0.469394 0.837635 0.038821 0.138261
H7    H     H_    0.445579 0.879555 0.304383 0.154541
H8    H     H_    0.552311 0.120510 0.695988 0.154374
H9    H     H_    0.267649 0.848298 0.167874 0.120166
H10   H     H_    0.730811 0.151931 0.832567 0.121337
H11   H     H_    0.179649 0.761822 0.365642 0.104862
H12   H     H_    0.819797 0.237308 0.634744 0.108139
H13   H     H_    0.063938 0.439614 0.151186 0.116363
H14   H     H_    0.935660 0.560094 0.848162 0.118070
H15   H     H_    0.157212 0.524989 0.955692 0.126897
H16   H     H_    0.841721 0.475664 0.043771 0.126646
H17   H     H_    0.880047 0.565791 0.309479 0.155034
H18   H     H_    0.119950 0.432928 0.690282 0.153868
H19   H     H_    0.317673 0.248578 0.935354 0.137903
H20   H     H_    0.678956 0.751421 0.065430 0.138543
H21   H     H_    0.172655 0.247549 0.115591 0.122351
H22   H     H_    0.824649 0.752201 0.885408 0.129494
N1    N     N_1   0.500010 0.499990 0.186410 -0.140610
N2    N     N_1   0.499990 0.500010 0.813590 -0.140518
O1    O     O_R   0.499990 0.319650 0.605810 -0.585811
O2    O     O_R   0.500010 0.680350 0.394190 -0.586384
O3    O     O_R   0.499990 0.319640 0.394190 -0.567735
O4    O     O_R   0.500010 0.680360 0.605810 -0.566897
O5    O     O_R   0.319640 0.500010 0.605810 -0.591141
O6    O     O_R   0.680360 0.499990 0.394190 -0.588615
O7    O     O_R   0.319650 0.500010 0.394190 -0.559242
O8    O     O_R   0.680350 0.499990 0.605810 -0.561673
C43   C     C_3   0.209674 0.161575 0.357352 -0.894620
H23   H     H_    0.195705 0.065306 0.388967 0.229463
H24   H     H_    0.244348 0.217849 0.439337 0.228385
H25   H     H_    0.118886 0.199790 0.327937 0.227905
C44   C     C_3   0.791700 0.837005 0.646546 -0.917871
H26   H     H_    0.757038 0.878914 0.556870 0.233905
H27   H     H_    0.820442 0.740908 0.624437 0.240199
H28   H     H_    0.873791 0.890123 0.678752 0.229475

loop_
_geom_bond_atom_site_label_1
_geom_bond_atom_site_label_2
_ccdc_geom_bond_type
Cu1   O5    S    
C30   C32   A    
C5    C42   A    
C8    H22   S    
Cu1   O4    S    
C41   H17   S    
C18   H20   S    
C44   H26   S    
C28   N2    T    
C43   H23   S    
C40   H2    S    
C30   H10   S    
C1    O3    A    
C4    C42   A    
C19   C21   A    
C16   H6    S    
C36   H14   S    
C20   C25   A    
Cu2   O3    S    
C15   C17   A    
C19   C26   A    
Cu1   N2    S    
C7    C17   A    
C6    C41   A    
C31   C33   A    
Cu2   O2    S    
C42   H18   S    
C39   H1    S    
C1    C22   S    
Cu1   O1    S    
C3    C24   S    
C23   O5    A    
C2    O4    A    
C44   H27   S    
C43   H24   S    
C4    C6    A    
C23   O7    A    
C13   H3    S    
C4    C23   S    
C24   O8    A    
C14   H4    S    
C11   C26   S    
C1    O1    A    
C32   C34   A    
Cu2   O7    S    
Cu1   Cu2   S    
C7    H21   S    
C29   C31   A    
C5    C34   S    
C29   C39   A    
C2    C21   S    
C30   C40   A    
C9    C43   S    
Cu2   O6    S    
C9    C11   A    
C37   H15   S    
C10   C12   A    
C38   H16   S    
C8    C10   A    
C12   C14   A    
C13   C15   A    
C14   C16   A    
C44   H28   S    
C43   H25   S    
Cu1   O8    S    
C7    C9    A    
C21   C25   A    
C3    C41   A    
C35   C37   A    
C20   C22   A    
C3    C5    A    
C20   H8    S    
C10   C44   S    
C6    C33   S    
C12   C25   S    
C35   H13   S    
C36   C38   A    
C37   C39   A    
C17   H19   S    
C38   C40   A    
C11   C13   A    
C24   O6    A    
C29   H9    S    
C33   C35   A    
C34   C36   A    
C15   H5    S    
C8    C18   A    
C27   N1    T    
C19   H7    S    
C16   C18   A    
C22   C26   A    
C27   C28   S    
Cu2   N1    S    
C31   H11   S    
C2    O2    A    
C32   H12   S    
