data_mof_unit_28444.cif
_audit_creation_date              2012-12-10T17:36:49-0500
_audit_creation_method            fapswitch 2.2
_symmetry_space_group_name_H-M    P1
_symmetry_Int_Tables_number       1
_space_group_crystal_system       triclinic
_cell_length_a                    10.605297
_cell_length_b                    12.482335
_cell_length_c                    13.1571
_cell_angle_alpha                 117.080735
_cell_angle_beta                  75.894985
_cell_angle_gamma                 100.780762
_cell_volume                      1498.16222588

loop_
_atom_site_label
_atom_site_type_symbol
_atom_type_description
_atom_site_fract_x
_atom_site_fract_y
_atom_site_fract_z
_atom_type_partial_charge
C1    C     C_R   0.512063 0.855350 0.286193 0.906225
C2    C     C_R   0.518523 0.563986 0.010600 -0.025987
C3    C     C_R   0.465563 0.652019 0.121562 0.016463
C4    C     C_R   0.739527 0.001482 0.502289 0.872702
C5    C     C_R   0.473555 0.439673 0.978834 0.095229
C6    C     C_R   0.376739 0.406245 0.057521 0.085985
C7    C     C_R   0.317019 0.494938 0.159901 -0.255671
C8    C     C_R   0.354279 0.616248 0.187803 0.373660
C9    C     C_R   0.517667 0.347491 0.869702 -0.205769
C10   C     C_R   0.374044 0.195752 0.918367 -0.164939
C11   C     C_R   0.524344 0.772937 0.161299 -0.120395
C12   C     C_3   0.019354 0.895740 0.495180 -0.069823
C13   C     C_R   0.678257 0.320483 0.300194 -0.262426
C14   C     C_R   0.344996 0.773871 0.664071 0.113901
C15   C     C_R   0.332409 0.693924 0.712985 -0.239601
C16   C     C_R   0.483190 0.144702 0.713699 0.783736
C17   C     C_R   0.397291 0.589407 0.653524 -0.126826
C18   C     C_R   0.468559 0.557599 0.539538 -0.047716
C19   C     C_R   0.491906 0.648345 0.496798 0.211999
C20   C     C_R   0.525349 0.442925 0.470881 -0.122830
C21   C     C_R   0.608187 0.422907 0.363535 0.033883
C22   C     C_R   0.626233 0.506736 0.320308 -0.227493
C23   C     C_3   0.968686 0.915895 0.404870 -0.089353
C24   C     C_R   0.583739 0.620900 0.388047 0.371439
C25   C     C_R   0.499446 0.342340 0.499122 0.636441
C26   C     C_R   0.664148 0.235153 0.342103 0.047432
C27   C     C_R   0.259499 0.002348 0.503415 0.892277
C28   C     C_3   0.978794 0.110989 0.515410 0.310949
C29   C     C_3   0.072973 0.023610 0.415439 -0.275579
C30   C     C_3   0.121921 0.003503 0.505591 -0.108131
C31   C     C_3   0.028390 0.089884 0.604323 0.437626
C32   C     C_3   0.924493 0.983209 0.595481 -0.301926
C33   C     C_3   0.277514 0.317413 0.534476 -0.222636
C34   C     C_3   0.876049 0.003648 0.504835 -0.116836
C35   C     C_3   0.961381 0.230063 0.791183 -0.260674
C36   C     C_R   0.331953 0.284482 0.028546 -0.162976
C37   C     C_R   0.462566 0.228159 0.837080 -0.046005
C38   C     C_R   0.614675 0.809292 0.083142 -0.234782
C39   C     C_R   0.655482 0.726073 0.970111 0.438682
C40   C     C_R   0.611826 0.604353 0.935033 -0.202631
Cl1   Cl    Cl    0.769459 0.773327 0.873738 -0.625233
Cl2   Cl    Cl    0.238839 0.716497 0.287499 -0.675452
Cl3   Cl    Cl    0.949747 0.252856 0.526943 -0.649441
Cl4   Cl    Cl    0.699929 0.713945 0.337388 -0.660026
Cu1   Cu    Cu3+1 0.529830 0.098270 0.475420 1.013289
Cu2   Cu    Cu3+1 0.470170 0.901730 0.524580 1.015697
H1    H     H_    0.135937 0.039744 0.342000 0.176396
H2    H     H_    0.274724 0.714518 0.798762 0.164814
H3    H     H_    0.860791 0.965966 0.668032 0.186689
H4    H     H_    0.036848 0.807436 0.487969 0.219855
H5    H     H_    0.944309 0.844764 0.321258 0.216440
H6    H     H_    0.331045 0.103643 0.894499 0.150882
H7    H     H_    0.233975 0.470066 0.214271 0.184301
H8    H     H_    0.258493 0.258812 0.088803 0.143042
H9    H     H_    0.194038 0.295561 0.592696 0.258452
H10   H     H_    0.280950 0.243123 0.445316 0.161263
H11   H     H_    0.257350 0.400716 0.533365 0.168213
H12   H     H_    0.590056 0.366244 0.805385 0.155689
H13   H     H_    0.905679 0.164186 0.824344 0.158107
H14   H     H_    0.896396 0.262568 0.758255 0.187501
H15   H     H_    0.996489 0.309163 0.865494 0.200654
H16   H     H_    0.658661 0.901471 0.111255 0.175084
H17   H     H_    0.652232 0.544690 0.847796 0.171392
H18   H     H_    0.717625 0.155661 0.294100 0.151372
H19   H     H_    0.689899 0.487025 0.236432 0.192887
H20   H     H_    0.745053 0.307355 0.219424 0.154738
H21   H     H_    0.297103 0.856586 0.712403 0.128950
H22   H     H_    0.390980 0.535383 0.699498 0.206995
N1    N     N_R   0.575030 0.246270 0.438190 -0.213978
N2    N     N_R   0.425760 0.754330 0.561190 -0.196648
O1    O     O_R   0.537510 0.972500 0.318130 -0.615810
O2    O     O_3   0.070470 0.179729 0.706309 -0.582725
O3    O     O_R   0.487140 0.806530 0.359650 -0.513780
O4    O     O_R   0.708330 0.082950 0.479220 -0.552272
O5    O     O_R   0.657960 0.916980 0.520740 -0.530363
O6    O     O_R   0.512860 0.193470 0.640350 -0.530650
O7    O     O_R   0.462490 0.027500 0.681870 -0.612691
O8    O     O_R   0.342040 0.083020 0.479260 -0.571663
O9    O     O_R   0.291670 0.917050 0.520780 -0.561790
O10   O     O_3   0.391705 0.332600 0.578959 -0.587805

loop_
_geom_bond_atom_site_label_1
_geom_bond_atom_site_label_2
_ccdc_geom_bond_type
C33   H9    S    
Cu1   O1    S    
C25   O10   S    
C1    C11   S    
C27   O8    A    
C10   H6    S    
C16   O7    A    
C7    C8    A    
C39   Cl1   S    
Cu1   Cu2   S    
C12   C23   S    
C1    O1    A    
C40   H17   S    
C29   H1    S    
C10   C37   A    
C23   C29   S    
C28   C29   S    
C8    Cl2   S    
C18   C19   A    
C27   O9    A    
Cu2   O9    S    
C20   C25   A    
C35   H13   S    
C9    H12   S    
C26   H18   S    
C4    O5    A    
C14   H21   S    
Cu1   O8    S    
C4    O4    A    
C16   C37   S    
C33   H10   S    
C28   C34   S    
C21   C22   A    
C12   C32   S    
C27   C30   S    
C14   N2    A    
C15   H2    S    
Cu2   O5    S    
C13   H20   S    
C38   C39   A    
C4    C34   S    
Cu1   N1    S    
C3    C11   A    
C3    C8    A    
C39   C40   A    
C35   H14   S    
C32   C34   S    
C11   C38   A    
C22   H19   S    
C5    C9    A    
C29   C30   S    
C23   H5    S    
C31   C32   S    
C30   C31   S    
C23   C34   S    
C9    C37   A    
C17   C18   A    
C13   C21   A    
C35   H15   S    
C31   O2    S    
C35   O2    S    
Cu1   O6    S    
C24   Cl4   S    
C22   C24   A    
C13   C26   A    
C2    C5    A    
C25   N1    A    
C7    H7    S    
C15   C17   A    
C17   H22   S    
C33   H11   S    
C12   C30   S    
C16   O6    A    
C28   C31   S    
Cu2   O7    S    
C12   H4    S    
C33   O10   S    
C6    C7    A    
C28   Cl3   S    
C1    O3    A    
C19   C24   A    
C5    C6    A    
C6    C36   A    
C2    C3    A    
C18   C20   A    
C32   H3    S    
Cu2   N2    S    
C36   H8    S    
C2    C40   A    
C20   C21   A    
C26   N1    A    
C14   C15   A    
Cu1   O4    S    
C19   N2    A    
C10   C36   A    
Cu2   O3    S    
C38   H16   S    
