data_mof_unit_47730.cif
_audit_creation_date              2012-12-11T21:12:31-0500
_audit_creation_method            fapswitch 2.2
_symmetry_space_group_name_H-M    P1
_symmetry_Int_Tables_number       1
_space_group_crystal_system       triclinic
_cell_length_a                    8.414661
_cell_length_b                    18.795127
_cell_length_c                    26.817486
_cell_angle_alpha                 99.785835
_cell_angle_beta                  92.598985
_cell_angle_gamma                 88.066443
_cell_volume                      4173.83862607

loop_
_atom_site_label
_atom_site_type_symbol
_atom_type_description
_atom_site_fract_x
_atom_site_fract_y
_atom_site_fract_z
_atom_type_partial_charge
Ba1   Ba    Ba6+2 0.160810 0.465630 0.521640 1.709432
Ba2   Ba    Ba6+2 0.649380 0.534380 0.478400 1.693490
C1    C     C_3   0.446762 0.232066 0.690310 -0.310886
C2    C     C_R   0.062873 0.095953 0.450661 -0.075425
C3    C     C_R   0.182840 0.947877 0.449164 -0.046252
C4    C     C_3   0.971593 0.270271 0.625904 0.392420
C5    C     C_R   0.040627 0.973963 0.472746 0.053921
C6    C     C_R   0.239493 0.877767 0.448958 -0.102370
C7    C     C_R   0.156156 0.828939 0.471072 -0.030240
C8    C     C_R   0.014083 0.853254 0.495785 0.013366
C9    C     C_R   0.956653 0.926202 0.496989 0.046208
C10   C     C_R   0.209545 0.756341 0.468605 0.015989
C11   C     C_R   0.115339 0.707665 0.487408 -0.254785
C12   C     C_3   0.478937 0.264184 0.643550 0.296155
C13   C     C_R   0.978599 0.730802 0.514062 0.055070
C14   C     C_R   0.931266 0.805224 0.520205 -0.011866
C15   C     C_R   0.840178 0.070568 0.498695 0.034337
C16   C     C_3   0.997307 0.199479 0.645814 -0.332040
C17   C     C_R   0.786067 0.144225 0.500995 0.011208
C18   C     C_R   0.875105 0.193590 0.479473 -0.048000
C19   C     C_R   0.008614 0.166667 0.452912 -0.039671
C20   C     C_R   0.809253 0.834349 0.552080 0.014789
C21   C     C_R   0.757509 0.906051 0.554722 -0.099483
C22   C     C_R   0.817100 0.950918 0.523085 -0.003200
C23   C     C_3   0.501967 0.313968 0.395819 0.218633
C24   C     C_R   0.749394 0.021237 0.519834 -0.041396
C25   C     C_R   0.592520 0.044061 0.535124 -0.053111
C26   C     C_R   0.640648 0.167925 0.523237 -0.056479
C27   C     C_R   0.544788 0.116952 0.538837 -0.087976
C28   C     C_3   0.781517 0.679823 0.641017 0.259228
C29   C     C_R   0.591065 0.241409 0.526841 -0.023298
C30   C     C_R   0.686892 0.290402 0.509035 -0.285026
C31   C     C_R   0.826214 0.267815 0.484025 0.035422
C32   C     C_R   0.269588 0.430533 0.169653 0.616701
C33   C     C_R   0.161970 0.550794 0.172026 0.569409
C34   C     C_3   0.546098 0.234799 0.375160 -0.250688
C35   C     C_2   0.023781 0.513809 0.268072 -0.062796
C36   C     C_3   0.997070 0.516659 0.324004 -0.037153
C37   C     C_1   0.278690 0.486891 0.334935 0.027973
C38   C     C_2   0.305544 0.483180 0.286247 -0.062272
C39   C     C_2   0.170761 0.496524 0.249742 0.250542
C40   C     C_3   0.787874 0.734856 0.690439 -0.431103
C41   C     C_R   0.275619 0.487165 0.094281 -0.079331
C42   C     C_R   0.307286 0.426943 0.118470 -0.050925
C43   C     C_R   0.377621 0.364585 0.091206 -0.050044
C44   C     C_R   0.202519 0.549489 0.121375 -0.021743
C45   C     C_3   0.880187 0.720887 0.377394 0.238192
C46   C     C_2   0.152686 0.522835 0.354881 -0.274802
C47   C     C_2   0.627045 0.456104 0.631939 -0.170912
C48   C     C_R   0.414060 0.417091 0.963048 0.020231
C49   C     C_R   0.343661 0.546663 0.969793 0.020211
C50   C     C_R   0.400080 0.480878 0.941103 0.051833
C51   C     C_R   0.458736 0.351786 0.931772 -0.099727
C52   C     C_3   0.033016 0.327123 0.359360 0.277442
C53   C     C_R   0.495088 0.349872 0.881512 -0.058868
C54   C     C_R   0.490036 0.413023 0.860225 -0.026388
C55   C     C_R   0.442916 0.478772 0.889914 -0.082697
C56   C     C_3   0.870235 0.798710 0.366115 -0.273445
C57   C     C_R   0.438428 0.542299 0.868424 -0.041486
C58   C     C_R   0.485224 0.539480 0.818082 0.614656
C59   C     C_R   0.529815 0.411357 0.809568 0.588190
C60   C     C_2   0.711667 0.436412 0.720672 -0.090509
C61   C     C_3   0.736471 0.415767 0.664783 -0.087626
C62   C     C_1   0.508915 0.498843 0.651881 0.037900
C63   C     C_2   0.466834 0.501068 0.699363 -0.097756
C64   C     C_3   0.123798 0.254755 0.346757 -0.271097
C65   C     C_2   0.575832 0.471359 0.737001 0.203602
C66   C     C_R   0.381715 0.420350 0.015116 0.019628
C67   C     C_3   0.438898 0.716525 0.349704 0.460309
C68   C     C_R   0.316715 0.485005 0.042922 0.051946
C69   C     C_R   0.292480 0.547526 0.019918 0.019725
C70   C     C_R   0.413672 0.361173 0.040711 -0.095943
C71   C     C_R   0.171686 0.609453 0.097383 -0.056963
C72   C     C_R   0.342003 0.609616 0.947299 -0.099263
C73   C     C_R   0.389052 0.607417 0.897887 -0.047697
C74   C     C_R   0.216269 0.608751 0.047944 -0.100411
C75   C     C_3   0.307248 0.696065 0.657192 0.209524
C76   C     C_3   0.376923 0.764368 0.689954 -0.276546
C77   C     C_2   0.972675 0.350706 0.310916 0.426307
C78   C     C_3   0.500115 0.753818 0.307632 -0.322431
C79   C     C_2   0.199919 0.662233 0.689956 0.472000
C80   C     C_2   0.223377 0.717205 0.611230 0.514726
C81   C     C_2   0.604158 0.225493 0.322288 0.614110
C82   C     C_2   0.929670 0.805739 0.315228 0.501965
C83   C     C_3   0.203825 0.675757 0.297192 -0.261085
C84   C     C_2   0.466213 0.992418 0.539809 0.466470
C85   C     C_2   0.795454 0.604105 0.652343 0.460149
C86   C     C_R   0.983463 0.046565 0.474238 0.030126
H1    H     H_    0.497184 0.322928 0.655072 0.032396
H2    H     H_    0.443438 0.750856 0.723929 0.143992
H3    H     H_    0.280494 0.804002 0.703472 0.113615
H4    H     H_    0.459261 0.790652 0.667800 0.105512
H5    H     H_    0.588241 0.236764 0.627144 -0.026443
H6    H     H_    0.554173 0.236247 0.716102 0.126441
H7    H     H_    0.613544 0.343092 0.406750 0.057134
H8    H     H_    0.432144 0.316086 0.430282 0.035854
H9    H     H_    0.641336 0.215415 0.399813 -0.004570
H10   H     H_    0.442941 0.199974 0.376049 0.092506
H11   H     H_    0.418471 0.174061 0.679237 0.113641
H12   H     H_    0.755020 0.789797 0.682524 0.122847
H13   H     H_    0.943271 0.154894 0.618397 0.081754
H14   H     H_    0.800831 0.719645 0.409247 0.095222
H15   H     H_    0.003315 0.708153 0.389805 -0.016315
H16   H     H_    0.939144 0.834255 0.395734 0.079123
H17   H     H_    0.746171 0.820136 0.368889 0.091796
H18   H     H_    0.489650 0.660798 0.345631 0.103201
H19   H     H_    0.467509 0.812345 0.314754 0.132716
H20   H     H_    0.453363 0.729847 0.269406 0.091449
H21   H     H_    0.028003 0.265423 0.588750 0.084630
H22   H     H_    0.629107 0.746746 0.305134 0.117185
H23   H     H_    0.704391 0.720341 0.717880 0.107593
H24   H     H_    0.155947 0.651962 0.484755 0.061054
H25   H     H_    0.349633 0.862945 0.430652 0.111290
H26   H     H_    0.075373 0.199884 0.433714 0.096778
H27   H     H_    0.753745 0.802858 0.576249 0.086160
H28   H     H_    0.426794 0.132617 0.551562 0.147413
H29   H     H_    0.646990 0.346191 0.511769 0.063757
H30   H     H_    0.256842 0.980389 0.430924 0.063377
H31   H     H_    0.168339 0.082233 0.429532 0.066216
H32   H     H_    0.672300 0.926050 0.583000 0.074155
H33   H     H_    0.840995 0.278178 0.619895 -0.132538
H34   H     H_    0.909505 0.736686 0.708595 0.133002
H35   H     H_    0.425362 0.472784 0.272913 0.089557
H36   H     H_    0.405465 0.317717 0.108907 0.134514
H37   H     H_    0.793349 0.414361 0.747003 0.104600
H38   H     H_    0.528408 0.298243 0.859330 0.120458
H39   H     H_    0.462882 0.300456 0.944620 0.073113
H40   H     H_    0.470966 0.311703 0.023148 0.075262
H41   H     H_    0.923217 0.521700 0.242599 0.100638
H42   H     H_    0.113692 0.657885 0.117016 0.125806
H43   H     H_    0.308847 0.662221 0.967432 0.074305
H44   H     H_    0.126093 0.187051 0.650864 0.153501
H45   H     H_    0.110244 0.369735 0.380240 0.014693
H46   H     H_    0.386032 0.657364 0.882727 0.132370
H47   H     H_    0.349469 0.521111 0.710863 0.150922
H48   H     H_    0.185632 0.656765 0.032283 0.074931
H49   H     H_    0.160379 0.555330 0.392445 0.066657
H50   H     H_    0.636515 0.442825 0.591205 0.088271
H51   H     H_    0.940140 0.203120 0.682733 0.107742
H52   H     H_    0.668758 0.690302 0.620755 0.089023
H53   H     H_    0.851377 0.371580 0.307646 0.013060
H54   H     H_    0.088964 0.639244 0.674451 0.026833
H55   H     H_    0.206095 0.675823 0.578305 -0.059405
H56   H     H_    0.197613 0.245769 0.380110 0.071601
H57   H     H_    0.708815 0.253079 0.314499 -0.003383
H58   H     H_    0.884547 0.771638 0.281146 0.051985
H59   H     H_    0.211655 0.763492 0.356398 0.211153
H60   H     H_    0.183991 0.713181 0.269491 0.173537
H61   H     H_    0.089908 0.652612 0.302677 0.155409
H62   H     H_    0.285715 0.630964 0.281382 0.106930
H63   H     H_    0.474704 0.937132 0.520183 0.013753
H64   H     H_    0.755044 0.591025 0.687969 -0.054079
H65   H     H_    0.205614 0.254035 0.315331 0.184059
H66   H     H_    0.039944 0.209757 0.335994 0.090159
H67   H     H_    0.345172 0.261409 0.710428 0.153383
N1    N     N_R   0.199491 0.492406 0.196160 -0.431979
N2    N     N_R   0.530183 0.474352 0.789124 -0.426252
N3    N     N_2   0.267124 0.714175 0.344911 -0.482940
O1    O     O_2   0.106080 0.324280 0.466820 -0.472947
O2    O     O_2   0.673073 0.554677 0.331697 -0.491366
O3    O     O_3   0.833641 0.669961 0.334723 -0.628718
O4    O     O_3   0.859130 0.413620 0.470620 -0.459968
O5    O     O_3   0.459240 0.537930 0.559910 -0.466479
O6    O     O_2   0.583120 0.462390 0.379940 -0.456749
O7    O     O_3   0.411322 0.344817 0.359133 -0.637932
O8    O     O_2   0.523844 0.755794 0.493000 -0.475495
O9    O     O_3   0.490216 0.755830 0.396997 -0.627877
O10   O     O_2   0.297843 0.378236 0.190513 -0.537516
O11   O     O_2   0.563075 0.353458 0.783431 -0.625016
O12   O     O_3   0.435764 0.650184 0.639858 -0.704382
O13   O     O_2   0.094519 0.604331 0.194755 -0.621032
O14   O     O_2   0.487715 0.595104 0.800275 -0.555357
O15   O     O_3   0.376230 0.370290 0.556910 -0.472189
O16   O     O_2   0.263699 0.243541 0.514802 -0.489087
O17   O     O_3   0.899392 0.317707 0.386608 -0.697500
O18   O     O_3   0.347593 0.252805 0.609342 -0.586681
O19   O     O_2   0.227190 0.537650 0.620070 -0.469915
O20   O     O_3   0.971110 0.406970 0.583250 -0.440419
O21   O     O_2   0.054667 0.469294 0.676935 -0.449889
O22   O     O_2   0.059515 0.349020 0.275444 -0.564745
O23   O     O_3   0.039863 0.327281 0.660522 -0.586279
O24   O     O_2   0.241510 0.656118 0.733412 -0.561006
O25   O     O_2   0.179356 0.779611 0.609497 -0.608352
O26   O     O_2   0.534003 0.186763 0.287674 -0.549293
O27   O     O_2   0.028015 0.850724 0.311666 -0.577705
O28   O     O_2   0.349879 0.011237 0.564933 -0.571335
O29   O     O_2   0.854853 0.556410 0.621355 -0.559509
O30   O     O_2   0.704230 0.675760 0.533200 -0.476536
O31   O     O_3   0.951180 0.586390 0.529420 -0.434359
O32   O     O_3   0.434080 0.629720 0.443130 -0.467298
O33   O     O_3   0.911406 0.691402 0.612903 -0.648331
O34   O     O_3   0.351080 0.462080 0.440130 -0.472343
O35   O     O_3   0.839200 0.593040 0.416790 -0.487260
P1    P     P_3+3 0.929380 0.335110 0.452880 0.967387
P2    P     P_3+3 0.398530 0.559060 0.613740 0.991458
P3    P     P_3+3 0.950961 0.408048 0.647607 1.044490
P4    P     P_3+3 0.880940 0.664900 0.547160 1.044094
P5    P     P_3+3 0.838748 0.583128 0.351000 0.948255
P6    P     P_3+3 0.397165 0.276710 0.551873 0.943372
P7    P     P_3+3 0.403927 0.438917 0.376841 0.979249
P8    P     P_3+3 0.411219 0.723611 0.448509 0.960098

loop_
_geom_bond_atom_site_label_1
_geom_bond_atom_site_label_2
_ccdc_geom_bond_type
O1    P1    D    
C53   C54   A    
C38   C39   S    
C47   C61   S    
O15   P6    S    
Ba2   P4    S    
C33   O13   D    
C16   H44   S    
C17   C18   A    
Ba2   O31   S    
C30   H29   S    
C40   H23   S    
C71   C74   A    
Ba2   O4    S    
C29   P6    S    
C74   H48   S    
C73   H46   S    
C77   H53   S    
C75   C76   S    
C76   H2    S    
C5    C9    A    
C78   H19   S    
Ba1   O15   S    
O16   P6    D    
C60   C61   S    
O3    P5    S    
C70   H40   S    
C15   C24   A    
O30   P4    D    
C26   C27   A    
Ba1   P2    S    
C22   C24   A    
C11   H24   S    
C40   H12   S    
C69   C74   A    
C13   P4    S    
C55   C57   A    
C64   H56   S    
C34   C81   S    
C13   C14   A    
C15   C86   A    
C62   P2    S    
C9    C22   A    
C54   C55   A    
Ba1   Ba2   S    
C77   O22   D    
O23   P3    S    
C83   H62   S    
C12   O18   S    
C51   H39   S    
C81   H57   S    
Ba1   O19   S    
C29   C30   A    
C75   O12   S    
C63   C65   S    
C48   C50   A    
C21   C22   A    
C83   H60   S    
C2    H31   S    
C68   C69   A    
C75   C79   S    
O19   P2    D    
C7    C8    A    
C12   H5    S    
C36   C46   S    
C39   N1    S    
O34   P7    S    
C57   C58   A    
C47   C62   D    
C47   H50   S    
C43   C70   A    
C82   O27   D    
C16   H51   S    
C49   C69   A    
C79   O24   D    
C32   O10   D    
C1    H67   S    
C41   C44   A    
O35   P5    S    
Ba2   O30   S    
O21   P3    D    
C51   C53   A    
C43   H36   S    
C4    C16   S    
C60   C65   D    
C48   C51   A    
C45   H15   S    
C72   C73   A    
C4    O23   S    
C49   C50   A    
C58   O14   D    
O33   P4    S    
Ba1   O1    S    
C32   C42   A    
C58   N2    Am   
C8    C9    A    
O7    P7    S    
Ba2   O6    S    
C21   H32   S    
C3    C5    A    
C6    C7    A    
C85   O29   D    
C76   H4    S    
C10   P8    S    
C52   H45   S    
O20   P3    S    
C80   O25   D    
C49   C72   A    
O8    P8    D    
C52   O17   S    
C25   C84   S    
C41   C42   A    
C67   O9    S    
C12   H1    S    
C35   C36   S    
C59   N2    Am   
C3    C6    A    
Ba1   O20   S    
C5    C86   A    
C53   H38   S    
O5    P2    S    
C66   C70   A    
O4    P1    S    
C36   P5    S    
C67   N3    S    
C24   C25   A    
C65   N2    S    
C63   H47   S    
C28   O33   S    
C18   C19   A    
C17   C26   A    
C34   H9    S    
C1    C12   S    
C6    H25   S    
C52   C64   S    
C18   C31   A    
C46   H49   S    
C20   H27   S    
C27   H28   S    
Ba1   O4    S    
C84   O28   D    
C41   C68   A    
C32   N1    Am   
C85   H64   S    
C11   C13   A    
C61   P3    S    
C80   H55   S    
C4    H21   S    
C59   O11   D    
C83   N3    S    
O18   P6    S    
C57   C73   A    
C37   C38   D    
C42   C43   A    
C40   H34   S    
C64   H66   S    
C52   C77   S    
O31   P4    S    
C38   H35   S    
C71   H42   S    
C79   H54   S    
C14   C20   A    
O17   P1    S    
C54   C59   A    
C26   C29   A    
Ba2   O32   S    
Ba2   O34   S    
C19   H26   S    
C28   H52   S    
Ba2   O5    S    
C31   P1    S    
C60   H37   S    
O2    P5    D    
C67   H18   S    
O32   P8    S    
C23   H7    S    
C2    C86   A    
C82   H58   S    
C76   H3    S    
C64   H65   S    
C78   H20   S    
C3    H30   S    
C56   H17   S    
C23   O7    S    
C62   C63   D    
Ba2   O35   S    
Ba1   P1    S    
C8    C14   A    
C84   H63   S    
C30   C31   A    
C45   C56   S    
C2    C19   A    
C33   C44   A    
O12   P2    S    
C25   C27   A    
C75   C80   S    
C15   C17   A    
C37   P7    S    
C35   H41   S    
C81   O26   D    
C1    H6    S    
O9    P8    S    
C35   C39   D    
C56   C82   S    
C7    C10   A    
C83   H61   S    
C50   C55   A    
C23   C34   S    
C45   O3    S    
Ba1   O34   S    
C1    H11   S    
C33   N1    Am   
C56   H16   S    
C10   C11   A    
Ba1   O5    S    
C23   H8    S    
C66   C68   A    
C78   H22   S    
C45   H14   S    
C20   C21   A    
C28   C40   S    
C67   C78   S    
C34   H10   S    
C4    H33   S    
C28   C85   S    
C72   H43   S    
H59   N3    S    
C48   C66   A    
C16   H13   S    
C44   C71   A    
O6    P7    D    
C37   C46   D    
Ba1   O31   S    
