data_mof_unit_26539.cif
_audit_creation_date              2012-12-10T20:30:09-0500
_audit_creation_method            fapswitch 2.2
_symmetry_space_group_name_H-M    P1
_symmetry_Int_Tables_number       1
_space_group_crystal_system       triclinic
_cell_length_a                    9.910535
_cell_length_b                    10.70269
_cell_length_c                    13.103921
_cell_angle_alpha                 89.804522
_cell_angle_beta                  70.747742
_cell_angle_gamma                 89.21945
_cell_volume                      1312.07208498

loop_
_atom_site_label
_atom_site_type_symbol
_atom_type_description
_atom_site_fract_x
_atom_site_fract_y
_atom_site_fract_z
_atom_type_partial_charge
C1    C     C_R   0.501010 0.739989 0.496146 0.915743
C2    C     C_R   0.444949 0.437140 0.982794 0.054391
C3    C     C_R   0.476456 0.422338 0.870642 0.074717
C4    C     C_R   0.553264 0.410943 0.028240 -0.055104
C5    C     C_R   0.696601 0.390669 0.961906 -0.037857
C6    C     C_R   0.720648 0.358442 0.853558 -0.208584
C7    C     C_R   0.608611 0.364921 0.811340 -0.182147
C8    C     C_R   0.522967 0.410028 0.139449 0.395380
C9    C     C_R   0.770069 0.443643 0.116649 -0.297847
C10   C     C_R   0.379286 0.472338 0.820999 -0.221031
C11   C     C_R   0.382990 0.938445 0.487093 0.136338
C12   C     C_R   0.422647 0.490042 0.703655 0.883594
C13   C     C_R   0.507415 0.871404 0.477526 -0.186212
C14   C     C_R   0.639039 0.932865 0.445803 -0.321409
C15   C     C_R   0.642155 0.062517 0.440245 0.472156
C16   C     C_R   0.510690 0.128843 0.475639 -0.240672
C17   C     C_R   0.384370 0.065767 0.488350 0.082253
C18   C     C_3   0.242184 0.075190 0.575262 -0.435264
C19   C     C_3   0.240212 0.933795 0.573045 -0.488462
C20   C     C_R   0.887022 0.518775 0.592899 0.158462
C21   C     C_R   0.968153 0.472376 0.409292 -0.135366
C22   C     C_R   0.111229 0.473976 0.409076 -0.166530
C23   C     C_R   0.502756 0.260124 0.495373 0.874261
C24   C     C_R   0.028630 0.518161 0.594519 0.183897
C25   C     C_3   0.992400 0.632995 0.666287 0.286467
C26   C     C_3   0.840802 0.629596 0.661783 -0.574974
C27   C     C_R   0.579021 0.488479 0.296434 0.915825
C28   C     C_R   0.807243 0.403714 0.008611 0.448338
C29   C     C_R   0.626080 0.450753 0.182171 -0.275021
C30   C     C_R   0.250029 0.526351 0.884649 -0.225802
C31   C     C_R   0.217531 0.538727 0.995470 0.556074
C32   C     C_R   0.313513 0.493445 0.044370 -0.285523
H1    H     H_    0.853767 0.460862 0.150536 0.216233
H2    H     H_    0.248992 0.113647 0.652144 0.198360
H3    H     H_    0.159271 0.119436 0.546418 0.210438
H4    H     H_    0.245980 0.889580 0.648329 0.193154
H5    H     H_    0.157160 0.897285 0.541581 0.195569
H6    H     H_    0.947538 0.452742 0.335080 0.142157
H7    H     H_    0.195708 0.457422 0.334546 0.216170
H8    H     H_    0.056955 0.713705 0.625610 0.083277
H9    H     H_    0.755106 0.603110 0.737136 0.222499
H10   H     H_    0.824086 0.329469 0.799320 0.149776
H11   H     H_    0.814383 0.710492 0.618028 0.185359
H12   H     H_    0.180010 0.569465 0.847282 0.231032
H13   H     H_    0.288051 0.512997 0.129195 0.187419
H14   H     H_    0.630459 0.331076 0.729833 0.181964
H15   H     H_    0.738510 0.882009 0.431042 0.185671
N1    N     N_R   0.856940 0.500860 0.500710 -0.098764
N2    N     N_R   0.142580 0.500820 0.500710 -0.135362
O1    O     O_R   0.385310 0.683210 0.499990 -0.616986
O2    O     O_R   0.614650 0.683240 0.500000 -0.620940
O3    O     O_R   0.328390 0.499940 0.653610 -0.585510
O4    O     O_R   0.557730 0.499980 0.653620 -0.619283
O5    O     O_R   0.385350 0.316760 0.500000 -0.617366
O6    O     O_R   0.614690 0.316790 0.500010 -0.585735
O7    O     O_R   0.442270 0.500020 0.346380 -0.569878
O8    O     O_R   0.671610 0.500060 0.346390 -0.651222
Zn1   Zn    Zn3+2 0.346870 0.499980 0.499990 0.962347
Zn2   Zn    Zn3+2 0.653130 0.500020 0.500010 0.929059
O9    O     O_3   0.772498 0.121208 0.415676 -0.629436
C33   C     C_3   0.811594 0.171357 0.309912 0.148349
H16   H     H_    0.884688 0.249830 0.306525 0.163309
H17   H     H_    0.719462 0.211348 0.288992 0.099816
C34   C     C_3   0.891162 0.073282 0.226207 -0.438093
H18   H     H_    0.972397 0.025070 0.254140 0.250159
H19   H     H_    0.813878 0.003314 0.217754 0.208482
C35   C     C_3   0.965204 0.131917 0.116001 -0.913825
H20   H     H_    0.884147 0.167355 0.081089 0.278137
H21   H     H_    0.033131 0.060303 0.060897 0.257804
H22   H     H_    0.034736 0.209835 0.122699 0.278377
O10   O     O_3   0.999837 0.606943 0.770343 -0.622994
C36   C     C_3   0.925331 0.697522 0.848929 0.128238
H23   H     H_    0.926537 0.663334 0.928708 0.210136
H24   H     H_    0.810554 0.705553 0.857351 0.134888
C37   C     C_3   0.993944 0.827027 0.830296 -0.423197
H25   H     H_    0.104209 0.820044 0.834008 0.215071
H26   H     H_    0.997864 0.863922 0.750347 0.226129
C38   C     C_3   0.906222 0.920707 0.914582 -0.968800
H27   H     H_    0.798571 0.934064 0.906993 0.267236
H28   H     H_    0.960715 0.012221 0.901100 0.271608
H29   H     H_    0.893383 0.887921 0.997605 0.263492
O11   O     O_3   0.950897 0.386289 0.952681 -0.745628
H30   H     H_    0.963450 0.332395 0.889301 0.330382
O12   O     O_3   0.395436 0.362389 0.206283 -0.664598
C39   C     C_3   0.400791 0.230995 0.197489 0.076955
H31   H     H_    0.493641 0.192108 0.218116 0.125330
H32   H     H_    0.408917 0.201492 0.114150 0.152353
C40   C     C_3   0.263726 0.178396 0.276454 -0.300000
H33   H     H_    0.254729 0.206209 0.359955 0.240666
H34   H     H_    0.169892 0.217917 0.258289 0.219347
C41   C     C_3   0.262716 0.036470 0.268761 -0.997902
H35   H     H_    0.360276 0.994880 0.279646 0.268433
H36   H     H_    0.258636 0.008693 0.188265 0.257506
H37   H     H_    0.167672 0.999849 0.332862 0.269842
O13   O     O_3   0.094680 0.602505 0.054810 -0.623580
C42   C     C_3   0.129426 0.722643 0.083631 0.058989
H38   H     H_    0.069381 0.793656 0.053543 0.163387
H39   H     H_    0.244637 0.747615 0.047270 0.079834
C43   C     C_3   0.086568 0.734595 0.206522 -0.390044
H40   H     H_    0.144300 0.663469 0.238637 0.213825
H41   H     H_    0.117754 0.827629 0.226859 0.184591
C44   C     C_3   0.926331 0.720521 0.261756 -0.765330
H42   H     H_    0.866405 0.794409 0.234820 0.225722
H43   H     H_    0.901444 0.726633 0.350533 0.239484
H44   H     H_    0.891610 0.628765 0.242349 0.286019

loop_
_geom_bond_atom_site_label_1
_geom_bond_atom_site_label_2
_ccdc_geom_bond_type
O6    Zn2   S    
C27   C29   S    
C11   C13   A    
C15   O9    S    
O13   C42   S    
C4    C8    A    
O4    Zn2   S    
C39   H31   S    
C11   C19   S    
N1    Zn2   S    
C8    C29   A    
C3    C7    A    
C19   H4    S    
C25   H8    S    
O5    Zn1   S    
C30   C31   A    
C38   H28   S    
O8    Zn2   S    
C15   C16   A    
C42   C43   S    
C44   H44   S    
C2    C32   A    
C18   C19   S    
C32   H13   S    
C37   H26   S    
C19   H5    S    
C21   H6    S    
C20   C24   A    
C16   C17   A    
C42   H39   S    
C25   O10   S    
C1    O1    A    
C12   O4    A    
C9    C29   A    
C21   N1    A    
C21   C22   A    
C9    H1    S    
C30   H12   S    
C33   H16   S    
C36   C37   S    
C10   C12   S    
C12   O3    A    
C26   H11   S    
C6    C7    A    
C39   H32   S    
C28   O11   S    
C35   H20   S    
O1    Zn1   S    
C34   C35   S    
O12   C39   S    
C36   H24   S    
C27   O8    A    
C41   H35   S    
C27   O7    A    
C36   H23   S    
C25   C26   S    
N2    Zn1   S    
O9    C33   S    
C35   H21   S    
C34   H19   S    
C33   C34   S    
C2    C4    A    
C37   H25   S    
C7    H14   S    
C41   H36   S    
C5    C28   A    
C1    O2    A    
C10   C30   A    
C43   H40   S    
C40   C41   S    
C42   H38   S    
C33   H17   S    
C17   C18   S    
C24   C25   S    
C44   H43   S    
C18   H2    S    
C20   N1    A    
O3    Zn1   S    
C22   N2    A    
C43   H41   S    
C40   H34   S    
C16   C23   S    
C1    C13   S    
C23   O5    A    
C18   H3    S    
C39   C40   S    
C24   N2    A    
C11   C17   A    
C8    O12   S    
C31   C32   A    
C4    C5    A    
C23   O6    A    
C14   H15   S    
C35   H22   S    
C34   H18   S    
C2    C3    A    
O10   C36   S    
C3    C10   A    
C41   H37   S    
C38   H27   S    
C38   H29   S    
C5    C6    A    
C20   C26   S    
C31   O13   S    
C22   H7    S    
O7    Zn1   S    
C44   H42   S    
C37   C38   S    
C43   C44   S    
O2    Zn2   S    
C40   H33   S    
C26   H9    S    
O11   H30   S    
C6    H10   S    
C14   C15   A    
C13   C14   A    
C9    C28   A    
