data_mof_unit_41069.cif
_audit_creation_date              2012-12-10T18:33:33-0500
_audit_creation_method            fapswitch 2.2
_symmetry_space_group_name_H-M    P1
_symmetry_Int_Tables_number       1
_space_group_crystal_system       triclinic
_cell_length_a                    8.826676
_cell_length_b                    15.113175
_cell_length_c                    13.872025
_cell_angle_alpha                 90.562785
_cell_angle_beta                  96.659939
_cell_angle_gamma                 88.673956
_cell_volume                      1837.48860742

loop_
_atom_site_label
_atom_site_type_symbol
_atom_type_description
_atom_site_fract_x
_atom_site_fract_y
_atom_site_fract_z
_atom_type_partial_charge
C1    C     C_R   0.509453 0.330051 0.499795 0.906280
C2    C     C_R   0.489314 0.670279 0.499846 0.930610
C3    C     C_R   0.585288 0.561298 0.115488 -0.238875
C4    C     C_R   0.449678 0.426910 0.887502 -0.243168
C5    C     C_R   0.581029 0.561148 0.216280 0.175098
C6    C     C_R   0.448810 0.428595 0.786272 0.182133
C7    C     C_R   0.414698 0.440732 0.202779 0.101428
C8    C     C_R   0.555482 0.570359 0.795230 0.156545
C9    C     C_R   0.411076 0.440561 0.101234 -0.245249
C10   C     C_R   0.553363 0.572807 0.896287 -0.220576
C11   C     C_R   0.499131 0.500581 0.054870 0.121064
C12   C     C_R   0.500358 0.500231 0.945365 0.108738
C13   C     C_R   0.204746 0.500701 0.476677 0.883268
C14   C     C_R   0.795417 0.498896 0.524100 0.893102
C15   C     C_2   0.043017 0.516890 0.467956 0.135279
C16   C     C_2   0.958510 0.486941 0.536773 0.078431
C17   C     C_R   0.367642 0.100831 0.504613 -0.098093
C18   C     C_R   0.530291 0.904998 0.425853 -0.146429
C19   C     C_R   0.374405 0.192154 0.505844 -0.186878
C20   C     C_R   0.531011 0.813493 0.425424 -0.190342
C21   C     C_R   0.511864 0.233438 0.497170 -0.210784
C22   C     C_R   0.474620 0.767618 0.500294 -0.184585
C23   C     C_R   0.645718 0.182036 0.485782 0.232460
C24   C     C_R   0.408792 0.815724 0.574384 0.291209
C25   C     C_R   0.643600 0.089407 0.501758 0.374040
C26   C     C_R   0.432378 0.907985 0.583286 0.359083
C27   C     C_R   0.501108 0.049154 0.505118 -0.026151
C28   C     C_R   0.487540 0.952497 0.505690 -0.005939
Cu1   Cu    Cu3+1 0.500000 0.499990 0.596430 1.070718
Cu2   Cu    Cu3+1 0.500000 0.500010 0.403570 1.059201
H1    H     H_    0.258213 0.070113 0.505974 0.229310
H2    H     H_    0.570616 0.939062 0.365688 0.190430
H3    H     H_    0.270656 0.230934 0.510395 0.225429
H4    H     H_    0.576296 0.778521 0.366123 0.199603
H5    H     H_    0.657440 0.608776 0.086794 0.148165
H6    H     H_    0.412102 0.367417 0.919058 0.146436
H7    H     H_    0.643627 0.610124 0.260731 0.180548
H8    H     H_    0.407541 0.371872 0.744078 0.173815
H9    H     H_    0.347257 0.393880 0.236832 0.140386
H10   H     H_    0.601009 0.625659 0.760028 0.158654
H11   H     H_    0.337547 0.393986 0.060423 0.149167
H12   H     H_    0.592256 0.632210 0.934268 0.154540
N1    N     N_R   0.500000 0.500020 0.258690 -0.191732
N2    N     N_R   0.500000 0.499980 0.741310 -0.197025
O1    O     O_R   0.500010 0.371450 0.581430 -0.580467
O2    O     O_R   0.499990 0.628550 0.418570 -0.586198
O3    O     O_R   0.500010 0.371460 0.418560 -0.590553
O4    O     O_R   0.499990 0.628540 0.581440 -0.569135
O5    O     O_R   0.274840 0.499990 0.562640 -0.525298
O6    O     O_R   0.725160 0.500010 0.437360 -0.515187
O7    O     O_R   0.274840 0.500000 0.399770 -0.554395
O8    O     O_R   0.725160 0.500000 0.600230 -0.590222
S1    S     S_3+6 0.974458 0.592301 0.373671 0.009881
O9    O     O_2   0.913162 0.539734 0.285859 -0.298451
O10   O     O_2   0.852428 0.653586 0.404988 -0.335766
O11   O     O_3   0.118480 0.654073 0.344491 -0.492322
H13   H     H_    0.073446 0.690536 0.289020 0.377644
S2    S     S_3+6 0.033871 0.427395 0.644310 0.045378
O12   O     O_2   0.149767 0.358289 0.621321 -0.264067
O13   O     O_2   0.109130 0.491928 0.716934 -0.307383
O14   O     O_3   0.895411 0.375961 0.694832 -0.457331
H14   H     H_    0.879756 0.410670 0.753959 0.359833
S3    S     S_3+6 0.810521 0.231143 0.447405 0.050494
O15   O     O_2   0.913111 0.258120 0.535805 -0.166820
O16   O     O_2   0.896071 0.166148 0.390041 -0.240776
O17   O     O_3   0.768523 0.320453 0.377562 -0.518112
H15   H     H_    0.718461 0.296899 0.315262 0.353399
S4    S     S_3+6 0.274456 0.765087 0.641755 0.081626
O18   O     O_2   0.354572 0.727703 0.734279 -0.258665
O19   O     O_2   0.154931 0.831521 0.665743 -0.210483
O20   O     O_3   0.186039 0.683588 0.576069 -0.523914
H16   H     H_    0.106185 0.663834 0.615138 0.378817
S5    S     S_3+6 0.815889 0.024454 0.526737 0.104766
O21   O     O_2   0.861943 0.987988 0.432923 -0.283714
O22   O     O_2   0.942786 0.079086 0.575878 -0.154121
O23   O     O_3   0.789828 0.939808 0.600615 -0.478358
H17   H     H_    0.861557 0.892304 0.583786 0.396895
S6    S     S_3+6 0.409241 0.966157 0.693623 0.098304
O24   O     O_2   0.251524 0.007016 0.686850 -0.217308
O25   O     O_2   0.431857 0.904640 0.778752 -0.193004
O26   O     O_3   0.537868 0.046761 0.712834 -0.493296
H18   H     H_    0.501996 0.084300 0.764923 0.378966

loop_
_geom_bond_atom_site_label_1
_geom_bond_atom_site_label_2
_ccdc_geom_bond_type
Cu2   O7    S    
C4    H6    S    
C1    C21   S    
C5    H7    S    
C10   H12   S    
S5    O21   D    
S3    O16   D    
O26   H18   S    
Cu1   O5    S    
S1    O9    D    
C2    O2    A    
C26   S6    S    
C15   S1    S    
C22   C24   A    
C19   C21   A    
C24   C26   A    
S6    O25   D    
S2    O13   D    
C15   C16   D    
O11   H13   S    
C13   O7    A    
C14   O8    A    
S4    O18   D    
C2    C22   S    
C6    H8    S    
C7    N1    A    
C4    C12   A    
C25   S5    S    
C20   H4    S    
S2    O14   S    
C23   S3    S    
O17   H15   S    
C5    N1    A    
S3    O17   S    
C6    N2    A    
S5    O22   D    
S1    O10   D    
Cu1   O4    S    
C17   C27   A    
Cu2   O3    S    
C18   C28   A    
O23   H17   S    
C4    C6    A    
C19   H3    S    
S6    O24   D    
C1    O3    A    
C2    O4    A    
S2    O12   D    
Cu1   O1    S    
Cu1   Cu2   S    
C3    H5    S    
C16   S2    S    
C9    C11   A    
C10   C12   A    
C13   O5    A    
C8    C10   A    
C20   C22   A    
C13   C15   S    
Cu1   N2    S    
C17   H1    S    
S5    O23   S    
C14   C16   S    
Cu2   N1    S    
C18   H2    S    
S1    O11   S    
C7    C9    A    
C26   C28   A    
Cu2   O2    S    
C8    N2    A    
C3    C5    A    
C11   C12   S    
C25   C27   A    
C9    H11   S    
C21   C23   A    
O20   H16   S    
S6    O26   S    
C1    O1    A    
C14   O6    A    
S4    O20   S    
C17   C19   A    
C18   C20   A    
C23   C25   A    
Cu2   O6    S    
O14   H14   S    
C3    C11   A    
C24   S4    S    
S3    O15   D    
S4    O19   D    
C27   C28   S    
C7    H9    S    
C8    H10   S    
Cu1   O8    S    
