data_mof_unit_52558.cif
_audit_creation_date              2012-12-11T17:02:17-0500
_audit_creation_method            fapswitch 2.2
_symmetry_space_group_name_H-M    P1
_symmetry_Int_Tables_number       1
_space_group_crystal_system       triclinic
_cell_length_a                    21.665137
_cell_length_b                    7.0707
_cell_length_c                    14.784795
_cell_angle_alpha                 89.99973
_cell_angle_beta                  105.923128
_cell_angle_gamma                 90.000053
_cell_volume                      2177.94773054

loop_
_atom_site_label
_atom_site_type_symbol
_atom_type_description
_atom_site_fract_x
_atom_site_fract_y
_atom_site_fract_z
_atom_type_partial_charge
O1    O     O_R   0.585850 0.505770 0.002130 -0.532168
O2    O     O_R   0.414150 0.005770 0.997870 -0.532169
O3    O     O_R   0.467530 0.173560 0.861970 -0.518103
O4    O     O_R   0.532470 0.673560 0.138030 -0.518100
C1    C     C_R   0.457853 0.344868 0.823879 0.791490
C2    C     C_R   0.542147 0.844868 0.176121 0.791485
O5    O     O_R   0.588690 0.175900 0.993250 -0.549770
O6    O     O_R   0.411310 0.675900 0.006750 -0.549768
O7    O     O_R   0.536170 0.007950 0.130090 -0.538957
O8    O     O_R   0.463830 0.507950 0.869910 -0.538957
C3    C     C_R   0.615570 0.344429 0.000495 0.715291
C4    C     C_R   0.384430 0.844429 0.999505 0.715291
O9    O     O_3   0.482630 0.339970 0.044740 -0.376085
O10   O     O_3   0.517370 0.839970 0.955260 -0.376088
V1    V     V_3+5 0.503220 0.064200 0.991700 1.480001
V2    V     V_3+5 0.496780 0.564200 0.008300 1.480006
C5    C     C_R   0.278226 0.013942 0.963793 0.207527
C6    C     C_R   0.721774 0.513939 0.036210 0.207524
C7    C     C_R   0.315422 0.853344 0.996949 -0.110553
C8    C     C_R   0.684578 0.353343 0.003051 -0.110551
C9    C     C_R   0.284359 0.699417 0.026072 -0.192912
C10   C     C_R   0.715641 0.199418 0.973927 -0.192916
H1    H     H_    0.311347 0.574342 0.054300 0.146144
H2    H     H_    0.688652 0.074345 0.945698 0.146142
C11   C     C_R   0.219313 0.710639 0.025582 -0.177065
C12   C     C_R   0.780687 0.210641 0.974418 -0.177065
H3    H     H_    0.198120 0.592637 0.052691 0.136508
H4    H     H_    0.801879 0.092640 0.947307 0.136506
C13   C     C_R   0.183245 0.876668 0.996288 -0.120570
C14   C     C_R   0.816755 0.376668 0.003713 -0.120568
C15   C     C_R   0.213736 0.025062 0.962968 0.118956
C16   C     C_R   0.786265 0.525060 0.037034 0.118951
C17   C     C_3   0.220108 0.226296 0.993699 -0.441357
C18   C     C_3   0.779893 0.726296 0.006306 -0.441355
C19   C     C_3   0.290343 0.213772 0.995718 -0.404263
C20   C     C_3   0.709658 0.713772 0.004288 -0.404263
H5    H     H_    0.212524 0.246404 0.064502 0.164221
H6    H     H_    0.787477 0.746409 0.935503 0.164222
H7    H     H_    0.191925 0.322116 0.937922 0.192086
H8    H     H_    0.808076 0.822113 0.062083 0.192083
H9    H     H_    0.323470 0.224909 0.067811 0.160200
H10   H     H_    0.676530 0.724913 0.932195 0.160200
H11   H     H_    0.302867 0.305253 0.942367 0.217427
H12   H     H_    0.697135 0.805249 0.057640 0.217421
C21   C     C_R   0.926718 0.887758 0.722607 -0.036864
C22   C     C_R   0.073281 0.387759 0.277393 -0.036869
C23   C     C_R   0.568021 0.853480 0.280523 -0.112870
C24   C     C_R   0.431978 0.353483 0.719477 -0.112875
C25   C     C_R   0.933675 0.957005 0.565639 -0.157163
C26   C     C_R   0.066327 0.457049 0.434357 -0.157165
C27   C     C_R   0.962900 0.940639 0.661787 -0.170963
C28   C     C_R   0.037101 0.440670 0.338210 -0.170960
C29   C     C_R   0.861063 0.851026 0.687034 -0.207060
C30   C     C_R   0.138935 0.351007 0.312969 -0.207064
C31   C     C_R   0.829444 0.876336 0.590257 0.083720
C32   C     C_R   0.170554 0.376332 0.409744 0.083719
C33   C     C_R   0.867316 0.927992 0.529587 0.129637
C34   C     C_R   0.132685 0.428019 0.470411 0.129635
C35   C     C_R   0.761405 0.860000 0.552470 0.057555
C36   C     C_R   0.238594 0.359983 0.447532 0.057553
C37   C     C_R   0.733050 0.878806 0.453557 0.105835
C38   C     C_R   0.266949 0.378811 0.546444 0.105836
C39   C     C_R   0.772377 0.939396 0.397423 -0.112583
C40   C     C_R   0.227624 0.439432 0.602574 -0.112584
C41   C     C_R   0.838273 0.960085 0.434316 -0.204573
C42   C     C_R   0.161729 0.460132 0.565679 -0.204573
C43   C     C_R   0.720340 0.838517 0.610799 -0.199313
C44   C     C_R   0.279658 0.338467 0.389205 -0.199313
C45   C     C_R   0.654351 0.847670 0.574434 -0.110573
C46   C     C_R   0.345647 0.347620 0.425568 -0.110563
C47   C     C_R   0.625713 0.862610 0.477302 0.042069
C48   C     C_R   0.374285 0.362588 0.522698 0.042067
C49   C     C_R   0.665048 0.857289 0.415215 0.003091
C50   C     C_R   0.334951 0.357287 0.584786 0.003088
C51   C     C_R   0.558587 0.880770 0.441948 0.292190
C52   C     C_R   0.441411 0.380757 0.558052 0.292193
C53   C     C_R   0.528970 0.884424 0.343580 0.060324
C54   C     C_R   0.471029 0.384422 0.656419 0.060315
C55   C     C_R   0.634969 0.826940 0.318073 0.142789
C56   C     C_R   0.365029 0.326951 0.681929 0.142791
H13   H     H_    0.866494 0.007107 0.388299 0.130527
H14   H     H_    0.133510 0.507178 0.611693 0.130529
H15   H     H_    0.626369 0.840449 0.624573 0.168479
H16   H     H_    0.373629 0.340373 0.375429 0.168476
H17   H     H_    0.962639 0.998716 0.519732 0.120291
H18   H     H_    0.037365 0.498785 0.480260 0.120293
H19   H     H_    0.013615 0.971437 0.688996 0.112855
H20   H     H_    0.986388 0.471484 0.310998 0.112856
H21   H     H_    0.835998 0.808378 0.737354 0.093602
H22   H     H_    0.163998 0.308338 0.262652 0.093607
H23   H     H_    0.752192 0.983224 0.325403 0.174292
H24   H     H_    0.247810 0.483274 0.674591 0.174295
H25   H     H_    0.737444 0.827030 0.686161 0.116154
H26   H     H_    0.262553 0.326953 0.313843 0.116154
O11   O     O_R   0.036080 0.231270 0.130120 -0.538460
O12   O     O_R   0.963920 0.731270 0.869880 -0.538459
O13   O     O_R   0.911300 0.558970 0.006750 -0.540793
O14   O     O_R   0.088700 0.058970 0.993250 -0.540793
C57   C     C_R   0.884740 0.389931 0.001309 0.695223
C58   C     C_R   0.115260 0.889931 0.998691 0.695224
O15   O     O_R   0.032450 0.561140 0.138040 -0.538253
O16   O     O_R   0.967550 0.061140 0.861960 -0.538253
O17   O     O_R   0.085870 0.728910 0.002130 -0.540727
O18   O     O_R   0.914130 0.228910 0.997870 -0.540726
C59   C     C_R   0.044651 0.392712 0.175387 0.690212
C60   C     C_R   0.955349 0.892713 0.824613 0.690214
O19   O     O_3   0.017320 0.394650 0.955270 -0.372446
O20   O     O_3   0.982680 0.894650 0.044730 -0.372447
V3    V     V_3+5 0.996780 0.670490 0.008300 1.416759
V4    V     V_3+5 0.003220 0.170490 0.991700 1.416761
Br1   Br    Br    0.506425 0.909123 0.529861 -0.597171
Br2   Br    Br    0.493571 0.409120 0.470136 -0.597163
Br3   Br    Br    0.680669 0.696043 0.240815 -0.613092
Br4   Br    Br    0.319326 0.196087 0.759193 -0.613101
C61   C     C_3   0.456064 0.912969 0.316195 -0.294684
C62   C     C_3   0.418526 0.911820 0.213860 -0.824673
H27   H     H_    0.433429 0.031972 0.176714 0.241393
H28   H     H_    0.424061 0.772517 0.182808 0.224467
H29   H     H_    0.366726 0.931025 0.208394 0.219601
H30   H     H_    0.434705 0.799413 0.350083 0.244728
H31   H     H_    0.445853 0.050636 0.345391 0.238429
C63   C     C_3   0.543935 0.412976 0.683803 -0.294680
C64   C     C_3   0.581474 0.411831 0.786138 -0.824666
H32   H     H_    0.566569 0.531981 0.823283 0.241393
H33   H     H_    0.575941 0.272526 0.817192 0.224461
H34   H     H_    0.633273 0.431044 0.791603 0.219600
H35   H     H_    0.565295 0.299422 0.649915 0.244722
H36   H     H_    0.554143 0.550644 0.654605 0.238435

loop_
_geom_bond_atom_site_label_1
_geom_bond_atom_site_label_2
_ccdc_geom_bond_type
C47   C51   A    
C39   C41   A    
C61   H31   S    
C31   C35   A    
C20   H10   S    
O1    C3    A    
C23   C55   A    
C48   C52   A    
O2    C4    A    
C2    O7    A    
O3    V1    S    
C64   H32   S    
C62   H27   S    
O5    C3    A    
C17   H7    S    
C9    C11   A    
O14   V4    S    
C7    C9    A    
C52   C54   A    
C30   H22   S    
C17   C19   S    
C64   H33   S    
C21   C27   A    
O15   V3    S    
C61   C62   S    
C22   C59   S    
C22   C28   A    
C25   C33   A    
O20   V3    S    
C36   C38   A    
C56   Br4   S    
C24   C54   A    
C63   H35   S    
C37   C39   A    
C38   C40   A    
O11   C59   A    
C35   C43   A    
C34   C42   A    
O20   V4    S    
C25   C27   A    
C26   C28   A    
C15   C17   S    
C14   C16   A    
C46   H16   S    
C18   C20   S    
O6    C4    A    
O5    V1    S    
C57   O18   A    
C21   C29   A    
O6    V2    S    
C50   C56   A    
C11   C13   A    
O19   V3    S    
C19   H9    S    
O13   C57   A    
C29   C31   A    
O15   C59   A    
C1    C24   S    
C30   C32   A    
C3    C8    S    
C35   C37   A    
C45   C47   A    
C2    C23   S    
C26   C34   A    
C25   H17   S    
C28   H20   S    
C48   C50   A    
C27   H19   S    
C47   C49   A    
C64   H34   S    
C37   C49   A    
C14   C57   S    
C58   O17   A    
C17   H5    S    
C32   C36   A    
C43   C45   A    
C40   C42   A    
O4    V2    S    
C31   C33   A    
C45   H15   S    
C42   H14   S    
O13   V3    S    
C41   H13   S    
C52   Br2   S    
C22   C30   A    
C49   C55   A    
O1    V2    S    
O2    V1    S    
C51   C53   A    
C62   H28   S    
O4    C2    A    
C8    C10   A    
C12   C14   A    
O14   C58   A    
C9    H1    S    
C29   H21   S    
C5    C15   A    
O19   V4    S    
C10   H2    S    
O16   V4    S    
C6    C16   A    
C23   C53   A    
C19   H11   S    
C21   C60   S    
O12   C60   A    
C13   C58   S    
C18   H6    S    
C51   Br1   S    
C38   C50   A    
C33   C41   A    
O3    C1    A    
O11   V4    S    
C11   H3    S    
O12   V3    S    
C12   H4    S    
C62   H29   S    
O17   V3    S    
C24   C56   A    
C55   Br3   S    
O7    V1    S    
C1    O8    A    
C13   C15   A    
O8    V2    S    
O18   V4    S    
C4    C7    S    
C5    C7    A    
C32   C34   A    
O16   C60   A    
C6    C8    A    
C63   H36   S    
C54   C63   S    
C44   H26   S    
C20   H12   S    
C26   H18   S    
C36   C44   A    
C44   C46   A    
C61   H30   S    
C10   C12   A    
O9    V2    S    
C39   H23   S    
C43   H25   S    
C40   H24   S    
O10   V1    S    
C18   H8    S    
C46   C48   A    
C5    C19   S    
C63   C64   S    
C53   C61   S    
C6    C20   S    
C16   C18   S    
