data_mof_unit_14848.cif
_audit_creation_date              2012-12-10T20:21:42-0500
_audit_creation_method            fapswitch 2.2
_symmetry_space_group_name_H-M    P1
_symmetry_Int_Tables_number       1
_space_group_crystal_system       triclinic
_cell_length_a                    19.139095
_cell_length_b                    18.658845
_cell_length_c                    8.904442
_cell_angle_alpha                 89.98406
_cell_angle_beta                  92.87876
_cell_angle_gamma                 89.974195
_cell_volume                      3175.88226518

loop_
_atom_site_label
_atom_site_type_symbol
_atom_type_description
_atom_site_fract_x
_atom_site_fract_y
_atom_site_fract_z
_atom_type_partial_charge
C1    C     C_R   0.366108 0.500024 0.498484 0.893624
C2    C     C_R   0.633898 0.499998 0.500644 0.900170
C3    C     C_R   0.549471 0.727775 0.586007 0.288687
C4    C     C_R   0.450287 0.272500 0.413906 0.283762
C5    C     C_R   0.450239 0.727549 0.414034 0.283139
C6    C     C_R   0.549409 0.272133 0.586132 0.288935
C7    C     C_R   0.549170 0.803533 0.586430 -0.280787
C8    C     C_R   0.450073 0.196724 0.413655 -0.280365
C9    C     C_R   0.450002 0.803320 0.413838 -0.280168
C10   C     C_R   0.549072 0.196373 0.586628 -0.280702
C11   C     C_R   0.499488 0.842439 0.500115 0.039526
C12   C     C_R   0.499477 0.157539 0.500115 0.039430
C13   C     C_R   0.436290 0.962329 0.491694 -0.185059
C14   C     C_R   0.562531 0.037644 0.507888 -0.184955
C15   C     C_R   0.562535 0.962286 0.507880 -0.184983
C16   C     C_R   0.436287 0.037711 0.491684 -0.185121
C17   C     C_R   0.499413 0.076729 0.499878 0.145162
C18   C     C_R   0.499420 0.923253 0.499880 0.145158
C19   C     C_R   0.500020 0.500007 0.218776 0.910408
C20   C     C_R   0.500277 0.499994 0.781249 0.926627
C21   C     C_1   0.500016 0.500011 0.065405 -0.204255
C22   C     C_1   0.500138 0.499993 0.934585 -0.199306
C23   C     C_R   0.754581 0.498737 0.610986 0.144250
C24   C     C_R   0.258704 0.499300 0.333362 0.142038
C25   C     C_R   0.250808 0.501492 0.608209 0.130154
C26   C     C_R   0.733259 0.501356 0.336556 0.134864
C27   C     C_R   0.826236 0.498416 0.590805 -0.166554
C28   C     C_R   0.186131 0.499535 0.317361 -0.196107
C29   C     C_R   0.178200 0.501881 0.588743 -0.164142
C30   C     C_R   0.805073 0.501237 0.319423 -0.176688
C31   C     C_R   0.850848 0.499787 0.445934 0.067774
C32   C     C_R   0.146545 0.500721 0.444192 0.072948
C33   C     C_R   0.708272 0.500020 0.483032 -0.038813
C34   C     C_R   0.290966 0.500135 0.479876 -0.030191
C35   C     C_R   0.960923 0.566169 0.422995 0.151786
C36   C     C_R   0.035393 0.434382 0.421963 0.152761
C37   C     C_R   0.034411 0.566884 0.421814 0.166212
C38   C     C_R   0.961878 0.433665 0.422085 0.165476
C39   C     C_R   0.070686 0.500864 0.426189 -0.019169
C40   C     C_R   0.925830 0.499679 0.427282 -0.019384
H1    H     H_    0.863165 0.497388 0.687186 0.146639
H2    H     H_    0.160229 0.498872 0.206191 0.154693
H3    H     H_    0.145983 0.502899 0.685458 0.145625
H4    H     H_    0.825706 0.502213 0.208239 0.146943
H5    H     H_    0.587578 0.832070 0.657120 0.146849
H6    H     H_    0.411577 0.168392 0.342807 0.146800
H7    H     H_    0.411447 0.831694 0.343116 0.146802
H8    H     H_    0.587401 0.167767 0.657490 0.146982
H9    H     H_    0.386549 0.934631 0.487938 0.130647
H10   H     H_    0.612282 0.065325 0.511602 0.130755
H11   H     H_    0.612290 0.934570 0.511574 0.130725
H12   H     H_    0.386546 0.065457 0.487908 0.130600
N1    N     N_R   0.500000 0.689440 0.500000 -0.127914
N2    N     N_R   0.500000 0.310560 0.500000 -0.127812
O1    O     O_R   0.398180 0.560840 0.499960 -0.622122
O2    O     O_R   0.601820 0.439160 0.500040 -0.623222
O3    O     O_R   0.601820 0.560840 0.500040 -0.623113
O4    O     O_R   0.398180 0.439160 0.499960 -0.622230
O5    O     O_R   0.500000 0.560800 0.285330 -0.635951
O6    O     O_R   0.500000 0.439200 0.714670 -0.635739
O7    O     O_R   0.500000 0.560800 0.714670 -0.635703
O8    O     O_R   0.500000 0.439200 0.285330 -0.635940
Zn1   Zn    Zn3+2 0.500000 0.581210 0.500000 0.917333
Zn2   Zn    Zn3+2 0.500000 0.418790 0.500000 0.917619
C41   C     C_3   0.728393 0.498122 0.767827 -0.975052
H13   H     H_    0.695326 0.450197 0.783766 0.243905
H14   H     H_    0.772274 0.496914 0.854270 0.242855
H15   H     H_    0.696749 0.546866 0.786333 0.242265
C42   C     C_3   0.298881 0.498416 0.191867 -0.948724
H16   H     H_    0.285342 0.546741 0.123652 0.246635
H17   H     H_    0.356177 0.498009 0.213938 0.231705
H18   H     H_    0.284631 0.449872 0.125051 0.245845
C43   C     C_3   0.284629 0.502480 0.764871 -0.940283
H19   H     H_    0.317915 0.550927 0.779954 0.247310
H20   H     H_    0.245031 0.503304 0.851839 0.242219
H21   H     H_    0.317573 0.453947 0.783103 0.245960
C44   C     C_3   0.684150 0.502863 0.198833 -0.916513
H22   H     H_    0.650727 0.454235 0.196126 0.246839
H23   H     H_    0.650659 0.551403 0.200826 0.248256
H24   H     H_    0.712918 0.504130 0.093859 0.241501
C45   C     C_3   0.918370 0.635122 0.423078 -0.884228
H25   H     H_    0.949582 0.684808 0.418263 0.243538
H26   H     H_    0.880800 0.635823 0.323966 0.239880
H27   H     H_    0.888767 0.638041 0.526982 0.241608
C46   C     C_3   0.077939 0.365436 0.420705 -0.886703
H28   H     H_    0.046495 0.315759 0.415503 0.243862
H29   H     H_    0.110664 0.365055 0.321234 0.237974
H30   H     H_    0.112621 0.362195 0.524235 0.242181
C47   C     C_3   0.073547 0.637722 0.419068 -0.900884
H31   H     H_    0.062802 0.669326 0.520990 0.242027
H32   H     H_    0.131074 0.632279 0.416536 0.246774
H33   H     H_    0.056577 0.668317 0.316672 0.239549
C48   C     C_3   0.922649 0.362817 0.420007 -0.898264
H34   H     H_    0.934240 0.332383 0.317064 0.239766
H35   H     H_    0.938749 0.331065 0.521403 0.241338
H36   H     H_    0.865035 0.368237 0.419143 0.247696
C49   C     C_3   0.605970 0.692562 0.684901 -0.381524
C50   C     C_3   0.677582 0.699857 0.617524 -0.866965
H37   H     H_    0.676554 0.677134 0.502206 0.281255
H38   H     H_    0.693252 0.757067 0.612495 0.245019
H39   H     H_    0.717537 0.670741 0.688683 0.250952
H40   H     H_    0.608054 0.718466 0.797494 0.176563
H41   H     H_    0.595464 0.636048 0.706798 0.255333
C51   C     C_3   0.394265 0.308004 0.314007 -0.374472
C52   C     C_3   0.322252 0.301154 0.379660 -0.859963
H42   H     H_    0.305756 0.244137 0.382162 0.242428
H43   H     H_    0.323093 0.322913 0.495779 0.279163
H44   H     H_    0.283066 0.331530 0.308846 0.253263
H45   H     H_    0.404941 0.364466 0.292416 0.261521
H46   H     H_    0.392572 0.282173 0.201354 0.174800
C53   C     C_3   0.394234 0.692071 0.314152 -0.372742
C54   C     C_3   0.322225 0.698749 0.379987 -0.861889
H47   H     H_    0.323277 0.677317 0.496485 0.279041
H48   H     H_    0.305378 0.755717 0.381696 0.242806
H49   H     H_    0.283195 0.667951 0.309670 0.252482
H50   H     H_    0.392438 0.717992 0.201501 0.174703
H51   H     H_    0.405030 0.635630 0.292408 0.261358
C55   C     C_3   0.605882 0.307226 0.685104 -0.381858
C56   C     C_3   0.677554 0.299528 0.618172 -0.868284
H52   H     H_    0.692836 0.242205 0.612459 0.245357
H53   H     H_    0.676859 0.322642 0.503191 0.280477
H54   H     H_    0.717632 0.328036 0.690030 0.252746
H55   H     H_    0.595500 0.363799 0.706534 0.255137
H56   H     H_    0.607734 0.281451 0.797822 0.177050

loop_
_geom_bond_atom_site_label_1
_geom_bond_atom_site_label_2
_ccdc_geom_bond_type
C15   C18   A    
C38   C40   A    
C11   C18   S    
C48   H34   S    
N1    Zn1   S    
C43   H19   S    
C53   C54   S    
C4    C8    A    
C54   H48   S    
C49   C50   S    
C35   C45   S    
C2    O3    A    
C44   H22   S    
C7    C11   A    
C52   H43   S    
C13   C18   A    
C7    H5    S    
C5    N1    A    
C35   C37   A    
C29   C32   A    
C3    C7    A    
C51   H45   S    
C56   H54   S    
C41   H14   S    
C19   O8    A    
C31   C40   S    
C42   H17   S    
C32   C39   S    
C20   O7    A    
O7    Zn1   S    
C27   H1    S    
C55   C56   S    
C54   H47   S    
O8    Zn2   S    
C16   C17   A    
C23   C33   A    
O1    Zn1   S    
C12   C17   S    
C24   C42   S    
O2    Zn2   S    
C53   H50   S    
C23   C27   A    
C20   O6    A    
C49   H40   S    
C25   C34   A    
C46   H29   S    
C48   H35   S    
C21   C22   T    
C29   H3    S    
C25   C29   A    
C43   H20   S    
C14   C17   A    
C30   H4    S    
C6    N2    A    
C51   C52   S    
C45   H26   S    
C1    C34   S    
O3    Zn1   S    
C56   H53   S    
O4    Zn2   S    
C52   H44   S    
C26   C44   S    
C27   C31   A    
C24   C28   A    
C28   C32   A    
C5    C53   S    
C19   O5    A    
C46   H28   S    
C24   C34   A    
O6    Zn2   S    
C42   H18   S    
C5    C9    A    
C3    C49   S    
C26   C33   A    
C30   C31   A    
C8    C12   A    
C41   H15   S    
C44   H23   S    
C55   H56   S    
C47   H33   S    
C9    C11   A    
C49   H41   S    
C10   C12   A    
C13   H9    S    
C2    C33   S    
C20   C22   S    
C9    H7    S    
C48   H36   S    
C15   H11   S    
C10   H8    S    
C43   H21   S    
C47   H32   S    
C45   H27   S    
C46   H30   S    
C44   H24   S    
C4    N2    A    
O5    Zn1   S    
C36   C39   A    
C16   H12   S    
C6    C10   A    
C56   H52   S    
C26   C30   A    
C36   C46   S    
C50   H39   S    
C52   H42   S    
C50   H38   S    
C37   C47   S    
C53   H51   S    
C23   C41   S    
C36   C38   A    
C35   C40   A    
C1    O1    A    
C37   C39   A    
C2    O2    A    
C1    O4    A    
C51   H46   S    
C3    N1    A    
C14   H10   S    
N2    Zn2   S    
C4    C51   S    
C38   C48   S    
C28   H2    S    
C25   C43   S    
C55   H55   S    
C41   H13   S    
C42   H16   S    
C8    H6    S    
C45   H25   S    
C50   H37   S    
C13   C16   A    
C14   C15   A    
C47   H31   S    
C6    C55   S    
C54   H49   S    
C19   C21   S    
