data_mof_unit_38669.cif
_audit_creation_date              2012-10-26T21:21:28-0400
_audit_creation_method            fapswitch 2.2
_symmetry_space_group_name_H-M    P1
_symmetry_Int_Tables_number       1
_space_group_crystal_system       triclinic
_cell_length_a                    14.340083
_cell_length_b                    10.830197
_cell_length_c                    9.606445
_cell_angle_alpha                 90.301979
_cell_angle_beta                  89.727889
_cell_angle_gamma                 92.413018
_cell_volume                      1490.57889251

loop_
_atom_site_label
_atom_site_type_symbol
_atom_type_description
_atom_site_fract_x
_atom_site_fract_y
_atom_site_fract_z
_atom_type_partial_charge
C1    C     C_R   0.495359 0.262452 0.499680 0.616244
C2    C     C_R   0.555864 0.065935 0.433962 -0.156488
C3    C     C_R   0.555367 0.938879 0.434649 -0.163357
C4    C     C_R   0.331188 0.499914 0.500065 0.633157
C5    C     C_R   0.484485 0.870488 0.502426 0.029701
C6    C     C_R   0.624496 0.663919 0.143669 -0.086452
C7    C     C_R   0.685823 0.744860 0.071269 0.217864
C8    C     C_R   0.684283 0.744659 0.927755 -0.095737
C9    C     C_R   0.623419 0.664684 0.856097 -0.132529
C10   C     C_R   0.560595 0.581066 0.925233 0.147391
C11   C     C_R   0.560835 0.580866 0.074659 0.125999
C12   C     C_1   0.771147 0.500507 0.499253 -0.034502
C13   C     C_R   0.442326 0.422866 0.073824 0.007515
C14   C     C_R   0.442418 0.422829 0.926045 0.008853
C15   C     C_R   0.493978 0.736968 0.500697 0.592458
C16   C     C_R   0.668794 0.500341 0.499708 0.514764
C17   C     C_1   0.228786 0.499829 0.500251 -0.010161
C18   C     C_1   0.143364 0.499916 0.500250 -0.039205
C19   C     C_1   0.042698 0.500137 0.500000 0.012546
C20   C     C_1   0.957263 0.500339 0.499674 0.018217
C21   C     C_1   0.856584 0.500505 0.499324 -0.026152
C22   C     C_R   0.326648 0.122911 0.611918 0.220100
C23   C     C_R   0.250339 0.053535 0.669371 0.225834
C24   C     C_R   0.255751 0.927483 0.684321 -0.077459
C25   C     C_R   0.331932 0.864397 0.632869 0.191400
C26   C     C_R   0.407805 0.930439 0.566181 0.012781
C27   C     C_R   0.406365 0.062135 0.559844 -0.011227
C28   C     C_R   0.484420 0.128246 0.498568 0.022923
Cu1   Cu    Cu3+1 0.499990 0.499990 0.640660 0.980494
Cu2   Cu    Cu3+1 0.500010 0.500010 0.359340 0.954670
H1    H     H_    0.731326 0.806912 0.870502 0.153756
H2    H     H_    0.395081 0.359539 0.128857 0.127252
H3    H     H_    0.629873 0.669919 0.253300 0.162112
H4    H     H_    0.743141 0.812518 0.240044 0.311069
H5    H     H_    0.629470 0.672639 0.746442 0.175003
H6    H     H_    0.395322 0.359372 0.871034 0.122553
H7    H     H_    0.613900 0.116500 0.384794 0.137823
H8    H     H_    0.288440 0.279849 0.684470 0.320959
H9    H     H_    0.158503 0.179403 0.652083 0.339977
H10   H     H_    0.197078 0.876839 0.731557 0.144243
H11   H     H_    0.275133 0.707998 0.698520 0.313829
H12   H     H_    0.612735 0.893314 0.385135 0.115485
N1    N     N_R   0.500820 0.501210 0.147910 -0.237661
N2    N     N_R   0.500850 0.501290 0.852040 -0.228838
O1    O     O_R   0.499990 0.319640 0.618810 -0.463715
O2    O     O_3   0.168043 0.105381 0.709556 -0.695795
O3    O     O_3   0.330874 0.737960 0.644977 -0.681038
O4    O     O_3   0.748357 0.825107 0.138125 -0.682190
O5    O     O_R   0.500000 0.319660 0.381240 -0.494748
O6    O     O_R   0.376050 0.499990 0.618810 -0.440718
O7    O     O_R   0.376060 0.500010 0.381240 -0.476675
O8    O     O_R   0.500000 0.680340 0.618760 -0.468630
O9    O     O_R   0.500010 0.680360 0.381190 -0.524344
O10   O     O_R   0.623940 0.499990 0.618760 -0.506784
O11   O     O_R   0.623950 0.500010 0.381190 -0.505881
O12   O     O_3   0.322267 0.248967 0.601985 -0.716683

loop_
_geom_bond_atom_site_label_1
_geom_bond_atom_site_label_2
_ccdc_geom_bond_type
C1    C28   S    
C22   O12   S    
C23   C24   A    
C3    H12   S    
C11   N1    A    
C6    C7    A    
C9    C10   A    
C25   O3    S    
C13   H2    S    
C19   C20   T    
C6    H3    S    
Cu2   O7    S    
Cu1   O10   S    
C7    O4    S    
C17   C18   T    
H11   O3    S    
C16   O11   A    
C7    C8    A    
C23   O2    S    
C15   O8    A    
C24   C25   A    
C2    H7    S    
C1    O1    A    
C26   C27   A    
Cu1   Cu2   S    
H9    O2    S    
C4    C17   S    
C15   O9    A    
C24   H10   S    
Cu2   O5    S    
C2    C3    A    
Cu1   O6    S    
Cu1   N2    S    
C14   H6    S    
C22   C27   A    
Cu2   O9    S    
C16   O10   A    
Cu2   N1    S    
C5    C15   S    
H4    O4    S    
C10   C11   A    
C4    O7    A    
C10   N2    A    
C5    C26   A    
C13   N1    A    
H8    O12   S    
C20   C21   S    
C14   N2    A    
C18   C19   S    
Cu2   O11   S    
Cu1   O1    S    
C6    C11   A    
C9    H5    S    
C22   C23   A    
C2    C28   A    
C3    C5    A    
C25   C26   A    
C13   C14   A    
C8    H1    S    
C1    O5    A    
C12   C21   T    
C12   C16   S    
C4    O6    A    
C8    C9    A    
C27   C28   A    
Cu1   O8    S    
