data_mof_unit_7461.cif
_audit_creation_date              2013-03-05T16:10:35-0500
_audit_creation_method            fapswitch 2.2
_symmetry_space_group_name_H-M    P1
_symmetry_Int_Tables_number       1
_space_group_crystal_system       triclinic
_cell_length_a                    15.437925
_cell_length_b                    16.180493
_cell_length_c                    10.398037
_cell_angle_alpha                 90.679819
_cell_angle_beta                  89.481591
_cell_angle_gamma                 89.898521
_cell_volume                      2597.06560688

loop_
_atom_site_label
_atom_site_type_symbol
_atom_site_description
_atom_site_fract_x
_atom_site_fract_y
_atom_site_fract_z
_atom_type_partial_charge
O1    O     O_R   0.091250 0.408820 0.620260 -0.509705
O2    O     O_R   0.091250 0.408820 0.379740 -0.497885
O3    O     O_R   0.091250 0.591180 0.620260 -0.499815
O4    O     O_R   0.091250 0.591180 0.379740 -0.499635
O5    O     O_R   0.591250 0.908820 0.620260 -0.507981
O6    O     O_R   0.591250 0.908820 0.379740 -0.501527
O7    O     O_R   0.591250 0.091180 0.620260 -0.510503
O8    O     O_R   0.591250 0.091180 0.379740 -0.494952
C1    C     C_R   0.116006 0.378462 0.498541 0.777090
C2    C     C_R   0.113740 0.623589 0.500131 0.789739
C3    C     C_R   0.617278 0.879550 0.498493 0.776517
C4    C     C_R   0.616784 0.121139 0.500159 0.783145
O9    O     O_R   0.908940 0.408800 0.620260 -0.507729
O10   O     O_R   0.908940 0.408800 0.379740 -0.498841
O11   O     O_R   0.908940 0.591200 0.620260 -0.511941
O12   O     O_R   0.908940 0.591200 0.379740 -0.532152
O13   O     O_R   0.408940 0.908800 0.620260 -0.502629
O14   O     O_R   0.408940 0.908800 0.379740 -0.502531
O15   O     O_R   0.408940 0.091200 0.620260 -0.512137
O16   O     O_R   0.408940 0.091200 0.379740 -0.527515
C5    C     C_R   0.880424 0.382068 0.501203 0.837539
C6    C     C_R   0.882406 0.619920 0.501327 0.767474
C7    C     C_R   0.379023 0.883362 0.501076 0.843029
C8    C     C_R   0.382463 0.120027 0.501282 0.779597
Cu1   Cu    Cu3+1 0.000100 0.500000 0.642410 1.161736
Cu2   Cu    Cu3+1 0.000100 0.500000 0.357590 1.160468
Cu3   Cu    Cu3+1 0.500100 1.000000 0.642410 1.163095
Cu4   Cu    Cu3+1 0.500100 1.000000 0.357590 1.161522
C9    C     C_3   0.803922 0.264321 0.632177 -0.327124
C10   C     C_3   0.824356 0.250161 0.399241 -0.382124
C11   C     C_3   0.800536 0.735346 0.633070 -0.339653
C12   C     C_3   0.834771 0.760026 0.412012 -0.331741
C13   C     C_3   0.298099 0.771041 0.634540 -0.342552
C14   C     C_3   0.323271 0.748936 0.406877 -0.361501
C15   C     C_3   0.298753 0.234418 0.633530 -0.336820
C16   C     C_3   0.333507 0.260883 0.412950 -0.327284
H1    H     H_    0.784845 0.301882 0.715389 0.263449
H2    H     H_    0.832203 0.277790 0.304528 0.275731
H3    H     H_    0.774870 0.695653 0.707010 0.280496
H4    H     H_    0.864120 0.739811 0.322490 0.287463
H5    H     H_    0.292758 0.813864 0.716163 0.276020
H6    H     H_    0.325353 0.772326 0.309464 0.288516
H7    H     H_    0.271895 0.194927 0.706481 0.285369
H8    H     H_    0.366738 0.242957 0.325054 0.289964
H9    H     H_    0.867833 0.239997 0.655038 0.283756
H10   H     H_    0.887092 0.219933 0.418465 0.266628
H11   H     H_    0.864370 0.758676 0.665911 0.271865
H12   H     H_    0.887104 0.797077 0.455297 0.245888
H13   H     H_    0.357499 0.734654 0.650699 0.279381
H14   H     H_    0.389019 0.724680 0.423163 0.261453
H15   H     H_    0.361627 0.256951 0.670120 0.281723
H16   H     H_    0.382215 0.301265 0.458465 0.252040
C17   C     C_3   0.219016 0.711349 0.636900 -0.363218
C18   C     C_3   0.258571 0.676510 0.417113 -0.340925
C19   C     C_3   0.234937 0.307971 0.621746 -0.343343
C20   C     C_3   0.253260 0.315186 0.387580 -0.310668
C21   C     C_3   0.740381 0.190340 0.624446 -0.324726
C22   C     C_3   0.753322 0.183443 0.393287 -0.332778
C23   C     C_3   0.736265 0.808702 0.622398 -0.334458
C24   C     C_3   0.756696 0.818063 0.389790 -0.310580
H17   H     H_    0.243011 0.651241 0.672102 0.263189
H18   H     H_    0.291956 0.621793 0.458121 0.214275
H19   H     H_    0.270800 0.367442 0.629961 0.249421
H20   H     H_    0.273179 0.381005 0.379504 0.224710
H21   H     H_    0.778886 0.132044 0.623082 0.230324
H22   H     H_    0.784948 0.121918 0.402273 0.231708
H23   H     H_    0.772055 0.868136 0.631940 0.246856
H24   H     H_    0.779148 0.883372 0.388086 0.219476
H25   H     H_    0.171329 0.732638 0.709298 0.285461
H26   H     H_    0.242074 0.657710 0.320101 0.307000
H27   H     H_    0.188541 0.303663 0.701168 0.303621
H28   H     H_    0.230740 0.294491 0.293611 0.309955
H29   H     H_    0.701888 0.186300 0.713956 0.299934
H30   H     H_    0.726433 0.184172 0.297021 0.309424
H31   H     H_    0.690070 0.804460 0.702181 0.303742
H32   H     H_    0.734549 0.802381 0.293645 0.307145
C25   C     C_3   0.714150 0.356183 0.490588 0.155135
C26   C     C_3   0.718811 0.649659 0.467207 0.127418
C27   C     C_3   0.210206 0.859355 0.486200 0.162116
C28   C     C_3   0.218633 0.148445 0.466429 0.121141
C29   C     C_3   0.806853 0.315788 0.505753 -0.028158
C30   C     C_3   0.810402 0.688239 0.503164 -0.027471
C31   C     C_3   0.303657 0.818712 0.505341 -0.013049
C32   C     C_3   0.309954 0.187923 0.503147 -0.023271
C33   C     C_3   0.177539 0.699791 0.500600 -0.107470
C34   C     C_3   0.182480 0.305025 0.495290 -0.155528
C35   C     C_3   0.683571 0.194611 0.501415 -0.120811
C36   C     C_3   0.684568 0.806911 0.495006 -0.152884
C37   C     C_3   0.139102 0.789151 0.452293 0.449680
C38   C     C_3   0.140562 0.214172 0.486732 0.476127
C39   C     C_3   0.639807 0.285541 0.493664 0.446305
C40   C     C_3   0.641804 0.716961 0.482560 0.475895
C41   C     C_3   0.964542 0.583881 0.078344 0.274034
C42   C     C_3   0.975666 0.587497 0.916486 0.299780
C43   C     C_3   0.946952 0.426268 0.079272 0.309620
C44   C     C_3   0.935826 0.435908 0.916499 0.316543
C45   C     C_3   0.463302 0.083328 0.076602 0.271932
C46   C     C_3   0.474310 0.086715 0.914272 0.291428
C47   C     C_3   0.448853 0.925498 0.080892 0.317144
C48   C     C_3   0.435677 0.934193 0.918104 0.300584
C49   C     C_3   0.096767 0.491651 0.084589 0.292798
C50   C     C_3   0.095403 0.482977 0.919397 0.289673
C51   C     C_3   0.597066 0.995237 0.084046 0.292738
C52   C     C_3   0.595625 0.984841 0.919240 0.294850
N1    N     N_3   0.001260 0.500000 0.143650 -0.384392
N2    N     N_3   0.001260 0.500000 0.856350 -0.391663
N3    N     N_3   0.501260 0.000000 0.143650 -0.381605
N4    N     N_3   0.501260 0.000000 0.856350 -0.395559
N5    N     N_3   0.698924 0.419120 0.591285 -0.516795
H33   H     H_    0.714112 0.403672 0.684281 0.314294
H34   H     H_    0.633746 0.436531 0.591867 0.277356
N6    N     N_3   0.713646 0.403182 0.371118 -0.486519
H35   H     H_    0.656345 0.436958 0.361637 0.282412
H36   H     H_    0.722064 0.365719 0.291020 0.325614
N7    N     N_3   0.701127 0.577216 0.545462 -0.577597
H37   H     H_    0.721042 0.582368 0.640473 0.316832
H38   H     H_    0.635072 0.563634 0.541379 0.275483
N8    N     N_3   0.723948 0.619040 0.333754 -0.411132
H39   H     H_    0.768484 0.572057 0.330808 0.303197
H40   H     H_    0.667873 0.585932 0.311200 0.288781
N9    N     N_3   0.187038 0.905470 0.606053 -0.475323
H41   H     H_    0.173360 0.868643 0.684627 0.284604
H42   H     H_    0.129684 0.938093 0.595227 0.289652
N10   N     N_3   0.213324 0.921623 0.385676 -0.518761
H43   H     H_    0.152069 0.948267 0.375904 0.270372
H44   H     H_    0.226587 0.893901 0.298346 0.328228
N11   N     N_3   0.203046 0.073266 0.539985 -0.574967
H45   H     H_    0.224487 0.076594 0.634329 0.319896
H46   H     H_    0.136804 0.060753 0.538573 0.275679
N12   N     N_3   0.222678 0.122189 0.330925 -0.415639
H47   H     H_    0.269786 0.078026 0.322148 0.310951
H48   H     H_    0.167996 0.087251 0.307674 0.292420
N13   N     N_R   0.056198 0.814254 0.516213 0.061000
O17   O     O_R   0.043543 0.800236 0.636386 -0.335854
O18   O     O_R   0.014249 0.878112 0.473292 -0.336685
N14   N     N_R   0.122060 0.787492 0.310387 0.134259
O19   O     O_R   0.055236 0.825646 0.263664 -0.192348
O20   O     O_R   0.181509 0.767706 0.226912 -0.271381
N15   N     N_R   0.089636 0.199698 0.607094 0.114069
O21   O     O_R   0.122950 0.173124 0.713383 -0.293994
O22   O     O_R   0.006793 0.211658 0.606747 -0.319977
N16   N     N_R   0.079045 0.202617 0.378506 0.117936
O23   O     O_R   0.021062 0.144515 0.388090 -0.316113
O24   O     O_R   0.102799 0.219319 0.262118 -0.210855
N17   N     N_R   0.583354 0.298000 0.609556 0.117211
O25   O     O_R   0.615846 0.303208 0.724375 -0.284281
O26   O     O_R   0.501467 0.314980 0.599714 -0.321770
N18   N     N_R   0.586027 0.294064 0.376171 0.112278
O27   O     O_R   0.525151 0.349802 0.373287 -0.301810
O28   O     O_R   0.617526 0.272063 0.264833 -0.269812
N19   N     N_R   0.586809 0.703615 0.599371 0.112879
O29   O     O_R   0.617308 0.679388 0.708969 -0.292302
O30   O     O_R   0.504625 0.719854 0.595000 -0.328025
N20   N     N_R   0.583820 0.707044 0.369797 0.126663
O31   O     O_R   0.522182 0.652303 0.376173 -0.313004
O32   O     O_R   0.612757 0.721196 0.254905 -0.206737
N21   N     N_R   0.005699 0.660030 0.131201 0.206871
O33   O     O_R   0.998890 0.729354 0.069885 -0.140804
O34   O     O_R   0.004454 0.671582 0.253135 -0.290982
N22   N     N_R   0.041604 0.645897 0.863312 0.159527
O35   O     O_R   0.020869 0.682585 0.758821 -0.262824
O36   O     O_R   0.106937 0.678519 0.921042 -0.227810
N23   N     N_R   0.982170 0.343410 0.117838 0.199975
O37   O     O_R   0.984336 0.326818 0.238593 -0.256543
O38   O     O_R   0.978354 0.276002 0.049390 -0.134266
N24   N     N_R   0.942513 0.352976 0.855901 0.187143
O39   O     O_R   0.881282 0.299525 0.877955 -0.256765
O40   O     O_R   0.996778 0.334370 0.765124 -0.238890
N25   N     N_R   0.503028 0.159757 0.129064 0.207259
O41   O     O_R   0.496384 0.229222 0.067960 -0.139780
O42   O     O_R   0.501446 0.170047 0.251107 -0.265287
N26   N     N_R   0.535668 0.147942 0.856369 0.173948
O43   O     O_R   0.510216 0.185503 0.753869 -0.244190
O44   O     O_R   0.602457 0.180692 0.909964 -0.210417
N27   N     N_R   0.485183 0.843100 0.120313 0.204870
O45   O     O_R   0.488186 0.827059 0.241260 -0.249853
O46   O     O_R   0.481805 0.775328 0.052711 -0.131628
N28   N     N_R   0.444735 0.851209 0.858368 0.186751
O47   O     O_R   0.384963 0.796185 0.880652 -0.252330
O48   O     O_R   0.498257 0.834556 0.765908 -0.227304
N29   N     N_R   0.869725 0.600177 0.109876 0.177284
O49   O     O_R   0.806202 0.558275 0.062226 -0.216694
O50   O     O_R   0.845743 0.674751 0.140611 -0.244940
N30   N     N_R   0.894028 0.634023 0.873122 0.187417
O51   O     O_R   0.817040 0.606804 0.853296 -0.252375
O52   O     O_R   0.892959 0.714004 0.891520 -0.210046
N31   N     N_R   0.859292 0.418756 0.134682 0.187120
O53   O     O_R   0.830134 0.467586 0.223503 -0.327215
O54   O     O_R   0.817507 0.349559 0.116791 -0.264116
N32   N     N_R   0.844999 0.458383 0.879835 0.173511
O55   O     O_R   0.776689 0.425039 0.931215 -0.187942
O56   O     O_R   0.830645 0.480860 0.763754 -0.307981
N33   N     N_R   0.368230 0.098669 0.107833 0.181637
O57   O     O_R   0.305256 0.060356 0.051605 -0.218979
O58   O     O_R   0.344019 0.170602 0.151028 -0.256974
N34   N     N_R   0.390630 0.127821 0.874118 0.185629
O59   O     O_R   0.324274 0.094931 0.822084 -0.279739
O60   O     O_R   0.379786 0.205843 0.903485 -0.207756
N35   N     N_R   0.362904 0.919048 0.139783 0.181132
O61   O     O_R   0.334040 0.972549 0.221811 -0.343991
O62   O     O_R   0.321983 0.848802 0.130912 -0.251244
N36   N     N_R   0.341419 0.951770 0.884980 0.188405
O63   O     O_R   0.275869 0.923112 0.949314 -0.179877
O64   O     O_R   0.318239 0.960178 0.767435 -0.288058
N37   N     N_R   0.151541 0.556876 0.148478 0.188798
O65   O     O_R   0.203583 0.535083 0.240729 -0.326164
O66   O     O_R   0.161641 0.631624 0.111471 -0.199032
N38   N     N_R   0.164570 0.536172 0.860874 0.182356
O67   O     O_R   0.187857 0.519318 0.743281 -0.321771
O68   O     O_R   0.229256 0.561592 0.929744 -0.189670
N39   N     N_R   0.152628 0.418898 0.119136 0.181752
O69   O     O_R   0.129222 0.352417 0.172092 -0.242093
O70   O     O_R   0.235408 0.421558 0.091576 -0.186169
N40   N     N_R   0.131004 0.398110 0.884696 0.167389
O71   O     O_R   0.213787 0.391845 0.859324 -0.242827
O72   O     O_R   0.099852 0.330576 0.930619 -0.217352
N41   N     N_R   0.649832 0.064163 0.144256 0.186446
O73   O     O_R   0.704869 0.045936 0.234362 -0.327046
O74   O     O_R   0.657630 0.138574 0.103242 -0.219703
N42   N     N_R   0.663916 0.038401 0.859033 0.176592
O75   O     O_R   0.727989 0.065989 0.927148 -0.193992
O76   O     O_R   0.688227 0.019947 0.742397 -0.328533
N43   N     N_R   0.655164 0.924876 0.121149 0.179502
O77   O     O_R   0.632506 0.856882 0.170083 -0.246081
O78   O     O_R   0.737788 0.929178 0.093278 -0.185559
N44   N     N_R   0.632252 0.900060 0.886588 0.168366
O79   O     O_R   0.601382 0.832605 0.932855 -0.218803
O80   O     O_R   0.715058 0.894069 0.861308 -0.240712

loop_
_geom_bond_atom_site_label_1
_geom_bond_atom_site_label_2
_geom_bond_distance
_ccdc_geom_bond_type
C47   N3    1.589948 S    
O1    Cu1   2.046583 S    
C2    C33   1.579428 S    
C49   C50   1.722058 S    
C35   C39   1.621093 S    
N35   O62   1.304061 A    
C13   C17   1.558273 S    
C12   H12   1.102989 S    
N25   O41   1.302028 A    
C26   N7    1.459580 S    
C14   H6    1.085717 S    
C28   C38   1.616713 S    
C39   N17   1.492294 S    
C28   C32   1.596399 S    
C17   H25   1.100108 S    
C22   C35   1.558479 S    
N6    H36   1.031397 S    
N28   O47   1.304506 A    
C24   C36   1.566125 S    
O7    Cu3   2.054101 S    
N27   O46   1.296874 A    
N29   O49   1.292309 A    
C49   N39   1.506828 S    
C27   N9    1.485503 S    
C41   C42   1.691911 S    
C11   C30   1.549254 S    
C7    C31   1.566674 S    
O15   C8    1.391878 A    
C6    C30   1.566116 S    
O10   C5    1.406971 A    
C26   N8    1.469310 S    
N18   O28   1.297252 A    
O5    C3    1.401700 A    
N5    H34   1.044376 S    
N40   O72   1.289749 A    
N28   O48   1.287751 A    
O11   Cu1   2.053715 S    
Cu4   N3    2.224466 S    
C13   H13   1.104073 S    
N7    H37   1.039763 S    
C45   C46   1.696456 S    
C44   N32   1.501616 S    
C20   H28   1.089260 S    
C46   N4    1.574125 S    
N30   O51   1.285768 A    
C10   H2    1.092196 S    
C45   N33   1.519668 S    
N8    H39   1.024105 S    
C52   N42   1.502878 S    
C43   N1    1.602836 S    
C23   H23   1.113802 S    
O5    Cu3   2.046583 S    
C48   N36   1.525420 S    
C51   C52   1.720261 S    
C50   N40   1.516535 S    
O11   C6    1.391126 A    
O6    Cu4   2.053377 S    
C43   C44   1.711691 S    
N26   O44   1.288344 A    
N38   O67   1.297104 A    
N7    H38   1.044682 S    
C19   H19   1.113805 S    
O12   C6    1.399338 A    
N19   O29   1.301432 A    
C20   H20   1.112933 S    
C15   H7    1.078135 S    
N20   O32   1.294758 A    
C16   H16   1.103265 S    
C46   N26   1.499453 S    
C25   C39   1.621604 S    
C48   N28   1.478603 S    
N35   O61   1.284395 A    
N21   O34   1.279353 A    
C37   N14   1.501093 S    
C11   H11   1.111122 S    
N19   O30   1.296530 A    
N24   O40   1.288971 A    
N25   O42   1.277936 A    
O9    Cu1   2.053372 S    
C51   N43   1.504137 S    
C42   N30   1.540588 S    
O13   C7    1.384721 A    
Cu2   N1    2.224466 S    
N42   O76   1.297551 A    
N42   O75   1.298479 A    
N17   O26   1.298401 A    
C22   H22   1.113313 S    
Cu1   N2    2.224790 S    
N17   O25   1.301036 A    
N37   O66   1.282887 A    
C49   N1    1.596965 S    
O7    C4    1.398586 A    
C41   N21   1.488949 S    
N15   O21   1.300622 A    
C48   N4    1.606068 S    
C37   N13   1.490363 S    
N36   O63   1.297434 A    
C9    C21   1.550789 S    
C43   N31   1.471816 S    
O14   C7    1.406044 A    
O13   Cu3   2.053372 S    
O16   C8    1.399214 A    
O3    Cu1   2.054101 S    
O14   Cu4   2.054442 S    
N18   O27   1.302156 A    
N43   O77   1.266130 A    
N14   O20   1.294657 A    
C34   C38   1.609052 S    
N29   O50   1.297048 A    
O6    C3    1.390199 A    
C33   C37   1.647602 S    
N40   O71   1.306133 A    
N14   O19   1.302046 A    
O16   Cu4   2.046921 S    
C26   C40   1.616333 S    
Cu1   Cu2   2.961568 S    
N37   O65   1.308012 A    
C18   H18   1.114720 S    
C24   H32   1.086827 S    
C38   N15   1.493005 S    
N36   O64   1.285337 A    
C21   C35   1.559711 S    
N21   O33   1.301348 A    
C9    H9    1.090861 S    
N22   O36   1.289021 A    
C25   N6    1.464282 S    
N12   H48   1.045369 S    
N11   H46   1.043041 S    
N32   O55   1.298954 A    
C9    C29   1.564819 S    
C20   C34   1.567867 S    
C16   C20   1.543995 S    
C44   N24   1.478703 S    
C43   N23   1.505974 S    
C1    C34   1.568521 S    
C18   C33   1.559271 S    
C26   C30   1.592458 S    
O4    Cu2   2.053031 S    
N39   O69   1.265986 A    
C18   H26   1.082850 S    
C25   C29   1.582220 S    
C3    C36   1.567115 S    
O8    C4    1.397632 A    
C40   N19   1.493618 S    
N33   O58   1.295821 A    
N9    H41   1.037330 S    
O1    C1    1.401799 A    
O2    Cu2   2.053377 S    
C36   C40   1.603551 S    
O10   Cu2   2.054442 S    
C25   N5    1.469018 S    
C13   C31   1.558788 S    
N20   O31   1.302929 A    
C15   C19   1.550328 S    
C38   N16   1.489383 S    
C49   N37   1.505610 S    
C51   N41   1.514992 S    
N34   O60   1.305439 A    
N39   O70   1.308043 A    
C28   N12   1.467550 S    
C5    C29   1.564273 S    
C14   C18   1.545168 S    
N44   O80   1.305973 A    
C15   H15   1.106552 S    
N13   O17   1.285870 A    
O8    Cu4   2.053031 S    
N16   O24   1.293139 A    
C16   H8    1.080423 S    
C14   C31   1.542823 S    
C12   C24   1.547325 S    
C17   H17   1.107576 S    
N11   H45   1.038993 S    
C23   H31   1.091935 S    
C52   N4    1.621673 S    
N9    H42   1.037722 S    
O15   Cu3   2.053715 S    
N26   O43   1.296832 A    
C22   H30   1.087283 S    
N10   H44   1.026818 S    
C27   N10   1.460891 S    
C11   C23   1.551321 S    
C44   N2    1.579470 S    
C23   C36   1.552654 S    
C42   N22   1.496811 S    
C4    C35   1.575044 S    
N23   O38   1.296998 A    
C21   H29   1.102379 S    
N32   O56   1.285783 A    
C10   H10   1.105156 S    
N44   O79   1.288405 A    
C21   H21   1.113927 S    
N34   O59   1.276904 A    
O12   Cu2   2.046921 S    
C14   H14   1.102831 S    
C39   N18   1.490920 S    
C15   C32   1.550799 S    
N43   O78   1.307660 A    
C52   N44   1.516427 S    
C28   N11   1.463681 S    
N41   O74   1.287548 A    
C12   C30   1.552512 S    
N6    H35   1.045023 S    
N30   O52   1.306005 A    
C47   C48   1.714087 S    
C51   N3    1.599849 S    
C13   H5    1.091708 S    
N22   O35   1.286963 A    
C19   C34   1.550788 S    
C17   C33   1.569753 S    
N12   H47   1.021404 S    
N41   O73   1.306439 A    
C45   N25   1.481795 S    
N31   O53   1.285989 A    
C41   N1    1.628077 S    
N27   O45   1.288360 A    
N5    H33   1.030592 S    
O9    C5    1.382481 A    
C27   C31   1.599487 S    
N15   O22   1.293196 A    
N24   O39   1.303004 A    
C50   N38   1.501762 S    
Cu3   N4    2.224790 S    
C16   C32   1.557917 S    
C47   N35   1.460747 S    
C10   C22   1.541307 S    
C11   H3    1.080586 S    
C50   N2    1.624200 S    
C41   N29   1.519058 S    
C12   H4    1.078603 S    
C8    C32   1.566864 S    
N8    H40   1.045822 S    
N31   O54   1.305419 A    
N23   O37   1.287819 A    
C42   N2    1.588706 S    
C45   N3    1.635309 S    
C47   N27   1.508173 S    
C24   H24   1.112994 S    
N38   O68   1.298700 A    
N33   O57   1.294264 A    
C9    H1    1.089506 S    
Cu3   Cu4   2.961568 S    
O3    C2    1.401483 A    
N13   O18   1.303834 A    
N16   O23   1.303312 A    
C27   C37   1.619107 S    
C40   N20   1.488916 S    
O2    C1    1.391254 A    
O4    C2    1.398410 A    
C10   C29   1.546882 S    
C19   H27   1.091199 S    
N10   H43   1.044884 S    
C46   N34   1.516204 S    
