data_mof_unit_5117.cif
_audit_creation_date              2012-12-11T17:41:48-0500
_audit_creation_method            fapswitch 2.2
_symmetry_space_group_name_H-M    P1
_symmetry_Int_Tables_number       1
_space_group_crystal_system       triclinic
_cell_length_a                    7.217791
_cell_length_b                    23.811264
_cell_length_c                    26.20533
_cell_angle_alpha                 89.998245
_cell_angle_beta                  90.088473
_cell_angle_gamma                 89.925398
_cell_volume                      4503.76269688

loop_
_atom_site_label
_atom_site_type_symbol
_atom_type_description
_atom_site_fract_x
_atom_site_fract_y
_atom_site_fract_z
_atom_type_partial_charge
O1    O     O_R   0.607880 0.800910 0.198150 -0.535397
O2    O     O_R   0.392120 0.199090 0.801850 -0.535349
O3    O     O_R   0.392120 0.199090 0.698150 -0.535407
O4    O     O_R   0.607880 0.800910 0.301850 -0.535379
O5    O     O_R   0.107880 0.699090 0.301850 -0.534716
O6    O     O_R   0.892120 0.300910 0.698150 -0.535334
O7    O     O_R   0.892120 0.300910 0.801850 -0.535372
O8    O     O_R   0.107880 0.699090 0.198150 -0.535287
O9    O     O_R   0.278160 0.807580 0.301500 -0.539494
O10   O     O_R   0.721840 0.192420 0.698500 -0.539163
O11   O     O_R   0.721840 0.192420 0.801500 -0.539248
O12   O     O_R   0.278160 0.807580 0.198500 -0.539268
O13   O     O_R   0.778160 0.692420 0.198500 -0.539330
O14   O     O_R   0.221840 0.307580 0.801500 -0.539242
O15   O     O_R   0.221840 0.307580 0.698500 -0.539213
O16   O     O_R   0.778160 0.692420 0.301500 -0.538880
C1    C     C_R   0.446999 0.821038 0.318633 0.688638
C2    C     C_R   0.553000 0.178964 0.681365 0.689503
C3    C     C_R   0.553154 0.178969 0.818646 0.689359
C4    C     C_R   0.446846 0.821031 0.181354 0.689274
C5    C     C_R   0.946960 0.678968 0.181364 0.689202
C6    C     C_R   0.053039 0.321032 0.818636 0.689280
C7    C     C_R   0.052837 0.321049 0.681385 0.689243
C8    C     C_R   0.947208 0.679221 0.318787 0.688422
O17   O     O_3   0.441370 0.714400 0.250000 -0.372649
O18   O     O_3   0.558630 0.285600 0.750000 -0.373293
O19   O     O_3   0.941370 0.785600 0.250000 -0.373573
O20   O     O_3   0.058630 0.214400 0.750000 -0.373277
V1    V     V_3+5 0.166530 0.756600 0.250000 1.385768
V2    V     V_3+5 0.833470 0.243400 0.750000 1.385603
V3    V     V_3+5 0.666530 0.743400 0.250000 1.386312
V4    V     V_3+5 0.333470 0.256600 0.750000 1.385392
C9    C     C_R   0.179891 0.435755 0.585988 -0.181763
C10   C     C_R   0.834601 0.562610 0.413495 -0.182538
C11   C     C_R   0.820243 0.564755 0.085144 -0.175542
C12   C     C_R   0.179755 0.435252 0.914850 -0.175477
C13   C     C_R   0.680107 0.064725 0.914941 -0.175416
C14   C     C_R   0.319893 0.935275 0.085059 -0.175462
C15   C     C_R   0.320136 0.935261 0.414807 -0.175553
C16   C     C_R   0.679857 0.064774 0.585158 -0.175526
H1    H     H_    0.299141 0.461351 0.576869 0.119708
H2    H     H_    0.721909 0.533640 0.420750 0.124607
H3    H     H_    0.701290 0.539146 0.075555 0.122570
H4    H     H_    0.298708 0.460861 0.924437 0.122594
H5    H     H_    0.799144 0.039082 0.924582 0.122662
H6    H     H_    0.200856 0.960918 0.075418 0.122652
H7    H     H_    0.201024 0.960858 0.424377 0.122568
H8    H     H_    0.798966 0.039178 0.575582 0.122568
C17   C     C_R   0.193743 0.396201 0.625433 -0.178778
C18   C     C_R   0.816565 0.601151 0.373387 -0.180122
C19   C     C_R   0.805974 0.604037 0.124853 -0.182298
C20   C     C_R   0.194024 0.395968 0.875142 -0.182066
C21   C     C_R   0.694390 0.104009 0.875232 -0.182193
C22   C     C_R   0.305610 0.895991 0.124768 -0.182204
C23   C     C_R   0.305871 0.895969 0.375106 -0.182235
C24   C     C_R   0.694120 0.104048 0.624874 -0.182046
H9    H     H_    0.324124 0.392063 0.645590 0.128338
H10   H     H_    0.690750 0.601099 0.350819 0.128258
H11   H     H_    0.675481 0.608027 0.144864 0.128018
H12   H     H_    0.324517 0.391977 0.855131 0.128083
H13   H     H_    0.824949 0.107963 0.855265 0.127959
H14   H     H_    0.175051 0.892037 0.144735 0.127947
H15   H     H_    0.175214 0.891957 0.355085 0.128147
H16   H     H_    0.824771 0.108047 0.644900 0.128134
C25   C     C_R   0.040547 0.363082 0.639108 -0.069546
C26   C     C_R   0.960826 0.638402 0.361940 -0.060839
C27   C     C_R   0.959031 0.637118 0.138934 -0.069074
C28   C     C_R   0.040968 0.362885 0.861063 -0.069071
C29   C     C_R   0.541233 0.137134 0.861091 -0.069111
C30   C     C_R   0.458767 0.862866 0.138909 -0.069090
C31   C     C_R   0.459119 0.862903 0.361048 -0.069503
C32   C     C_R   0.540879 0.137113 0.638939 -0.069137
C33   C     C_R   0.873467 0.370454 0.611936 -0.194044
C34   C     C_R   0.121577 0.636852 0.392366 -0.208833
C35   C     C_R   0.126242 0.629966 0.111968 -0.193321
C36   C     C_R   0.873756 0.370039 0.888028 -0.193372
C37   C     C_R   0.373919 0.130027 0.887997 -0.193244
C38   C     C_R   0.626082 0.869973 0.112004 -0.193259
C39   C     C_R   0.626530 0.870083 0.388025 -0.193863
C40   C     C_R   0.373478 0.129951 0.611953 -0.193400
H17   H     H_    0.753819 0.345192 0.621596 0.125400
H18   H     H_    0.233235 0.665947 0.384304 0.124443
H19   H     H_    0.245780 0.655181 0.121932 0.125563
H20   H     H_    0.754218 0.344824 0.878065 0.125582
H21   H     H_    0.254281 0.155273 0.877989 0.125630
H22   H     H_    0.745719 0.844727 0.122011 0.125617
H23   H     H_    0.746217 0.844881 0.378074 0.125525
H24   H     H_    0.253799 0.155155 0.621907 0.125568
C41   C     C_R   0.858658 0.409653 0.571800 0.110324
C42   C     C_R   0.141564 0.599527 0.433862 0.108279
C43   C     C_R   0.141572 0.591058 0.071676 0.107568
C44   C     C_R   0.858426 0.408949 0.928319 0.107572
C45   C     C_R   0.358556 0.091114 0.928272 0.107522
C46   C     C_R   0.641444 0.908886 0.071728 0.107536
C47   C     C_R   0.641860 0.909000 0.428314 0.107630
C48   C     C_R   0.358150 0.091054 0.571649 0.107593
C49   C     C_R   0.014078 0.442680 0.558732 0.115063
C50   C     C_R   0.994871 0.560984 0.444065 0.124881
C51   C     C_R   0.986368 0.558101 0.058126 0.110550
C52   C     C_R   0.013631 0.441907 0.941867 0.110534
C53   C     C_R   0.513848 0.058110 0.941886 0.110510
C54   C     C_R   0.486153 0.941891 0.058114 0.110514
C55   C     C_R   0.486450 0.941938 0.441842 0.110528
C56   C     C_R   0.513549 0.058114 0.558116 0.110545
C57   C     C_1   0.005845 0.484239 0.518123 -0.079663
C58   C     C_1   0.000873 0.519103 0.484372 -0.074371
C59   C     C_1   0.995609 0.517033 0.017144 -0.066181
C60   C     C_1   0.004390 0.482976 0.982849 -0.066144
C61   C     C_1   0.504487 0.017030 0.982856 -0.066184
C62   C     C_1   0.495513 0.982971 0.017144 -0.066195
C63   C     C_1   0.495638 0.983004 0.482826 -0.066185
C64   C     C_1   0.504352 0.017057 0.517125 -0.066145
C65   C     C_3   0.675216 0.416210 0.544424 -0.387858
C66   C     C_3   0.677936 0.387408 0.492128 -0.293483
C67   C     C_3   0.493804 0.395491 0.464340 -0.767467
H25   H     H_    0.377915 0.378377 0.487441 0.235104
H26   H     H_    0.468795 0.440787 0.456903 0.225430
H27   H     H_    0.497665 0.373045 0.427223 0.217190
H28   H     H_    0.790556 0.404940 0.468104 0.202699
H29   H     H_    0.703780 0.341706 0.497238 0.193522
H30   H     H_    0.562623 0.397254 0.567555 0.171067
H31   H     H_    0.641818 0.461534 0.540160 0.183772
C68   C     C_3   0.323807 0.605538 0.463247 -0.380125
C69   C     C_3   0.352074 0.571157 0.512118 -0.310611
C70   C     C_3   0.533077 0.586872 0.538726 -0.785048
H32   H     H_    0.531497 0.631845 0.549972 0.233204
H33   H     H_    0.550396 0.560946 0.573638 0.215247
H34   H     H_    0.652672 0.579058 0.513149 0.240062
H35   H     H_    0.236809 0.579380 0.539166 0.210633
H36   H     H_    0.359407 0.525867 0.502402 0.199993
H37   H     H_    0.438705 0.595472 0.436573 0.175751
H38   H     H_    0.338355 0.650615 0.473739 0.179341
C71   C     C_3   0.325731 0.584665 0.044790 -0.382228
C72   C     C_3   0.324661 0.613679 0.992591 -0.294663
C73   C     C_3   0.511653 0.607116 0.966104 -0.765166
H39   H     H_    0.623427 0.626202 0.989557 0.234932
H40   H     H_    0.543239 0.561980 0.959875 0.223325
H41   H     H_    0.507669 0.628570 0.928502 0.216684
H42   H     H_    0.215500 0.595350 0.967772 0.201746
H43   H     H_    0.294633 0.659156 0.997613 0.193593
H44   H     H_    0.437552 0.603554 0.068338 0.171527
H45   H     H_    0.359492 0.539371 0.040480 0.171740
C74   C     C_3   0.674267 0.415344 0.955205 -0.382111
C75   C     C_3   0.675336 0.386331 0.007404 -0.294701
C76   C     C_3   0.488345 0.392894 0.033891 -0.765436
H46   H     H_    0.376569 0.373810 0.010437 0.234953
H47   H     H_    0.492328 0.371441 0.071493 0.216551
H48   H     H_    0.456762 0.438031 0.040120 0.223341
H49   H     H_    0.705361 0.340853 0.002382 0.193561
H50   H     H_    0.784498 0.404659 0.032222 0.201685
H51   H     H_    0.640508 0.460638 0.959514 0.171755
H52   H     H_    0.562445 0.396455 0.931657 0.171510
C77   C     C_3   0.174241 0.084744 0.955056 -0.382083
C78   C     C_3   0.174759 0.113701 0.007281 -0.294708
C79   C     C_3   0.987648 0.107123 0.033671 -0.765464
H53   H     H_    0.875892 0.126269 0.010192 0.235011
H54   H     H_    0.956325 0.061981 0.039822 0.223356
H55   H     H_    0.991254 0.128511 0.071304 0.216558
H56   H     H_    0.283899 0.095338 0.032138 0.201721
H57   H     H_    0.204471 0.159181 0.002311 0.193541
H58   H     H_    0.062472 0.103685 0.931466 0.171496
H59   H     H_    0.140714 0.039453 0.959309 0.171729
C80   C     C_3   0.825759 0.915256 0.044944 -0.382150
C81   C     C_3   0.825241 0.886299 0.992719 -0.294679
C82   C     C_3   0.012355 0.892875 0.966330 -0.765289
H60   H     H_    0.124108 0.873727 0.989810 0.235000
H61   H     H_    0.008747 0.871488 0.928696 0.216648
H62   H     H_    0.043687 0.938017 0.960179 0.223334
H63   H     H_    0.795523 0.840820 0.997689 0.193574
H64   H     H_    0.716105 0.904664 0.967862 0.201751
H65   H     H_    0.859287 0.960547 0.040691 0.171721
H66   H     H_    0.937528 0.896314 0.068534 0.171503
C83   C     C_3   0.826209 0.915419 0.455223 -0.382217
C84   C     C_3   0.825917 0.886413 0.507425 -0.294886
C85   C     C_3   0.013094 0.892999 0.533936 -0.764395
H67   H     H_    0.124841 0.873934 0.510495 0.234889
H68   H     H_    0.044275 0.938139 0.540174 0.223103
H69   H     H_    0.009687 0.871541 0.571536 0.216815
H70   H     H_    0.716811 0.904732 0.532227 0.201641
H71   H     H_    0.796290 0.840932 0.502403 0.193580
H72   H     H_    0.937989 0.896538 0.431692 0.171498
H73   H     H_    0.859564 0.960717 0.459532 0.171765
C86   C     C_3   0.173815 0.084660 0.544727 -0.382142
C87   C     C_3   0.174161 0.113699 0.492540 -0.294685
C88   C     C_3   0.986993 0.107144 0.466018 -0.765362
H74   H     H_    0.875250 0.126204 0.489464 0.234927
H75   H     H_    0.990439 0.128627 0.428430 0.216569
H76   H     H_    0.955775 0.062012 0.459755 0.223339
H77   H     H_    0.203825 0.159175 0.497587 0.193596
H78   H     H_    0.283266 0.095387 0.467734 0.201689
H79   H     H_    0.140440 0.039366 0.540392 0.171745
H80   H     H_    0.062024 0.103530 0.568263 0.171521

loop_
_geom_bond_atom_site_label_1
_geom_bond_atom_site_label_2
_ccdc_geom_bond_type
O17   V3    S    
C73   H41   S    
O18   V4    S    
C82   H60   S    
O12   V1    S    
O19   V1    S    
C42   C68   S    
C81   H64   S    
C80   C81   S    
C10   H2    S    
C21   C29   A    
C86   H80   S    
C36   H20   S    
C39   H23   S    
C66   C67   S    
C25   C33   A    
C68   C69   S    
C85   H68   S    
C83   C84   S    
O16   V3    S    
C39   C47   A    
O11   C3    A    
C71   H45   S    
C17   C25   A    
O8    V1    S    
C55   C63   S    
C30   C38   A    
C38   C46   A    
C72   H43   S    
C68   H38   S    
C88   H75   S    
C79   H54   S    
O6    C7    A    
C9    C17   A    
C74   C75   S    
C26   C34   A    
O1    V3    S    
C17   H9    S    
C87   C88   S    
O3    C2    A    
O2    V4    S    
C44   C74   S    
C84   C85   S    
C75   H50   S    
C20   H12   S    
C29   C37   A    
C15   C23   A    
C65   H31   S    
C63   C64   T    
O11   V2    S    
C16   C24   A    
C23   H15   S    
C70   H34   S    
C59   C60   T    
C24   H16   S    
C40   C48   A    
C80   H65   S    
C66   H28   S    
C12   C20   A    
O9    V1    S    
C14   C54   A    
C49   C57   S    
C38   H22   S    
O15   C7    A    
C37   H21   S    
C14   C22   A    
O16   C8    A    
O7    V2    S    
C73   H40   S    
C5    C27   S    
C79   H55   S    
C13   C21   A    
C4    C30   S    
C81   H63   S    
C21   H13   S    
C34   H18   S    
C11   C51   A    
C33   H17   S    
C76   H47   S    
C47   C55   A    
C76   H46   S    
C85   H69   S    
O5    V1    S    
C19   H11   S    
C2    C32   S    
C41   C65   S    
C52   C60   S    
C10   C18   A    
O13   C5    A    
C18   H10   S    
C73   H39   S    
C45   C53   A    
C72   H42   S    
C56   C64   S    
C88   H76   S    
C22   H14   S    
C67   H26   S    
C68   H37   S    
C31   C39   A    
C32   C40   A    
C77   H58   S    
C86   C87   S    
C78   H57   S    
C75   H49   S    
C16   C56   A    
O10   V2    S    
C85   H67   S    
C22   C30   A    
C67   H27   S    
O12   C4    A    
O8    C5    A    
C69   H36   S    
C12   C52   A    
C19   C27   A    
C80   H66   S    
C18   C26   A    
O14   C6    A    
C6    C28   S    
C78   C79   S    
C43   C71   S    
C36   C44   A    
O15   V4    S    
O4    C1    A    
O9    C1    A    
C74   H52   S    
O6    V2    S    
C83   H73   S    
C1    C31   S    
C82   H62   S    
C48   C56   A    
C11   C19   A    
C70   H32   S    
C87   H78   S    
C12   H4    S    
C27   C35   A    
C48   C86   S    
C13   H5    S    
C84   H71   S    
C76   H48   S    
C11   H3    S    
C44   C52   A    
C15   H7    S    
C65   C66   S    
C16   H8    S    
C81   C82   S    
O1    C4    A    
C74   H51   S    
C24   C32   A    
O2    C3    A    
O13   V3    S    
O14   V4    S    
C75   C76   S    
C20   C28   A    
C15   C55   A    
C72   C73   S    
C86   H79   S    
C35   C43   A    
C28   C36   A    
O7    C6    A    
C51   C59   S    
C57   C58   T    
C71   H44   S    
C50   C58   S    
C77   H59   S    
C9    H1    S    
C7    C25   S    
C45   C77   S    
C47   C83   S    
C33   C41   A    
O20   V2    S    
C40   H24   S    
C61   C62   T    
C13   C53   A    
C35   H19   S    
C88   H74   S    
C71   C72   S    
O5    C8    A    
O10   C2    A    
C54   C62   S    
C34   C42   A    
C84   H70   S    
C37   C45   A    
C10   C50   A    
C69   H35   S    
C9    C49   A    
O3    V4    S    
C23   C31   A    
C14   H6    S    
O4    V3    S    
C3    C29   S    
C83   H72   S    
C78   H56   S    
C65   H30   S    
C8    C26   S    
C46   C54   A    
C82   H61   S    
C41   C49   A    
C79   H53   S    
C70   H33   S    
C87   H77   S    
C43   C51   A    
C77   C78   S    
C53   C61   S    
C46   C80   S    
C42   C50   A    
C66   H29   S    
C67   H25   S    
C69   C70   S    
