data_mof_unit_37430.cif
_audit_creation_date              2012-12-10T22:11:12-0500
_audit_creation_method            fapswitch 2.2
_symmetry_space_group_name_H-M    P1
_symmetry_Int_Tables_number       1
_space_group_crystal_system       triclinic
_cell_length_a                    12.14921
_cell_length_b                    12.338882
_cell_length_c                    23.140785
_cell_angle_alpha                 90.660167
_cell_angle_beta                  90.844306
_cell_angle_gamma                 90.907078
_cell_volume                      3467.93008467

loop_
_atom_site_label
_atom_site_type_symbol
_atom_type_description
_atom_site_fract_x
_atom_site_fract_y
_atom_site_fract_z
_atom_type_partial_charge
C1    C     C_R   0.656933 0.998085 0.579325 0.940549
C2    C     C_R   0.343067 0.001915 0.420675 0.940544
C3    C     C_R   0.895900 0.765747 0.148813 -0.430537
C4    C     C_R   0.104099 0.234253 0.851186 -0.430537
C5    C     C_R   0.078660 0.900744 0.167074 0.500137
C6    C     C_R   0.921340 0.099256 0.832927 0.500136
C7    C     C_R   0.083583 0.817675 0.126618 0.433104
C8    C     C_R   0.916417 0.182324 0.873382 0.433105
C9    C     C_R   0.897187 0.131603 0.175720 0.540118
C10   C     C_R   0.102812 0.868398 0.824280 0.540118
C11   C     C_R   0.901708 0.210831 0.133411 -0.307648
C12   C     C_R   0.098292 0.789169 0.866589 -0.307648
C13   C     C_R   0.155131 0.905048 0.299899 0.679724
C14   C     C_R   0.844869 0.094952 0.700101 0.679725
C15   C     C_R   0.240189 0.910463 0.341631 -0.419498
C16   C     C_R   0.759811 0.089536 0.658370 -0.419500
C17   C     C_R   0.846446 0.107772 0.309889 0.507700
C18   C     C_R   0.153555 0.892228 0.690111 0.507700
C19   C     C_R   0.761236 0.100960 0.349457 -0.310416
C20   C     C_R   0.238764 0.899040 0.650543 -0.310413
C21   C     C_3   0.992664 0.007453 0.247821 0.008853
C22   C     C_3   0.007336 0.992547 0.752179 0.008852
C23   C     C_R   0.654136 0.001978 0.420900 0.940400
C24   C     C_R   0.345864 0.998022 0.579099 0.940400
C25   C     C_R   0.094117 0.001017 0.288720 0.085765
C26   C     C_R   0.905883 0.998983 0.711280 0.085767
C27   C     C_R   0.258135 0.003183 0.375832 -0.200986
C28   C     C_R   0.741865 0.996817 0.624167 -0.200982
C29   C     C_R   0.898311 0.009784 0.291707 -0.022688
C30   C     C_R   0.101689 0.990216 0.708293 -0.022689
C31   C     C_R   0.737999 0.004297 0.377431 -0.192982
C32   C     C_R   0.262001 0.995703 0.622569 -0.192982
C33   C     C_R   0.994220 0.107977 0.208504 -0.060154
C34   C     C_R   0.005780 0.892023 0.791496 -0.060153
C35   C     C_R   0.997518 0.271307 0.125178 -0.183409
C36   C     C_R   0.002482 0.728693 0.874822 -0.183408
C37   C     C_R   0.985603 0.913924 0.202750 -0.062558
C38   C     C_R   0.014397 0.086076 0.797250 -0.062557
C39   C     C_R   0.991053 0.750546 0.117090 -0.298353
C40   C     C_R   0.008947 0.249454 0.882910 -0.298352
C41   C     C_R   0.993074 0.662579 0.074874 0.979471
C42   C     C_R   0.006926 0.337421 0.925126 0.979471
C43   C     C_R   0.998969 0.352869 0.080942 0.941006
C44   C     C_R   0.001031 0.647131 0.919058 0.941006
C45   C     C_R   0.114041 0.092698 0.324564 -0.306080
C46   C     C_R   0.885960 0.907302 0.675435 -0.306084
C47   C     C_R   0.195870 0.095944 0.366642 0.532464
C48   C     C_R   0.804132 0.904057 0.633357 0.532465
C49   C     C_R   0.877154 0.914381 0.323739 0.624411
C50   C     C_R   0.122845 0.085619 0.676261 0.624411
C51   C     C_R   0.797245 0.911789 0.365316 -0.256920
C52   C     C_R   0.202754 0.088211 0.634683 -0.256920
C53   C     C_R   0.091575 0.170748 0.198453 0.668788
C54   C     C_R   0.908425 0.829251 0.801546 0.668792
C55   C     C_R   0.091404 0.252277 0.158139 -0.283302
C56   C     C_R   0.908596 0.747722 0.841860 -0.283302
C57   C     C_R   0.888774 0.849761 0.189893 0.637674
C58   C     C_R   0.111226 0.150239 0.810107 0.637675
H1    H     H_    0.781866 0.836868 0.388018 0.196863
H2    H     H_    0.218133 0.163132 0.611982 0.196863
H3    H     H_    0.166688 0.298399 0.151411 0.191950
H4    H     H_    0.833312 0.701600 0.848588 0.191950
H5    H     H_    0.827066 0.710373 0.141734 0.198497
H6    H     H_    0.172934 0.289628 0.858265 0.198496
H7    H     H_    0.830423 0.223708 0.105912 0.186782
H8    H     H_    0.169576 0.776293 0.894088 0.186782
H9    H     H_    0.292704 0.841538 0.347992 0.183808
H10   H     H_    0.707295 0.158461 0.652009 0.183808
H11   H     H_    0.714019 0.172346 0.359158 0.183049
H12   H     H_    0.285983 0.827654 0.640842 0.183049
H13   H     H_    0.065689 0.164221 0.319359 0.194328
H14   H     H_    0.934313 0.835780 0.680640 0.194325
O1    O     O_R   0.621380 0.090460 0.561410 -0.642601
O2    O     O_R   0.378620 0.909540 0.438590 -0.642599
O3    O     O_R   0.617150 0.909540 0.438590 -0.625125
O4    O     O_R   0.382850 0.090460 0.561410 -0.625125
O5    O     O_R   0.619720 0.093230 0.440890 -0.641217
O6    O     O_R   0.380280 0.906770 0.559110 -0.641216
O7    O     O_R   0.618800 0.906770 0.559110 -0.581116
O8    O     O_R   0.381200 0.093230 0.440890 -0.581123
O9    O     O_R   0.087590 0.627480 0.058790 -0.594172
O10   O     O_R   0.912410 0.372520 0.941210 -0.594172
O11   O     O_R   0.905660 0.383870 0.059980 -0.628895
O12   O     O_R   0.094340 0.616130 0.940020 -0.628895
O13   O     O_R   0.092570 0.390420 0.063230 -0.635929
O14   O     O_R   0.907430 0.609580 0.936770 -0.635929
O15   O     O_R   0.900680 0.620930 0.055550 -0.637429
O16   O     O_R   0.099320 0.379070 0.944450 -0.637428
Zn1   Zn    Zn3+2 0.501730 0.123520 0.501540 0.956347
Zn2   Zn    Zn3+2 0.498270 0.876480 0.498460 0.956352
Zn3   Zn    Zn3+2 0.125690 0.504390 0.002180 0.954037
Zn4   Zn    Zn3+2 0.874310 0.495610 0.997820 0.954037
O17   O     O_3   0.207661 0.186274 0.402463 -0.601270
C59   C     C_3   0.251881 0.273223 0.370647 -0.240899
H15   H     H_    0.190037 0.305524 0.339734 0.155450
H16   H     H_    0.327842 0.249699 0.347513 0.173553
H17   H     H_    0.275026 0.339871 0.401251 0.170196
O18   O     O_3   0.792342 0.813729 0.597533 -0.601267
C60   C     C_3   0.748144 0.726770 0.629350 -0.240904
H18   H     H_    0.672198 0.750284 0.652501 0.173557
H19   H     H_    0.810010 0.694458 0.660248 0.155436
H20   H     H_    0.724978 0.660131 0.598743 0.170201
F1    F     F_    0.930787 0.821037 0.313226 -0.674132
F2    F     F_    0.069211 0.178962 0.686774 -0.674133
F3    F     F_    0.190649 0.150516 0.223462 -0.648411
F4    F     F_    0.809352 0.849483 0.776537 -0.648411
O19   O     O_3   0.791469 0.866977 0.219725 -0.564840
C61   C     C_3   0.694948 0.845880 0.186346 -0.232826
H21   H     H_    0.672908 0.758233 0.187028 0.142716
H22   H     H_    0.702143 0.875522 0.141257 0.173722
H23   H     H_    0.625985 0.889571 0.206477 0.185162
O20   O     O_3   0.208530 0.133024 0.780275 -0.564840
C62   C     C_3   0.305051 0.154121 0.813653 -0.232828
H24   H     H_    0.297857 0.124479 0.858742 0.173723
H25   H     H_    0.327092 0.241768 0.812972 0.142717
H26   H     H_    0.374014 0.110430 0.793522 0.185162
F5    F     F_    0.169394 0.965248 0.173604 -0.625769
F6    F     F_    0.830607 0.034751 0.826396 -0.625770
O21   O     O_3   0.801501 0.070543 0.183463 -0.600173
C63   C     C_3   0.706093 0.134821 0.183970 -0.258838
H27   H     H_    0.671899 0.142304 0.139464 0.157596
H28   H     H_    0.720718 0.216431 0.203982 0.186863
H29   H     H_    0.642810 0.093266 0.210152 0.190263
O22   O     O_3   0.198499 0.929458 0.816538 -0.600174
C64   C     C_3   0.293907 0.865180 0.816031 -0.258836
H30   H     H_    0.279283 0.783570 0.796019 0.186864
H31   H     H_    0.328100 0.857698 0.860537 0.157596
H32   H     H_    0.357190 0.906736 0.789849 0.190263
O23   O     O_3   0.133394 0.809963 0.268307 -0.611335
C65   C     C_3   0.146990 0.714564 0.300683 -0.261062
H33   H     H_    0.117549 0.723337 0.345831 0.192089
H34   H     H_    0.234221 0.689095 0.300045 0.132689
H35   H     H_    0.097120 0.648689 0.279678 0.199125
O24   O     O_3   0.866604 0.190036 0.731694 -0.611336
C66   C     C_3   0.853009 0.285436 0.699318 -0.261065
H36   H     H_    0.765777 0.310904 0.699956 0.132689
H37   H     H_    0.882450 0.276663 0.654170 0.192090
H38   H     H_    0.902878 0.351310 0.720323 0.199124
O25   O     O_3   0.876147 0.207768 0.286930 -0.637962
C67   C     C_3   0.885275 0.290748 0.329481 -0.384162
H39   H     H_    0.919367 0.261517 0.371371 0.177411
H40   H     H_    0.804380 0.329421 0.335808 0.186213
H41   H     H_    0.942819 0.354164 0.313731 0.197971
O26   O     O_3   0.123855 0.792232 0.713071 -0.637961
C68   C     C_3   0.114727 0.709251 0.670519 -0.384169
H42   H     H_    0.195622 0.670579 0.664193 0.186215
H43   H     H_    0.080635 0.738483 0.628630 0.177409
H44   H     H_    0.057183 0.645836 0.686270 0.197969
O27   O     O_3   0.177281 0.806841 0.093778 -0.565512
C69   C     C_3   0.259207 0.755743 0.127287 -0.148145
H45   H     H_    0.228039 0.679436 0.147015 0.132663
H46   H     H_    0.293342 0.811074 0.161502 0.206063
H47   H     H_    0.327949 0.733883 0.098598 0.151786
O28   O     O_3   0.822720 0.193158 0.906222 -0.565513
C70   C     C_3   0.740793 0.244255 0.872714 -0.148142
H48   H     H_    0.706657 0.188924 0.838499 0.206063
H49   H     H_    0.771961 0.320562 0.852986 0.132663
H50   H     H_    0.672052 0.266115 0.901403 0.151786

loop_
_geom_bond_atom_site_label_1
_geom_bond_atom_site_label_2
_ccdc_geom_bond_type
C16   C28   A    
C66   H38   S    
C50   F2    S    
O17   C59   S    
C5    C37   A    
C70   H49   S    
C43   O11   A    
C42   O10   A    
C67   H41   S    
C19   C31   A    
C68   H42   S    
O13   Zn3   S    
O10   Zn4   S    
C66   H36   S    
C39   C41   S    
C29   C49   A    
O6    Zn2   S    
C22   C34   S    
O11   Zn4   S    
O5    Zn1   S    
C58   O20   S    
C67   H40   S    
O23   C65   S    
C10   O22   S    
C21   C33   S    
C22   C38   S    
C17   C29   A    
C61   H21   S    
C18   C20   A    
C45   C47   A    
O8    Zn1   S    
C32   C52   A    
O7    Zn2   S    
C52   H2    S    
O3    Zn2   S    
C38   C58   A    
C4    C40   A    
C49   C51   A    
C69   H47   S    
C1    C28   S    
C50   C52   A    
O19   C61   S    
C6    C38   A    
C2    C27   S    
C18   C30   A    
O12   Zn3   S    
C12   C36   A    
C8    O28   S    
C46   H14   S    
C2    O2    A    
C63   H29   S    
O4    Zn1   S    
C62   H26   S    
C40   C42   S    
C30   C50   A    
C15   H9    S    
C7    O27   S    
O15   Zn4   S    
C70   H50   S    
C9    C33   A    
C20   H12   S    
C44   O14   A    
C36   C44   S    
O20   C62   S    
C68   H43   S    
C63   H28   S    
C46   C48   A    
C53   C55   A    
C33   C53   A    
C41   O15   A    
C54   C56   A    
C54   F4    S    
C35   C55   A    
C43   O13   A    
C67   H39   S    
C10   C34   A    
C23   O3    A    
C5    C7    A    
C24   O4    A    
C6    C8    A    
C14   O24   S    
C59   H17   S    
C44   O12   A    
C12   H8    S    
C23   O5    A    
C5    F5    S    
C23   C31   S    
C65   H34   S    
C24   C32   S    
C36   C56   A    
C64   H32   S    
C15   C27   A    
C60   H18   S    
O16   Zn3   S    
O25   C67   S    
C41   O9    A    
C47   O17   S    
C21   C37   S    
C17   O25   S    
C14   C26   A    
C59   H16   S    
C9    C11   A    
O28   C70   S    
C56   H4    S    
C10   C12   A    
C16   H10   S    
C3    C57   A    
C24   O6    A    
C57   O19   S    
C34   C54   A    
C13   C15   A    
C64   H30   S    
C9    O21   S    
C14   C16   A    
C19   H11   S    
C65   H35   S    
C51   H1    S    
C25   C45   A    
C68   H44   S    
C35   C43   S    
C63   H27   S    
C62   H24   S    
C20   C32   A    
C27   C47   A    
C66   H37   S    
C21   C25   S    
C28   C48   A    
C13   O23   S    
C22   C30   S    
C60   H19   S    
C31   C51   A    
O26   C68   S    
C13   C25   A    
C49   F1    S    
O21   C63   S    
O24   C66   S    
C3    H5    S    
C48   O18   S    
C4    H6    S    
C61   H23   S    
C1    O1    A    
O2    Zn2   S    
C18   O26   S    
C65   H33   S    
O1    Zn1   S    
O14   Zn4   S    
O27   C69   S    
C21   C29   S    
C1    O7    A    
C55   H3    S    
C11   C35   A    
C17   C19   A    
C61   H22   S    
C69   H46   S    
C59   H15   S    
C2    O8    A    
C26   C46   A    
C3    C39   A    
O9    Zn3   S    
C53   F3    S    
C60   H20   S    
C42   O16   A    
O18   C60   S    
C22   C26   S    
C4    C58   A    
C70   H48   S    
C64   H31   S    
C7    C39   A    
C69   H45   S    
C45   H13   S    
C8    C40   A    
C6    F6    S    
C37   C57   A    
C11   H7    S    
O22   C64   S    
C62   H25   S    
