data_mof_unit_50195.cif
_audit_creation_date              2012-12-10T17:50:31-0500
_audit_creation_method            fapswitch 2.2
_symmetry_space_group_name_H-M    P1
_symmetry_Int_Tables_number       1
_space_group_crystal_system       triclinic
_cell_length_a                    15.698493
_cell_length_b                    10.649379
_cell_length_c                    9.947403
_cell_angle_alpha                 90.290414
_cell_angle_beta                  88.492724
_cell_angle_gamma                 93.046384
_cell_volume                      1660.06298644

loop_
_atom_site_label
_atom_site_type_symbol
_atom_type_description
_atom_site_fract_x
_atom_site_fract_y
_atom_site_fract_z
_atom_type_partial_charge
C1    C     C_R   0.514853 0.263452 0.499588 0.841791
C2    C     C_R   0.538899 0.066260 0.870289 -0.262089
C3    C     C_R   0.488143 0.954444 0.872447 0.040570
C4    C     C_R   0.338100 0.500492 0.501343 0.887475
C5    C     C_R   0.468800 0.894582 0.750245 -0.151280
C6    C     C_R   0.501606 0.944907 0.626537 0.040656
C7    C     C_R   0.534613 0.068991 0.625855 0.074285
C8    C     C_R   0.539412 0.133388 0.502005 -0.161039
C9    C     C_R   0.552256 0.065402 0.381857 0.100726
C10   C     C_R   0.534452 0.936715 0.384883 -0.238564
C11   C     C_R   0.504760 0.876890 0.503697 -0.142960
C12   C     C_3   0.082816 0.498817 0.500132 0.185461
C13   C     C_R   0.404327 0.315586 0.149173 -0.147277
C14   C     C_R   0.372511 0.206805 0.089120 -0.252106
C15   C     C_R   0.373919 0.198144 0.951380 -0.208527
C16   C     C_R   0.497603 0.741018 0.501020 0.879916
C17   C     C_R   0.401609 0.302114 0.873103 0.017887
C18   C     C_R   0.451648 0.405622 0.931176 0.125668
C19   C     C_R   0.452675 0.407813 0.075681 0.155429
C20   C     C_R   0.545645 0.588103 0.069666 -0.050002
C21   C     C_R   0.545518 0.588251 0.926940 -0.060726
C22   C     C_R   0.661948 0.500878 0.498451 0.873344
C23   C     C_3   0.972872 0.594147 0.572496 -0.183606
C24   C     C_3   0.966424 0.388795 0.545086 -0.188650
C25   C     C_3   0.027644 0.403042 0.420562 -0.240179
C26   C     C_1   0.249056 0.500135 0.503852 -0.119295
C27   C     C_1   0.750897 0.499816 0.494892 -0.164547
C28   C     C_3   0.023579 0.484343 0.624538 -0.114055
C29   C     C_2   0.454825 0.902583 0.002244 0.338937
C30   C     C_2   0.342552 0.312600 0.763957 0.522621
C31   C     C_2   0.952974 0.529057 0.227099 0.358575
C32   C     C_3   0.589886 0.123847 0.252961 -0.414773
C33   C     C_3   0.676886 0.192244 0.275354 -0.322878
C34   C     C_3   0.917194 0.498604 0.493251 0.184938
C35   C     C_3   0.709556 0.261182 0.148534 -0.812332
C36   C     C_3   0.034047 0.608833 0.448053 -0.236524
C37   C     C_3   0.977126 0.512884 0.370376 0.055976
C38   C     C_1   0.173667 0.499468 0.503379 -0.035059
C39   C     C_1   0.826243 0.498957 0.493199 -0.006042
C40   C     C_R   0.560160 0.124962 0.748345 -0.144355
H1    H     H_    0.052008 0.325269 0.358214 0.143494
H2    H     H_    0.063597 0.698534 0.408072 0.144670
H3    H     H_    0.948567 0.672149 0.634540 0.147488
H4    H     H_    0.044905 0.472656 0.729059 0.156102
H5    H     H_    0.596766 0.214004 0.750393 0.164785
H6    H     H_    0.556987 0.113065 0.962678 0.140940
H7    H     H_    0.468317 0.952686 0.094959 0.062393
H8    H     H_    0.349619 0.257577 0.672648 0.034009
H9    H     H_    0.002454 0.536848 0.148982 0.069974
H10   H     H_    0.716155 0.193847 0.063708 0.242511
H11   H     H_    0.664858 0.333703 0.120771 0.266040
H12   H     H_    0.426652 0.811059 0.753190 0.203377
H13   H     H_    0.772967 0.308297 0.167077 0.281059
H14   H     H_    0.672400 0.261618 0.358308 0.223793
H15   H     H_    0.723657 0.122815 0.303710 0.215463
H16   H     H_    0.600145 0.049702 0.176153 0.170060
H17   H     H_    0.545026 0.187269 0.208279 0.232039
H18   H     H_    0.544857 0.882738 0.293871 0.164493
H19   H     H_    0.582996 0.660481 0.121752 0.136375
H20   H     H_    0.389374 0.324294 0.253375 0.213597
H21   H     H_    0.340650 0.132950 0.149172 0.168450
H22   H     H_    0.339609 0.117702 0.906847 0.153700
H23   H     H_    0.582702 0.660689 0.872367 0.143267
H24   H     H_    0.936830 0.298987 0.584673 0.143158
N1    N     N_R   0.499210 0.498800 0.142780 -0.123049
N2    N     N_R   0.499180 0.498720 0.857170 -0.128006
O1    O     O_R   0.500000 0.316780 0.614690 -0.658743
O2    O     O_2   0.278193 0.370763 0.782556 -0.577712
O3    O     O_2   0.878302 0.533692 0.197421 -0.576738
O4    O     O_R   0.499990 0.316750 0.385360 -0.642843
O5    O     O_R   0.376780 0.500000 0.614650 -0.586195
O6    O     O_R   0.376770 0.499980 0.385310 -0.630198
O7    O     O_R   0.500010 0.683250 0.614640 -0.627826
O8    O     O_R   0.500000 0.683220 0.385310 -0.606216
O9    O     O_R   0.623230 0.500020 0.614690 -0.624152
O10   O     O_R   0.623220 0.500000 0.385350 -0.601663
O11   O     O_2   0.410850 0.804558 0.007249 -0.565320
Zn1   Zn    Zn3+2 0.500010 0.500020 0.653130 0.951782
Zn2   Zn    Zn3+2 0.499990 0.499980 0.346870 0.948248

loop_
_geom_bond_atom_site_label_1
_geom_bond_atom_site_label_2
_ccdc_geom_bond_type
C33   H15   S    
N1    Zn2   S    
C21   N2    A    
C35   H13   S    
C34   C37   S    
C36   H2    S    
O10   Zn2   S    
C22   O10   A    
C7    C8    A    
C13   H20   S    
C2    H6    S    
C29   H7    S    
C16   O8    A    
C32   H17   S    
C30   H8    S    
C36   C37   S    
C10   H18   S    
O6    Zn2   S    
C5    C6    A    
C1    C8    S    
C23   H3    S    
C18   C19   A    
C3    C29   S    
C9    C32   S    
C25   C37   S    
C34   C39   S    
C27   C39   T    
C8    C9    A    
C7    C40   A    
C5    H12   S    
C12   C36   S    
C9    C10   A    
C24   H24   S    
C13   C14   A    
C17   C30   S    
O1    Zn1   S    
C22   O9    A    
C31   H9    S    
C40   H5    S    
N2    Zn1   S    
C13   C19   A    
C16   O7    A    
C20   N1    A    
C24   C25   S    
C25   H1    S    
C6    C11   A    
C26   C38   T    
C14   H21   S    
C28   H4    S    
C24   C34   S    
C31   C37   S    
C11   C16   S    
O7    Zn1   S    
C23   C34   S    
C35   H10   S    
C17   C18   A    
C23   C28   S    
C20   H19   S    
C12   C28   S    
C22   C27   S    
C35   H11   S    
C4    O6    A    
C33   H14   S    
C15   C17   A    
O4    Zn2   S    
C24   C28   S    
C3    C5    A    
C4    C26   S    
C6    C7    A    
C1    O1    A    
C18   N2    A    
C1    O4    A    
C12   C25   S    
O8    Zn2   S    
C32   C33   S    
C2    C3    A    
C33   C35   S    
C15   H22   S    
C19   N1    A    
O5    Zn1   S    
C12   C38   S    
O9    Zn1   S    
C21   H23   S    
C10   C11   A    
C2    C40   A    
C31   O3    D    
C29   O11   D    
C20   C21   A    
C23   C36   S    
C14   C15   A    
C32   H16   S    
C4    O5    A    
C30   O2    D    
