data_mof_unit_58347.cif
_audit_creation_date              2012-12-11T15:41:33-0500
_audit_creation_method            fapswitch 2.2
_symmetry_space_group_name_H-M    P1
_symmetry_Int_Tables_number       1
_space_group_crystal_system       triclinic
_cell_length_a                    15.081405
_cell_length_b                    14.863822
_cell_length_c                    15.077418
_cell_angle_alpha                 108.953533
_cell_angle_beta                  110.488771
_cell_angle_gamma                 109.307852
_cell_volume                      2590.57656581

loop_
_atom_site_label
_atom_site_type_symbol
_atom_type_description
_atom_site_fract_x
_atom_site_fract_y
_atom_site_fract_z
_atom_type_partial_charge
C1    C     C_R   0.250628 0.064629 0.968989 -0.151673
C2    C     C_R   0.902821 0.771142 0.099983 -0.093779
C3    C     C_R   0.280635 0.184295 0.662860 -0.107830
C4    C     C_R   0.798088 0.699567 0.073249 -0.205940
C5    C     C_R   0.290128 0.271128 0.746724 0.101494
C6    C     C_R   0.707304 0.653975 0.969475 0.076518
C7    C     C_R   0.197119 0.259668 0.754383 -0.175390
C8    C     C_R   0.722931 0.680669 0.893022 -0.082190
C9    C     C_R   0.096776 0.162003 0.680504 -0.106382
C10   C     C_R   0.828311 0.749461 0.919015 -0.077348
C11   C     C_R   0.088225 0.075718 0.597925 -0.104180
C12   C     C_R   0.790452 0.980362 0.071070 -0.147072
C13   C     C_R   0.918075 0.794868 0.022376 -0.116494
C14   C     C_R   0.401986 0.472290 0.835260 -0.204983
C15   C     C_R   0.594437 0.469168 0.930407 -0.218041
C16   C     C_R   0.758305 0.225593 0.314830 -0.107447
C17   C     C_R   0.197764 0.791634 0.698899 -0.110848
C18   C     C_R   0.502290 0.571119 0.901664 0.057015
C19   C     C_R   0.494312 0.377252 0.888433 0.044993
C20   C     C_R   0.599719 0.565731 0.935009 0.033432
C21   C     C_R   0.396863 0.373840 0.825191 0.034928
C22   C     C_R   0.879673 0.531072 0.425948 -0.151172
C23   C     C_R   0.781728 0.327974 0.324369 0.050814
C24   C     C_R   0.963966 0.526018 0.619993 -0.159575
C25   C     C_R   0.968882 0.624855 0.520204 -0.147729
C26   C     C_R   0.874169 0.432373 0.525747 -0.148018
C27   C     C_R   0.018573 0.618867 0.614354 0.140263
C28   C     C_R   0.840523 0.431620 0.426147 0.143022
C29   C     C_R   0.594719 0.148233 0.620540 -0.129474
C30   C     C_R   0.398011 0.013256 0.421268 -0.036958
C31   C     C_R   0.595607 0.128647 0.524970 -0.132878
C32   C     C_R   0.397058 0.034189 0.516247 -0.148949
C33   C     C_R   0.497952 0.052620 0.424832 0.123953
C34   C     C_R   0.133134 0.699143 0.696832 0.044864
C35   C     C_R   0.496239 0.090818 0.614653 0.095640
C36   C     C_R   0.123424 0.089499 0.134555 0.506044
C37   C     C_R   0.938304 0.996718 0.926611 0.528694
C38   C     C_R   0.025548 0.077272 0.125613 -0.365493
C39   C     C_R   0.035879 0.009946 0.936043 -0.392495
C40   C     C_R   0.408266 0.947185 0.221349 -0.073866
C41   C     C_R   0.590294 0.094269 0.791585 -0.041190
C42   C     C_R   0.934173 0.029837 0.022800 -0.142745
C43   C     C_R   0.126594 0.053134 0.038177 -0.149781
C44   C     C_R   0.588357 0.297617 0.991134 -0.135732
C45   C     C_R   0.499478 0.013120 0.324681 0.057070
C46   C     C_R   0.409190 0.685502 0.933135 -0.117809
C47   C     C_R   0.591160 0.038908 0.314595 -0.128186
C48   C     C_R   0.407616 0.003026 0.700553 -0.119976
C49   C     C_R   0.407092 0.207445 0.903926 -0.137268
C50   C     C_R   0.591951 0.777319 0.029385 -0.112470
C51   C     C_R   0.750796 0.315291 0.221115 -0.124325
C52   C     C_R   0.195829 0.700230 0.790159 -0.140130
C53   C     C_R   0.239272 0.964996 0.052857 -0.071907
C54   C     C_R   0.785848 0.070070 0.976369 -0.013883
C55   C     C_R   0.215273 0.041986 0.035416 0.222617
C56   C     C_R   0.498173 0.065260 0.699639 0.032273
C57   C     C_R   0.836733 0.020758 0.018335 0.169226
C58   C     C_R   0.495892 0.297849 0.926857 0.067463
C59   C     C_R   0.501551 0.674560 0.949328 0.064829
C60   C     C_R   0.179923 0.086979 0.588884 -0.096086
H1    H     H_    0.235398 0.113157 0.931953 0.112923
H2    H     H_    0.840706 0.765789 0.858258 0.176402
H3    H     H_    0.326607 0.471575 0.794450 0.126554
H4    H     H_    0.670196 0.468580 0.964218 0.123845
H5    H     H_    0.850168 0.535154 0.351725 0.107018
H6    H     H_    0.995826 0.521017 0.693444 0.107656
H7    H     H_    0.004511 0.697534 0.514784 0.103746
H8    H     H_    0.839239 0.358662 0.529961 0.106863
H9    H     H_    0.672120 0.198858 0.696792 0.112333
H10   H     H_    0.320366 0.958915 0.345882 0.130641
H11   H     H_    0.673274 0.167042 0.530094 0.105969
H12   H     H_    0.823010 0.952579 0.125965 0.114868
H13   H     H_    0.318988 0.993618 0.509289 0.102261
H14   H     H_    0.782421 0.208329 0.380380 0.084683
H15   H     H_    0.172425 0.824938 0.647182 0.082614
H16   H     H_    0.020099 0.104113 0.198590 0.195846
H17   H     H_    0.039605 0.980381 0.862333 0.180563
H18   H     H_    0.324497 0.900489 0.198159 0.079742
H19   H     H_    0.674421 0.151965 0.822890 0.085446
H20   H     H_    0.671458 0.347613 0.013253 0.081873
H21   H     H_    0.324397 0.622285 0.878251 0.095620
H22   H     H_    0.674089 0.074836 0.378402 0.088809
H23   H     H_    0.172761 0.020166 0.524495 0.112113
H24   H     H_    0.323214 0.977504 0.648846 0.083120
H25   H     H_    0.322050 0.173592 0.847946 0.111991
H26   H     H_    0.676190 0.799522 0.068405 0.113918
H27   H     H_    0.758634 0.377376 0.197502 0.095134
H28   H     H_    0.167697 0.648622 0.822041 0.086762
H29   H     H_    0.207857 0.919021 0.087693 0.095622
H30   H     H_    0.811431 0.122652 0.944358 0.116250
H31   H     H_    0.010475 0.000185 0.540801 0.110148
H32   H     H_    0.999542 0.847569 0.041962 0.121536
H33   H     H_    0.249215 0.306520 0.326788 0.338700
H34   H     H_    0.972460 0.806099 0.179906 0.128904
H35   H     H_    0.879593 0.900637 0.677980 0.344062
H36   H     H_    0.351201 0.192022 0.655227 0.129320
H37   H     H_    0.787673 0.678384 0.132597 0.122495
H38   H     H_    0.202762 0.325595 0.818453 0.116856
H39   H     H_    0.654419 0.644051 0.811784 0.149496
H40   H     H_    0.025653 0.153146 0.687362 0.129286
N1    N     N_R   0.293810 0.002730 0.945950 -0.052028
N2    N     N_R   0.443210 0.997250 0.791090 -0.038025
N3    N     N_R   0.443180 0.152110 0.945950 -0.037237
N4    N     N_R   0.556820 0.847890 0.054050 -0.045480
N5    N     N_R   0.706170 0.208950 0.152090 -0.047325
N6    N     N_R   0.293830 0.791050 0.847910 -0.038722
N7    N     N_R   0.293800 0.945910 0.002760 -0.057160
N8    N     N_R   0.706200 0.054090 0.997240 -0.059210
N9    N     N_R   0.706190 0.997270 0.054050 -0.048621
N10   N     N_R   0.706160 0.152130 0.208910 -0.042662
N11   N     N_R   0.293840 0.847870 0.791090 -0.037128
N12   N     N_R   0.443140 0.945920 0.152090 -0.044510
N13   N     N_R   0.556860 0.054080 0.847910 -0.041828
N14   N     N_R   0.556830 0.208940 0.002760 -0.039245
N15   N     N_R   0.443170 0.791060 0.997240 -0.045836
N16   N     N_R   0.556790 0.002750 0.208910 -0.040036
Ni1   Ni    Ni4+2 0.369690 0.999990 0.869700 0.219015
Ni2   Ni    Ni4+2 0.630310 0.000010 0.130300 0.225213
Ni3   Ni    Ni4+2 0.369670 0.869670 0.000000 0.219394
Ni4   Ni    Ni4+2 0.630330 0.130330 0.000000 0.218087
O1    O     O_2   0.218341 0.061149 0.300104 -0.317093
O2    O     O_2   0.342750 0.183406 0.268035 -0.289237
O3    O     O_3   0.241711 0.254826 0.355399 -0.494569
O4    O     O_2   0.720190 0.860904 0.785273 -0.269892
O5    O     O_2   0.811742 0.018167 0.767330 -0.337175
O6    O     O_3   0.841359 0.852042 0.700121 -0.525038
S1    S     S_3+6 0.236108 0.146789 0.266012 -0.048433
S2    S     S_3+6 0.823607 0.931758 0.793116 -0.064673

loop_
_geom_bond_atom_site_label_1
_geom_bond_atom_site_label_2
_ccdc_geom_bond_type
N1    N7    A    
N5    N10   A    
C50   N4    A    
C7    H38   S    
N6    Ni3   S    
C33   C45   S    
C14   C18   A    
C25   H7    S    
C24   C27   A    
C9    H40   S    
N10   Ni2   S    
C16   N10   A    
C40   N12   A    
C38   H16   S    
C15   C19   A    
C46   N15   A    
C16   H14   S    
C50   C59   A    
C39   H17   S    
C14   C21   A    
C19   C21   A    
C8    H39   S    
C24   C26   A    
C54   H30   S    
C41   C56   A    
C46   C59   A    
C60   H23   S    
C47   H22   S    
N4    N15   A    
O2    S1    D    
N8    N9    A    
C48   C56   A    
C45   C47   A    
C37   C42   A    
C2    C13   A    
N8    Ni4   S    
C23   C51   A    
C44   C58   A    
C22   C25   A    
O5    S2    D    
C15   H4    S    
C31   C33   A    
N5    Ni4   S    
C3    H36   S    
C29   H9    S    
C24   H6    S    
O4    S2    D    
C37   S2    S    
C3    C60   A    
C31   H11   S    
C12   H12   S    
C44   N14   A    
C19   C58   S    
C22   C28   A    
C4    H37   S    
C10   H2    S    
C17   N11   A    
C42   C57   S    
N7    Ni3   S    
C12   N9    A    
C30   H10   S    
N9    Ni2   S    
N4    Ni2   S    
N6    N11   A    
C53   C55   A    
C27   C34   S    
C2    H34   S    
C47   N16   A    
C32   C35   A    
C49   H25   S    
C44   H20   S    
N3    N14   A    
C4    C6    A    
C51   H27   S    
C32   H13   S    
C5    C7    A    
C39   C43   A    
C49   C58   A    
C48   H24   S    
C15   C20   A    
C2    C4    A    
C22   H5    S    
C49   N3    A    
N13   Ni4   S    
C53   N7    A    
O3    S1    S    
C52   H28   S    
C51   N5    A    
C48   N2    A    
C36   C43   A    
C23   C28   S    
C9    C11   A    
N2    Ni1   S    
C12   C57   A    
C43   C55   S    
C16   C23   A    
N15   Ni3   S    
C13   H32   S    
C53   H29   S    
C40   H18   S    
C36   S1    S    
C17   C34   A    
C11   C60   A    
C1    N1    A    
N12   N16   A    
C46   H21   S    
C7    C9    A    
O6    S2    S    
C30   C33   A    
C35   C56   S    
C34   C52   A    
C8    C10   A    
H33   O3    S    
C41   N13   A    
C3    C5    A    
C10   C13   A    
C1    H1    S    
C41   H19   S    
N12   Ni3   S    
C6    C8    A    
O1    S1    D    
C25   C27   A    
C6    C20   S    
C29   C35   A    
C26   C28   A    
C54   N8    A    
N11   Ni1   S    
C26   H8    S    
C36   C38   A    
C1    C55   A    
N1    Ni1   S    
C29   C31   A    
N2    N13   A    
C30   C32   A    
H35   O6    S    
C14   H3    S    
N16   Ni2   S    
C18   C20   A    
C50   H26   S    
C52   N6    A    
C38   C42   A    
C11   H31   S    
C18   C59   S    
C5    C21   S    
C40   C45   A    
C37   C39   A    
C17   H15   S    
N3    Ni1   S    
N14   Ni4   S    
C54   C57   A    
