data_mof_unit_39726.cif
_audit_creation_date              2012-12-11T16:27:27-0500
_audit_creation_method            fapswitch 2.2
_symmetry_space_group_name_H-M    P1
_symmetry_Int_Tables_number       1
_space_group_crystal_system       triclinic
_cell_length_a                    21.659706
_cell_length_b                    6.92113
_cell_length_c                    14.788977
_cell_angle_alpha                 90.003957
_cell_angle_beta                  105.997127
_cell_angle_gamma                 90.000922
_cell_volume                      2131.15764908

loop_
_atom_site_label
_atom_site_type_symbol
_atom_type_description
_atom_site_fract_x
_atom_site_fract_y
_atom_site_fract_z
_atom_type_partial_charge
O1    O     O_R   0.835850 0.638310 0.002120 -0.535053
O2    O     O_R   0.164150 0.361690 0.997880 -0.537814
O3    O     O_R   0.664150 0.138310 0.997880 -0.535048
O4    O     O_R   0.335850 0.861690 0.002120 -0.537812
O5    O     O_R   0.717530 0.306070 0.861970 -0.536840
O6    O     O_R   0.282470 0.693930 0.138030 -0.541312
O7    O     O_R   0.782470 0.806070 0.138030 -0.536835
O8    O     O_R   0.217530 0.193930 0.861970 -0.541314
C1    C     C_R   0.705530 0.478156 0.824210 0.684504
C2    C     C_R   0.294812 0.521969 0.175690 0.684688
C3    C     C_R   0.794471 0.978170 0.175789 0.684498
C4    C     C_R   0.205187 0.021955 0.824310 0.684698
O9    O     O_R   0.838690 0.308440 0.993250 -0.542757
O10   O     O_R   0.161310 0.691560 0.006750 -0.539587
O11   O     O_R   0.661310 0.808440 0.006750 -0.542761
O12   O     O_R   0.338690 0.191560 0.993250 -0.539588
O13   O     O_R   0.786170 0.140510 0.130090 -0.542555
O14   O     O_R   0.213830 0.859490 0.869910 -0.539192
O15   O     O_R   0.713830 0.640510 0.869910 -0.542547
O16   O     O_R   0.286170 0.359490 0.130090 -0.539184
C5    C     C_R   0.865537 0.476939 0.999217 0.699126
C6    C     C_R   0.134673 0.522589 0.001550 0.698251
C7    C     C_R   0.634464 0.976937 0.000785 0.699125
C8    C     C_R   0.365327 0.022591 0.998449 0.698248
O17   O     O_3   0.732630 0.472520 0.044740 -0.368407
O18   O     O_3   0.267370 0.527480 0.955260 -0.367892
O19   O     O_3   0.767370 0.972520 0.955260 -0.368404
O20   O     O_3   0.232630 0.027480 0.044740 -0.367887
V1    V     V_3+5 0.753220 0.196740 0.991700 1.429093
V2    V     V_3+5 0.246780 0.803260 0.008300 1.427882
V3    V     V_3+5 0.746780 0.696740 0.008300 1.429084
V4    V     V_3+5 0.253220 0.303260 0.991700 1.427875
H1    H     H_    0.617566 0.144028 0.315348 0.106861
H2    H     H_    0.382321 0.783515 0.694241 0.108047
H3    H     H_    0.882434 0.643856 0.684646 0.106835
H4    H     H_    0.117679 0.283645 0.305764 0.108041
C9    C     C_R   0.531966 0.861402 0.837858 -0.117331
C10   C     C_R   0.467816 0.098508 0.167025 -0.142204
C11   C     C_R   0.968034 0.361482 0.162148 -0.117302
C12   C     C_R   0.032184 0.598420 0.832971 -0.142151
C13   C     C_R   0.483727 0.805340 0.758475 -0.058396
C14   C     C_R   0.516148 0.128402 0.250287 -0.052649
C15   C     C_R   0.016274 0.305447 0.241530 -0.058368
C16   C     C_R   0.983852 0.628280 0.749709 -0.052629
C17   C     C_R   0.419555 0.824775 0.756587 -0.124426
C18   C     C_R   0.580288 0.119484 0.250580 -0.131749
C19   C     C_R   0.080445 0.324883 0.243417 -0.124479
C20   C     C_R   0.919712 0.619346 0.749415 -0.131750
C21   C     C_R   0.403069 0.895993 0.834921 -0.137639
C22   C     C_R   0.596608 0.077645 0.167893 -0.150434
C23   C     C_R   0.096931 0.396070 0.165082 -0.137629
C24   C     C_R   0.903392 0.577539 0.832102 -0.150389
C25   C     C_R   0.450890 0.947315 0.917799 0.070022
C26   C     C_R   0.548786 0.041347 0.082917 0.060302
C27   C     C_R   0.049111 0.447357 0.082203 0.070023
C28   C     C_R   0.951214 0.541291 0.917080 0.060324
C29   C     C_R   0.516730 0.932020 0.918967 0.053765
C30   C     C_R   0.482985 0.053218 0.082263 0.041382
C31   C     C_R   0.983271 0.432065 0.081037 0.053738
C32   C     C_R   0.017015 0.553162 0.917734 0.041389
C33   C     C_R   0.433978 0.011556 0.998864 -0.179587
C34   C     C_R   0.565712 0.985401 0.000618 -0.181821
C35   C     C_R   0.066022 0.511549 0.001135 -0.179597
C36   C     C_R   0.934289 0.485403 0.999384 -0.181826
H5    H     H_    0.581156 0.846316 0.835217 0.107008
H6    H     H_    0.418627 0.107270 0.170443 0.111232
H7    H     H_    0.918844 0.346396 0.164789 0.107014
H8    H     H_    0.081373 0.607186 0.829554 0.111208
H9    H     H_    0.496106 0.746754 0.697924 0.115087
H10   H     H_    0.503711 0.160081 0.314807 0.124876
H11   H     H_    0.003895 0.246880 0.302081 0.115130
H12   H     H_    0.996289 0.659939 0.685189 0.124859
H13   H     H_    0.352510 0.908444 0.830116 0.090903
H14   H     H_    0.647009 0.068926 0.171604 0.091796
H15   H     H_    0.147490 0.408519 0.169886 0.090904
H16   H     H_    0.852991 0.568811 0.828392 0.091778
C37   C     C_R   0.176345 0.002356 0.722611 -0.077098
C38   C     C_R   0.819290 0.995216 0.278398 -0.071533
C39   C     C_R   0.323657 0.502412 0.277387 -0.077063
C40   C     C_R   0.680716 0.495168 0.721602 -0.071509
C41   C     C_R   0.172013 0.810164 0.585297 -0.141494
C42   C     C_R   0.810555 0.141361 0.422920 -0.157116
C43   C     C_R   0.327968 0.310345 0.414718 -0.141488
C44   C     C_R   0.689465 0.641261 0.577086 -0.157095
C45   C     C_R   0.206172 0.881094 0.672239 -0.152554
C46   C     C_R   0.783422 0.094591 0.328875 -0.166827
C47   C     C_R   0.293814 0.381254 0.327776 -0.152563
C48   C     C_R   0.716595 0.594484 0.671127 -0.166817
C49   C     C_R   0.112740 0.061366 0.682822 -0.193970
C50   C     C_R   0.882437 0.940456 0.323469 -0.172093
C51   C     C_R   0.387276 0.561340 0.317156 -0.193928
C52   C     C_R   0.617562 0.440452 0.676531 -0.172108
C53   C     C_R   0.074580 0.980084 0.596990 0.087913
C54   C     C_R   0.910377 0.979773 0.420382 0.078111
C55   C     C_R   0.425424 0.480122 0.403004 0.087916
C56   C     C_R   0.589626 0.479762 0.579619 0.078106
C57   C     C_R   0.106444 0.851474 0.549328 0.059999
C58   C     C_R   0.874246 0.089992 0.467909 0.051466
C59   C     C_R   0.393544 0.351596 0.450678 0.060001
C60   C     C_R   0.625768 0.589944 0.532099 0.051496
C61   C     C_R   0.006492 0.014227 0.557640 -0.115653
C62   C     C_R   0.974575 0.925237 0.468975 -0.124680
C63   C     C_R   0.493515 0.514242 0.442359 -0.115659
C64   C     C_R   0.525423 0.425260 0.531023 -0.124693
C65   C     C_R   0.006932 0.778158 0.433006 0.457072
C66   C     C_R   0.967600 0.125342 0.602854 0.457591
C67   C     C_R   0.493051 0.278228 0.566991 0.457049
C68   C     C_R   0.532416 0.625347 0.397158 0.457602
C69   C     C_R   0.072366 0.752132 0.469616 -0.261353
C70   C     C_R   0.902674 0.157253 0.558166 -0.290125
C71   C     C_R   0.427613 0.252263 0.530389 -0.261353
C72   C     C_R   0.597344 0.657223 0.441851 -0.290139
H17   H     H_    0.096067 0.643933 0.437859 0.144411
H18   H     H_    0.875007 0.245433 0.593520 0.146435
H19   H     H_    0.403899 0.144110 0.562149 0.144419
H20   H     H_    0.625019 0.745401 0.406509 0.146421
H21   H     H_    0.910478 0.883575 0.279471 0.162206
H22   H     H_    0.095178 0.162348 0.724414 0.180062
H23   H     H_    0.589516 0.383610 0.720528 0.162201
H24   H     H_    0.404855 0.662193 0.275529 0.180038
H25   H     H_    0.735399 0.144212 0.294460 0.102876
H26   H     H_    0.255015 0.832466 0.702673 0.101537
H27   H     H_    0.764624 0.644068 0.705542 0.102863
H28   H     H_    0.244961 0.332681 0.297355 0.101516
H29   H     H_    0.195971 0.711821 0.548914 0.113652
H30   H     H_    0.782504 0.224814 0.459447 0.117787
H31   H     H_    0.303998 0.212068 0.451112 0.113651
H32   H     H_    0.717525 0.724677 0.540563 0.117778
O21   O     O_3   0.974811 0.648531 0.365161 -0.562612
C73   C     C_3   0.946470 0.505687 0.408886 -0.246885
H33   H     H_    0.913323 0.568678 0.446677 0.146463
H34   H     H_    0.983948 0.416853 0.457851 0.146550
H35   H     H_    0.917410 0.408521 0.353793 0.165542
O22   O     O_3   0.991680 0.217734 0.687813 -0.565900
C74   C     C_3   0.977440 0.108339 0.760078 -0.265273
H36   H     H_    0.013918 0.993658 0.783484 0.146181
H37   H     H_    0.928019 0.046564 0.740278 0.139952
H38   H     H_    0.981122 0.203090 0.821521 0.182078
O23   O     O_3   0.525158 0.148594 0.634831 -0.562606
C75   C     C_3   0.553479 0.005702 0.591096 -0.246733
H39   H     H_    0.586638 0.068656 0.553304 0.146449
H40   H     H_    0.515983 0.916885 0.542121 0.146542
H41   H     H_    0.582529 0.908520 0.646192 0.165502
O24   O     O_3   0.508340 0.717798 0.312222 -0.565889
C76   C     C_3   0.522614 0.608520 0.239934 -0.265280
H42   H     H_    0.486155 0.493776 0.216483 0.146176
H43   H     H_    0.572045 0.546835 0.259734 0.139936
H44   H     H_    0.518923 0.703333 0.178514 0.182087

loop_
_geom_bond_atom_site_label_1
_geom_bond_atom_site_label_2
_ccdc_geom_bond_type
O17   V3    S    
C74   H38   S    
C43   C47   A    
O1    C5    A    
C61   C62   A    
C12   C32   A    
C27   C31   A    
O19   V1    S    
O13   V1    S    
O3    C7    A    
C75   H41   S    
C52   C56   A    
O15   V3    S    
C39   C47   A    
C76   H42   S    
C29   C34   A    
C38   C50   A    
C2    C39   S    
O7    C3    A    
C37   C49   A    
C31   C36   A    
C8    C33   S    
C62   C65   A    
C32   C35   A    
C58   C70   A    
O9    V1    S    
C52   H23   S    
C23   H15   S    
C10   C14   A    
C22   H14   S    
C26   C30   A    
C47   H28   S    
O4    C8    A    
C55   C59   A    
C72   H20   S    
C54   C58   A    
O1    V3    S    
H4    C19   S    
O2    V4    S    
C14   C18   A    
O3    V1    S    
C42   H30   S    
C5    C36   S    
C6    C35   S    
C10   C30   A    
C25   C33   A    
C1    O15   A    
C7    C34   S    
C10   H6    S    
C2    O16   A    
C27   C35   A    
O2    C6    A    
C28   C36   A    
C63   C68   A    
O14   V2    S    
C74   H36   S    
C70   H18   S    
C12   C16   A    
C39   C51   A    
C69   H17   S    
C38   C46   A    
C30   C33   A    
O11   C7    A    
C11   C31   A    
O12   C8    A    
C43   C59   A    
C67   O23   S    
H1    C18   S    
C42   C58   A    
C67   C71   A    
C44   H32   S    
O10   V2    S    
C48   H27   S    
H3    C20   S    
C76   H43   S    
C55   C63   A    
C50   C54   A    
O5    V1    S    
O17   V1    S    
O7    V3    S    
O19   V3    S    
O8    V4    S    
C50   H21   S    
O20   V4    S    
C75   H39   S    
C53   C61   A    
C25   C29   A    
O18   V4    S    
C19   C23   A    
C26   C34   A    
C42   C46   A    
C51   C55   A    
O4    V2    S    
C68   C72   A    
C9    H5    S    
C1    C40   S    
C44   C60   A    
C40   C52   A    
C73   H34   S    
C14   H10   S    
O5    C1    A    
C3    C38   S    
C57   C69   A    
C66   O22   S    
C17   C21   A    
O8    C4    A    
C59   C71   A    
C4    C37   S    
C46   H25   S    
O9    C5    A    
C45   H26   S    
H2    C17   S    
C22   C26   A    
C54   C62   A    
O6    V2    S    
C60   C72   A    
C56   C64   A    
C21   H13   S    
C73   H35   S    
C53   C57   A    
C68   O24   S    
C76   H44   S    
C13   H9    S    
O21   C73   S    
O16   V4    S    
C61   C66   A    
C74   H37   S    
C65   C69   A    
C3    O13   A    
C15   H11   S    
C41   H29   S    
C11   H7    S    
C44   C48   A    
C43   H31   S    
O24   C76   S    
C24   H16   S    
O6    C2    A    
C65   O21   S    
O23   C75   S    
O11   V3    S    
O22   C74   S    
C75   H40   S    
O12   V4    S    
C18   C22   A    
O10   C6    A    
O20   V2    S    
C73   H33   S    
C9    C13   A    
C40   C48   A    
C16   C20   A    
C41   C57   A    
C21   C25   A    
C56   C60   A    
C16   H12   S    
C23   C27   A    
C49   C53   A    
C9    C29   A    
C37   C45   A    
C28   C32   A    
C20   C24   A    
C49   H22   S    
C11   C15   A    
C66   C70   A    
C12   H8    S    
C4    O14   A    
C63   C64   A    
C13   C17   A    
C51   H24   S    
C71   H19   S    
C15   C19   A    
C64   C67   A    
C41   C45   A    
C24   C28   A    
O18   V2    S    
