data_mof_unit_67589.cif
_audit_creation_date              2012-10-26T20:17:14-0400
_audit_creation_method            fapswitch 2.2
_symmetry_space_group_name_H-M    P1
_symmetry_Int_Tables_number       1
_space_group_crystal_system       triclinic
_cell_length_a                    10.839185
_cell_length_b                    11.470929
_cell_length_c                    10.017181
_cell_angle_alpha                 108.394554
_cell_angle_beta                  100.218608
_cell_angle_gamma                 90.29732
_cell_volume                      1160.60981895

loop_
_atom_site_label
_atom_site_type_symbol
_atom_type_description
_atom_site_fract_x
_atom_site_fract_y
_atom_site_fract_z
_atom_type_partial_charge
C1    C     C_R   0.495252 0.257578 0.444720 0.566228
C2    C     C_3   0.122547 0.501604 0.499003 0.002013
C3    C     C_3   0.985719 0.548608 0.638801 0.233569
C4    C     C_3   0.015410 0.452845 0.368877 0.236239
C5    C     C_2   0.493398 0.123774 0.416645 0.185752
C6    C     C_2   0.554667 0.868676 0.572065 0.180840
C7    C     C_2   0.528401 0.069752 0.521089 -0.014772
C8    C     C_2   0.490824 0.935990 0.494538 -0.030950
C9    C     C_2   0.511582 0.505428 0.080192 -0.048791
C10   C     C_2   0.496690 0.487580 0.919491 -0.034011
C11   C     C_R   0.893595 0.257095 0.399019 0.051906
C12   C     C_R   0.513883 0.741873 0.554192 0.581780
C13   C     C_R   0.929249 0.173356 0.472948 -0.125020
C14   C     C_R   0.859942 0.060821 0.435288 -0.146976
C15   C     C_R   0.757865 0.030579 0.322349 -0.099307
C16   C     C_R   0.726636 0.111615 0.244885 -0.105535
C17   C     C_R   0.792878 0.224617 0.284128 -0.062261
C18   C     C_R   0.109876 0.743245 0.625955 0.075069
C19   C     C_R   0.061154 0.838577 0.578388 -0.048324
C20   C     C_R   0.119769 0.956153 0.638775 -0.113599
C21   C     C_R   0.230446 0.977305 0.739241 -0.135134
C22   C     C_R   0.275699 0.884999 0.793718 -0.119561
C23   C     C_R   0.259713 0.500639 0.499288 0.560249
C24   C     C_R   0.214104 0.768082 0.738743 -0.054890
C25   C     C_R   0.374298 0.881949 0.386570 0.061199
C26   C     C_R   0.263566 0.943747 0.398606 -0.054775
C27   C     C_R   0.162094 0.915364 0.284112 -0.099992
C28   C     C_R   0.172686 0.829237 0.152997 -0.075119
C29   C     C_R   0.283530 0.769974 0.137540 -0.056719
C30   C     C_R   0.383398 0.794953 0.253425 0.009124
C31   C     C_R   0.595768 0.145365 0.667631 0.084885
C32   C     C_R   0.554423 0.140037 0.790787 -0.067138
C33   C     C_R   0.616143 0.212339 0.926494 -0.116358
C34   C     C_R   0.740624 0.499909 0.501697 0.566416
C35   C     C_R   0.721172 0.289009 0.940838 -0.087924
C36   C     C_R   0.764375 0.294175 0.820041 -0.079790
C37   C     C_R   0.703303 0.221726 0.684589 -0.022701
C38   C     C_R   0.643535 0.652594 0.952505 0.161879
C39   C     C_R   0.758514 0.629405 0.026708 -0.062848
C40   C     C_R   0.852968 0.723800 0.091566 -0.091737
C41   C     C_R   0.837987 0.837232 0.068487 -0.075031
C42   C     C_R   0.723421 0.860774 0.997040 -0.063633
C43   C     C_R   0.623460 0.772510 0.951747 -0.032471
C44   C     C_R   0.332201 0.373495 0.052905 0.163002
C45   C     C_3   0.059462 0.434125 0.582530 -0.164651
C46   C     C_R   0.310133 0.253609 0.054649 -0.049753
C47   C     C_R   0.193484 0.189500 0.993397 -0.074867
C48   C     C_R   0.102924 0.237038 0.911262 -0.079411
C49   C     C_R   0.124745 0.354450 0.903777 -0.092929
C50   C     C_R   0.236777 0.423862 0.977298 -0.059459
C51   C     C_3   0.943279 0.568595 0.425467 -0.138503
C52   C     C_3   0.951716 0.385575 0.451198 -0.030391
C53   C     C_3   0.050883 0.615832 0.557839 -0.022850
C54   C     C_3   0.878935 0.500174 0.507061 0.006929
Cl1   Cl    Cl    0.969397 0.614829 0.819015 -0.669994
Cl2   Cl    Cl    0.024859 0.392455 0.187547 -0.659127
Cl3   Cl    Cl    0.709911 0.911570 0.669634 -0.660163
Cl4   Cl    Cl    0.440970 0.040038 0.232433 -0.758572
Cu1   Cu    Cu3+1 0.522260 0.521810 0.644920 0.977895
Cu2   Cu    Cu3+1 0.477740 0.478190 0.355080 0.975002
H1    H     H_    0.115804 0.380963 0.643205 0.105902
H2    H     H_    0.979518 0.821827 0.493816 0.107610
H3    H     H_    0.085069 0.030062 0.601868 0.091300
H4    H     H_    0.278845 0.066842 0.775705 0.100236
H5    H     H_    0.357774 0.904481 0.878008 0.136293
H6    H     H_    0.248553 0.696983 0.782410 0.142354
H7    H     H_    0.261339 0.022870 0.491432 0.102458
H8    H     H_    0.079044 0.966492 0.295070 0.110996
H9    H     H_    0.098418 0.813403 0.060825 0.170467
H10   H     H_    0.296058 0.712601 0.033174 0.094276
H11   H     H_    0.472874 0.758875 0.233948 0.123552
H12   H     H_    0.894634 0.621563 0.358517 0.120025
H13   H     H_    0.476640 0.078138 0.781866 0.095281
H14   H     H_    0.581392 0.210363 0.020190 0.107740
H15   H     H_    0.767484 0.347035 0.044980 0.147750
H16   H     H_    0.842788 0.356911 0.830988 0.145069
H17   H     H_    0.734202 0.231800 0.592441 0.120530
H18   H     H_    0.776351 0.538697 0.031774 0.125249
H19   H     H_    0.940688 0.705826 0.150033 0.145666
H20   H     H_    0.913089 0.908461 0.107898 0.123256
H21   H     H_    0.711575 0.947797 0.977721 0.159507
H22   H     H_    0.532063 0.796131 0.909635 0.133190
H23   H     H_    0.432769 0.412844 0.845651 0.145632
H24   H     H_    0.383844 0.207105 0.098167 0.188261
H25   H     H_    0.176129 0.099609 0.002663 0.162321
H26   H     H_    0.014506 0.184972 0.857970 0.147733
H27   H     H_    0.051991 0.393997 0.847396 0.160474
H28   H     H_    0.248737 0.515931 0.974293 0.118458
H29   H     H_    0.585976 0.569441 0.153174 0.134490
H30   H     H_    0.003912 0.198333 0.565597 0.091772
H31   H     H_    0.879969 0.999946 0.497888 0.156959
H32   H     H_    0.702340 0.944842 0.295715 0.161785
H33   H     H_    0.648438 0.089090 0.156715 0.159193
H34   H     H_    0.761868 0.289343 0.229870 0.140196
N1    N     N_2   0.444270 0.445410 0.137360 -0.275140
N2    N     N_2   0.555730 0.554590 0.862640 -0.269076
O1    O     O_R   0.511880 0.332340 0.577400 -0.542664
O2    O     O_R   0.488120 0.667660 0.422600 -0.537923
O3    O     O_R   0.474280 0.295500 0.332650 -0.483275
O4    O     O_R   0.525720 0.704500 0.667350 -0.493398
O5    O     O_R   0.335640 0.518390 0.622350 -0.545197
O6    O     O_R   0.664360 0.481610 0.377650 -0.539950
O7    O     O_R   0.298050 0.481550 0.377590 -0.441217
O8    O     O_R   0.701950 0.518450 0.622410 -0.442084

loop_
_geom_bond_atom_site_label_1
_geom_bond_atom_site_label_2
_ccdc_geom_bond_type
C8    C25   S    
C13   H30   S    
C11   C13   A    
C41   C42   A    
C49   H27   S    
C35   C36   A    
Cu2   O3    S    
C1    O3    A    
C41   H20   S    
C30   H11   S    
C7    C8    S    
C35   H15   S    
C16   H33   S    
C34   O6    A    
C5    Cl4   S    
C4    C52   S    
C18   C24   A    
C26   H7    S    
C47   H25   S    
C36   C37   A    
Cu2   O2    S    
C6    C12   S    
C38   C39   A    
C3    C54   S    
C19   H2    S    
C15   C16   A    
C10   H23   S    
C18   C19   A    
C21   H4    S    
C11   C52   S    
C36   H16   S    
C18   C53   S    
C15   H32   S    
C3    Cl1   S    
C11   C17   A    
C28   H9    S    
C44   C46   A    
C16   C17   A    
C27   H8    S    
Cu2   O7    S    
C9    C10   S    
C9    N1    D    
C12   O2    A    
C24   H6    S    
Cu1   Cu2   S    
C13   C14   A    
C4    Cl2   S    
Cu1   O4    S    
C6    Cl3   S    
C42   H21   S    
Cu2   O6    S    
C52   C54   S    
C2    C45   S    
C23   O7    A    
C7    C31   S    
C4    C51   S    
Cu1   O5    S    
C39   H18   S    
C9    H29   S    
C32   H13   S    
C5    C7    D    
C6    C8    D    
C45   C52   S    
C25   C26   A    
C37   H17   S    
C3    C45   S    
C34   O8    A    
C31   C37   A    
C51   C53   S    
C2    C4    S    
C22   H5    S    
C29   C30   A    
C47   C48   A    
C10   N2    D    
C26   C27   A    
C40   H19   S    
C46   H24   S    
C40   C41   A    
C34   C54   S    
Cu1   O1    S    
C22   C24   A    
C42   C43   A    
Cu1   O8    S    
C1    O1    A    
C1    C5    S    
C29   H10   S    
C44   C50   A    
C25   C30   A    
C46   C47   A    
C28   C29   A    
C31   C32   A    
C2    C53   S    
C50   H28   S    
C51   H12   S    
C51   C54   S    
C32   C33   A    
C19   C20   A    
C38   C43   A    
C44   N1    S    
C3    C53   S    
C23   O5    A    
C20   H3    S    
C48   C49   A    
C45   H1    S    
C33   C35   A    
C48   H26   S    
C14   H31   S    
C12   O4    A    
C39   C40   A    
Cu2   N1    S    
C33   H14   S    
C20   C21   A    
C49   C50   A    
Cu1   N2    S    
C38   N2    S    
C2    C23   S    
C43   H22   S    
C14   C15   A    
C17   H34   S    
C21   C22   A    
C27   C28   A    
