data_mof_unit_41032.cif
_audit_creation_date              2013-03-05T16:43:31-0500
_audit_creation_method            fapswitch 2.2
_symmetry_space_group_name_H-M    P1
_symmetry_Int_Tables_number       1
_space_group_crystal_system       triclinic
_cell_length_a                    10.526591
_cell_length_b                    10.724993
_cell_length_c                    9.997561
_cell_angle_alpha                 89.706251
_cell_angle_beta                  91.668073
_cell_angle_gamma                 90.467238
_cell_volume                      1128.1714755

loop_
_atom_site_label
_atom_site_type_symbol
_atom_site_description
_atom_site_fract_x
_atom_site_fract_y
_atom_site_fract_z
_atom_type_partial_charge
O1    O     O_R   0.500020 0.316790 0.614690 -0.620617
O2    O     O_R   0.500000 0.316760 0.385350 -0.628490
C1    C     C_R   0.498312 0.260793 0.500092 0.944788
O3    O     O_R   0.313960 0.499990 0.614650 -0.622216
O4    O     O_R   0.313940 0.499950 0.385310 -0.631523
C2    C     C_R   0.258008 0.498603 0.498139 0.882390
Zn1   Zn    Zn3+2 0.500010 0.500020 0.653130 1.036939
Zn2   Zn    Zn3+2 0.499990 0.499980 0.346870 1.014275
O5    O     O_R   0.500000 0.683240 0.614650 -0.575322
O6    O     O_R   0.499980 0.683210 0.385310 -0.580952
O7    O     O_R   0.686060 0.500050 0.614690 -0.567308
O8    O     O_R   0.686040 0.500010 0.385350 -0.580521
C3    C     C_R   0.504371 0.739390 0.499441 0.922125
C4    C     C_R   0.742507 0.501303 0.501911 0.943288
C5    C     C_3   0.048592 0.608931 0.544595 -0.178871
C6    C     C_3   0.968544 0.517489 0.627651 -0.076403
H1    H     H_    0.950580 0.535163 0.733582 0.249830
H2    H     H_    0.091270 0.698175 0.580401 0.181962
C7    C     C_3   0.878198 0.501775 0.505425 -0.087594
C8    C     C_3   0.956709 0.593271 0.422424 -0.160080
C9    C     C_3   0.034706 0.482012 0.371760 -0.130155
C10   C     C_3   0.955614 0.393114 0.456807 0.355196
C11   C     C_3   0.046312 0.406040 0.578287 -0.260107
C12   C     C_3   0.123387 0.497819 0.494913 -0.092424
H3    H     H_    0.918525 0.672381 0.362359 0.198182
H4    H     H_    0.061651 0.466543 0.267194 0.188090
H5    H     H_    0.085907 0.328341 0.639921 0.179719
C13   C     C_R   0.457598 0.061500 0.610362 -0.017761
C14   C     C_R   0.491219 0.129063 0.497653 -0.102860
C15   C     C_R   0.517312 0.067200 0.378539 -0.260076
H6    H     H_    0.538009 0.117822 0.287506 0.193498
C16   C     C_R   0.528238 0.938775 0.378163 0.496590
C17   C     C_R   0.504907 0.871881 0.496994 -0.201138
C18   C     C_R   0.469972 0.935420 0.610949 0.002109
C19   C     C_3   0.514327 0.931227 0.755292 0.739297
C20   C     C_3   0.495449 0.072760 0.755275 -0.545265
H7    H     H_    0.414620 0.103141 0.815934 0.193271
H8    H     H_    0.584531 0.127846 0.771348 0.240607
C21   C     C_R   0.388661 0.496424 0.067363 0.116656
N1    N     N_R   0.499140 0.499140 0.142800 -0.184683
C22   C     C_R   0.609816 0.510286 0.073578 0.247580
C23   C     C_R   0.609208 0.511432 0.931772 0.258928
N2    N     N_R   0.499140 0.499180 0.857150 -0.183971
C24   C     C_R   0.388736 0.496646 0.925602 0.168484
C25   C     C_3   0.290567 0.396215 0.916663 -0.443069
C26   C     C_3   0.291178 0.394692 0.068397 -0.431431
H9    H     H_    0.199712 0.430103 0.870719 0.223736
H10   H     H_    0.327046 0.309042 0.872715 0.200645
H11   H     H_    0.200105 0.426534 0.108296 0.218051
H12   H     H_    0.328338 0.306649 0.113262 0.209361
N3    N     N_R   0.648709 0.895671 0.777357 0.211501
O9    O     O_R   0.711532 0.840173 0.684938 -0.377798
O10   O     O_R   0.710979 0.934280 0.883849 -0.385170
N4    N     N_R   0.730299 0.511626 0.141493 0.250465
O11   O     O_R   0.794794 0.615363 0.147708 -0.414906
O12   O     O_R   0.789862 0.406757 0.158440 -0.321294
N5    N     N_R   0.727522 0.518842 0.868311 0.239520
O13   O     O_R   0.781660 0.627545 0.856011 -0.330223
O14   O     O_R   0.795247 0.418298 0.860768 -0.373147
N6    N     N_R   0.902374 0.273825 0.412884 0.219518
O15   O     O_R   0.937616 0.224682 0.301411 -0.348728
O16   O     O_R   0.829370 0.210386 0.491434 -0.397211
O17   O     O_3   0.564465 0.880371 0.262576 -0.642782
C27   C     C_3   0.697750 0.890076 0.254501 -0.159265
H13   H     H_    0.746011 0.838963 0.338507 0.166808
H14   H     H_    0.730586 0.988980 0.252308 0.197763
H15   H     H_    0.726435 0.847244 0.159554 0.240866
O18   O     O_3   0.426422 0.861627 0.831295 -0.639020
C28   C     C_3   0.456521 0.866757 0.969453 -0.149605
H16   H     H_    0.481406 0.962686 0.003717 0.175055
H17   H     H_    0.534384 0.800807 0.995198 0.205819
H18   H     H_    0.372034 0.835851 0.024917 0.189073

loop_
_geom_bond_atom_site_label_1
_geom_bond_atom_site_label_2
_geom_bond_distance
_ccdc_geom_bond_type
C5    H2    1.110518 S    
C9    H4    1.104829 S    
N1    C22   1.376361 A    
C22   C23   1.417528 A    
C7    C8    1.533911 S    
C25   C26   1.516807 S    
Zn1   O7    2.006765 S    
C26   H11   1.106268 S    
C20   H7    1.111066 S    
C10   N6    1.457202 S    
O4    C2    1.287496 A    
O7    C4    1.289670 A    
N5    O14   1.301247 A    
C8    H3    1.108306 S    
C5    C6    1.542792 S    
N6    O16   1.300513 A    
C18   C19   1.504306 S    
C1    C14   1.414470 S    
O5    C3    1.298823 A    
C19   C20   1.532495 S    
O18   C28   1.409346 S    
C11   C12   1.529664 S    
C11   H5    1.110538 S    
C13   C18   1.359493 A    
C9    C10   1.531373 S    
O3    Zn1   1.984878 S    
C23   N5    1.415580 S    
C25   H9    1.111821 S    
C5    C8    1.544739 S    
N4    O12   1.300072 A    
C28   H17   1.110697 S    
N3    O9    1.301135 A    
C27   H15   1.107557 S    
C7    C10   1.517519 S    
O3    C2    1.289977 A    
C21   N1    1.367753 A    
C6    H1    1.098901 S    
N6    O15   1.300276 A    
O1    C1    1.295883 A    
C27   H14   1.113260 S    
C28   H18   1.109197 S    
N2    C24   1.365776 A    
C3    C17   1.421015 S    
C14   C15   1.401386 A    
Zn2   O8    1.984879 S    
C2    C12   1.416485 S    
C17   C18   1.390685 A    
C21   C26   1.491913 S    
C5    C12   1.526703 S    
O8    C4    1.292754 A    
C6    C11   1.545303 S    
Zn1   N2    2.039964 S    
C19   N3    1.478142 S    
C23   N2    1.365461 A    
C24   C25   1.487792 S    
C25   H10   1.111067 S    
Zn1   O5    2.000400 S    
N4    O11   1.299438 A    
C13   C14   1.389492 A    
O1    Zn1   2.004300 S    
C4    C7    1.427742 S    
O2    Zn2   2.000400 S    
C16   O17   1.382078 S    
O6    C3    1.292544 A    
O4    Zn2   2.006765 S    
C21   C24   1.417274 A    
C26   H12   1.112339 S    
C16   C17   1.411312 A    
C20   H8    1.112371 S    
O2    C1    1.292475 A    
C27   H13   1.113079 S    
C15   C16   1.383111 A    
N5    O13   1.300330 A    
C15   H6    1.084008 S    
C19   O18   1.419392 S    
C6    C7    1.535542 S    
C28   H16   1.112863 S    
C22   N4    1.421065 S    
O17   C27   1.410661 S    
C8    C9    1.549481 S    
C13   C20   1.496569 S    
Zn2   O6    2.004300 S    
C9    C12   1.532563 S    
C10   C11   1.528993 S    
Zn2   N1    2.040027 S    
N3    O10   1.301571 A    
