data_mof_unit_7723.cif
_audit_creation_date              2012-12-11T14:07:45-0500
_audit_creation_method            fapswitch 2.2
_symmetry_space_group_name_H-M    P1
_symmetry_Int_Tables_number       1
_space_group_crystal_system       triclinic
_cell_length_a                    19.819804
_cell_length_b                    16.971686
_cell_length_c                    15.557798
_cell_angle_alpha                 90.199865
_cell_angle_beta                  53.011615
_cell_angle_gamma                 90.06327
_cell_volume                      4180.07850768

loop_
_atom_site_label
_atom_site_type_symbol
_atom_type_description
_atom_site_fract_x
_atom_site_fract_y
_atom_site_fract_z
_atom_type_partial_charge
C1    C     C_R   0.381275 0.199437 0.987441 0.532946
C2    C     C_R   0.711395 0.854622 0.979600 0.068632
C3    C     C_2   0.329123 0.555641 0.461730 0.352895
C4    C     C_2   0.780517 0.853448 0.558669 0.500809
C5    C     C_2   0.871635 0.141153 0.576194 0.554265
C6    C     C_2   0.267395 0.364234 0.552709 0.627362
C7    C     C_2   0.368945 0.654868 0.592287 0.581057
C8    C     C_2   0.563202 0.725414 0.856574 0.389865
C9    C     C_2   0.664711 0.251083 0.805817 0.362760
C10   C     C_2   0.057340 0.226188 0.860876 0.352708
C11   C     C_2   0.163567 0.752023 0.805470 0.368317
C12   C     C_R   0.150576 0.683479 0.072773 0.172447
C13   C     C_R   0.211600 0.354742 0.979137 0.071434
C14   C     C_R   0.602083 0.812490 0.702523 -0.023027
C15   C     C_R   0.686543 0.142602 0.674431 -0.088725
C16   C     C_R   0.096075 0.311284 0.705606 -0.021844
C17   C     C_R   0.188541 0.641322 0.674903 -0.091472
C18   C     C_3   0.204278 0.125050 0.523858 -0.414820
C19   C     C_3   0.266696 0.804831 0.467202 -0.416756
C20   C     C_3   0.698102 0.624550 0.521546 -0.409895
C21   C     C_R   0.335085 0.831973 0.057718 0.467030
C22   C     C_3   0.765907 0.306991 0.467161 -0.406360
C23   C     C_3   0.135825 0.171072 0.627997 -0.251489
C24   C     C_3   0.204034 0.755798 0.567353 -0.200037
C25   C     C_3   0.632662 0.672990 0.624886 -0.251311
C26   C     C_3   0.705245 0.261753 0.571730 -0.189822
C27   C     C_3   0.298771 0.246351 0.436572 -0.319053
C28   C     C_3   0.396107 0.748925 0.448725 -0.259437
C29   C     C_3   0.804069 0.737863 0.439155 -0.232090
C30   C     C_3   0.894851 0.248214 0.448031 -0.277485
C31   C     C_3   0.681349 0.727816 0.423867 -0.520715
C32   C     C_R   0.880837 0.699347 0.988084 0.527262
C33   C     C_3   0.834472 0.181335 0.364881 -0.385230
C34   C     C_3   0.174650 0.218699 0.428504 -0.550385
C35   C     C_3   0.338527 0.679525 0.364340 -0.376546
C36   C     C_3   0.247859 0.181280 0.425441 0.239648
C37   C     C_3   0.353539 0.762356 0.392036 0.159647
C38   C     C_3   0.749089 0.681095 0.423952 0.181807
C39   C     C_3   0.851809 0.263216 0.392312 0.157557
C40   C     C_3   0.653235 0.764395 0.601498 0.084621
C41   C     C_3   0.748282 0.182938 0.569393 0.084486
C42   C     C_3   0.147564 0.263042 0.603918 0.071721
C43   C     C_R   0.835122 0.331908 0.057674 0.466098
C44   C     C_3   0.250549 0.681543 0.569330 0.084215
C45   C     C_3   0.749250 0.772711 0.553811 -0.394654
C46   C     C_3   0.830479 0.207175 0.557773 -0.411388
C47   C     C_3   0.243419 0.279760 0.551346 -0.407515
C48   C     C_3   0.329229 0.713472 0.561701 -0.434965
C49   C     C_R   0.413285 0.798916 0.200555 0.586885
C50   C     C_R   0.351036 0.173619 0.221078 0.471308
C51   C     C_R   0.913363 0.299003 0.200500 0.584566
C52   C     C_R   0.851858 0.674316 0.220058 0.466106
C53   C     C_3   0.637562 0.789548 0.516211 0.409187
C54   C     C_R   0.669180 0.917710 0.050322 -0.059903
C55   C     C_3   0.772473 0.132559 0.467541 0.357631
C56   C     C_3   0.125364 0.279804 0.522280 0.417294
C57   C     C_3   0.281931 0.628275 0.466524 0.380393
C58   C     C_2   0.198393 0.737503 0.088368 -0.154554
C59   C     C_2   0.284263 0.315533 0.959945 -0.114624
C60   C     C_2   0.697956 0.237611 0.089006 -0.162517
C61   C     C_2   0.783917 0.815418 0.960635 -0.110759
C62   C     C_2   0.709555 0.313596 0.057536 -0.145149
C63   C     C_2   0.813974 0.748706 0.902745 -0.145695
C64   C     C_2   0.209672 0.813573 0.057361 -0.148186
C65   C     C_R   0.634634 0.104703 0.103060 -0.109908
C66   C     C_2   0.314145 0.248684 0.902307 -0.131859
C67   C     C_R   0.328842 0.913892 0.953166 -0.168935
C68   C     C_R   0.365656 0.111297 0.897215 -0.228136
C69   C     C_R   0.828829 0.413862 0.953192 -0.169321
C70   C     C_R   0.865576 0.611325 0.897343 -0.231338
C71   C     C_R   0.356694 0.076935 0.313358 -0.234284
C72   C     C_R   0.413414 0.891668 0.298862 -0.220552
C73   C     C_R   0.854976 0.575511 0.311999 -0.223782
C74   C     C_R   0.914006 0.391641 0.298438 -0.230155
C75   C     C_R   0.349889 0.188675 0.930268 0.048698
C76   C     C_R   0.169289 0.417733 0.050101 -0.071701
C77   C     C_R   0.283939 0.855929 0.030684 -0.007770
C78   C     C_R   0.849590 0.688639 0.930746 0.057654
C79   C     C_R   0.783939 0.355863 0.030693 -0.006404
C80   C     C_R   0.403920 0.812020 0.294548 -0.002633
C81   C     C_R   0.307463 0.138924 0.322462 -0.021504
C82   C     C_R   0.903665 0.312184 0.294577 -0.008360
C83   C     C_R   0.806659 0.638486 0.320951 -0.022044
C84   C     C_R   0.619614 0.200637 0.017077 -0.139201
C85   C     C_R   0.662101 0.824001 0.951740 -0.086376
C86   C     C_R   0.120052 0.700576 0.016447 -0.140144
C87   C     C_R   0.134805 0.604691 0.102828 -0.097099
C88   C     C_R   0.162291 0.324224 0.951218 -0.049145
C89   C     C_R   0.596426 0.799044 0.794952 -0.048940
C90   C     C_R   0.646931 0.175243 0.777752 0.051108
C91   C     C_R   0.092873 0.298544 0.796667 0.012376
C92   C     C_R   0.147157 0.675159 0.777941 0.059186
C93   C     C_R   0.638965 0.078367 0.685211 -0.106006
C94   C     C_R   0.585780 0.891448 0.702326 -0.176479
C95   C     C_R   0.141187 0.576672 0.685986 -0.084462
C96   C     C_R   0.082898 0.390907 0.704161 -0.168702
C97   C     C_2   0.541183 0.653533 0.674253 0.731391
C98   C     C_R   0.650161 0.183553 0.073365 0.170789
C99   C     C_2   0.616933 0.251723 0.601782 0.746530
C100  C     C_2   0.046163 0.142656 0.679964 0.736256
C101  C     C_2   0.122242 0.737251 0.582623 0.744772
C102  C     C_2   0.381921 0.218024 0.410369 0.628926
C103  C     C_2   0.435837 0.821858 0.456773 0.522827
C104  C     C_2   0.882094 0.700318 0.418640 0.647513
C105  C     C_2   0.929730 0.321841 0.463090 0.548638
C106  C     C_2   0.673065 0.870486 0.465443 0.439540
C107  C     C_2   0.811688 0.053279 0.459827 0.412349
C108  C     C_2   0.149572 0.361350 0.470692 0.472826
H1    H     H_    0.178609 0.072648 0.509451 0.213468
H2    H     H_    0.811349 0.251288 0.621033 0.157074
H3    H     H_    0.257899 0.246819 0.600554 0.189395
H4    H     H_    0.306423 0.762803 0.619541 0.159830
H5    H     H_    0.705250 0.756587 0.346868 0.225905
H6    H     H_    0.895717 0.150064 0.308955 0.211020
H7    H     H_    0.196229 0.245825 0.351176 0.217157
H8    H     H_    0.400502 0.650693 0.304572 0.219171
H9    H     H_    0.633898 0.685325 0.434699 0.213459
H10   H     H_    0.806604 0.188940 0.321073 0.232818
H11   H     H_    0.131527 0.170788 0.439810 0.211332
H12   H     H_    0.241670 0.819492 0.421541 0.211468
H13   H     H_    0.307065 0.686135 0.324812 0.236986
H14   H     H_    0.314342 0.293994 0.378512 0.184541
H15   H     H_    0.448455 0.705716 0.398989 0.154020
H16   H     H_    0.826519 0.785745 0.379164 0.208952
H17   H     H_    0.949735 0.208354 0.394070 0.152482
H18   H     H_    0.237032 0.708130 0.105913 0.176522
H19   H     H_    0.299674 0.333222 0.013139 0.204779
H20   H     H_    0.736392 0.208247 0.106872 0.177330
H21   H     H_    0.799008 0.832990 0.014176 0.207454
H22   H     H_    0.673165 0.340891 0.034625 0.154965
H23   H     H_    0.668535 0.577190 0.504988 0.216421
H24   H     H_    0.798620 0.731326 0.849259 0.137313
H25   H     H_    0.173094 0.840915 0.034762 0.154065
H26   H     H_    0.298490 0.231126 0.849186 0.141836
H27   H     H_    0.309183 0.946432 0.912041 0.142547
H28   H     H_    0.360959 0.084785 0.837664 0.147986
H29   H     H_    0.809132 0.446428 0.912127 0.143839
H30   H     H_    0.860961 0.584911 0.837673 0.148121
H31   H     H_    0.345833 0.039861 0.376658 0.122387
H32   H     H_    0.413764 0.924475 0.358048 0.140109
H33   H     H_    0.842797 0.537767 0.375495 0.119295
H34   H     H_    0.739182 0.316761 0.422415 0.217032
H35   H     H_    0.915045 0.424400 0.357136 0.141671
H36   H     H_    0.606703 0.258437 0.002068 0.139805
H37   H     H_    0.676008 0.774996 0.899844 0.163818
H38   H     H_    0.107584 0.758362 0.000821 0.135382
H39   H     H_    0.176434 0.275607 0.898581 0.163761
H40   H     H_    0.648064 0.039004 0.624698 0.152652
H41   H     H_    0.571415 0.920401 0.653783 0.180785
H42   H     H_    0.152906 0.534965 0.626302 0.154348
H43   H     H_    0.070010 0.420953 0.654998 0.166700
H44   H     H_    0.689385 0.950804 0.090543 0.116493
H45   H     H_    0.149385 0.156483 0.685302 0.145210
H46   H     H_    0.641466 0.076893 0.159858 0.118633
H47   H     H_    0.189543 0.450802 0.090284 0.115140
H48   H     H_    0.141614 0.576946 0.159681 0.117808
H49   H     H_    0.251617 0.101880 0.533871 0.136969
H50   H     H_    0.275380 0.862452 0.493909 0.142680
H51   H     H_    0.741185 0.594067 0.534027 0.137409
H52   H     H_    0.775198 0.366795 0.488167 0.136894
H53   H     H_    0.461949 0.257751 0.992041 0.336196
H54   H     H_    0.250230 0.795007 0.200982 0.332924
H55   H     H_    0.961282 0.757854 0.992806 0.337878
H56   H     H_    0.183839 0.795060 0.635940 0.120342
H57   H     H_    0.750420 0.295092 0.201039 0.330053
H58   H     H_    0.491079 0.682422 0.748342 -0.002224
H59   H     H_    0.565599 0.233904 0.682975 -0.001064
H60   H     H_    0.993767 0.171602 0.752021 -0.001759
H61   H     H_    0.067785 0.717603 0.660810 -0.012078
H62   H     H_    0.382796 0.171590 0.457464 0.002792
H63   H     H_    0.397547 0.865066 0.519962 0.027723
H64   H     H_    0.875909 0.652251 0.468755 -0.019315
H65   H     H_    0.887576 0.364488 0.525072 0.024912
H66   H     H_    0.539965 0.791204 0.513369 0.369079
H67   H     H_    0.642715 0.652999 0.683729 0.145198
H68   H     H_    0.714755 0.085160 0.411737 0.363978
H69   H     H_    0.025275 0.263054 0.526232 0.360393
H70   H     H_    0.234024 0.567777 0.406549 0.353011
H71   H     H_    0.737503 0.886313 0.430661 0.076019
H72   H     H_    0.803898 0.028400 0.529289 0.032292
H73   H     H_    0.214905 0.379187 0.416621 0.005653
H74   H     H_    0.317115 0.532689 0.534623 0.066507
H75   H     H_    0.456210 0.737759 0.073358 0.338779
H76   H     H_    0.395806 0.275294 0.164107 0.338253
H77   H     H_    0.955880 0.237614 0.073751 0.342939
H78   H     H_    0.695652 0.301107 0.635029 0.112905
H79   H     H_    0.902159 0.774811 0.163104 0.337672
H80   H     H_    0.745488 0.887603 0.632358 0.036754
H81   H     H_    0.913426 0.099539 0.512471 0.038102
H82   H     H_    0.257189 0.410221 0.514075 -0.007838
H83   H     H_    0.414143 0.611621 0.534647 0.051060
H84   H     H_    0.497428 0.710244 0.896830 0.031027
H85   H     H_    0.723570 0.260382 0.794743 0.065883
H86   H     H_    0.992103 0.210917 0.897782 0.035201
H87   H     H_    0.222212 0.762862 0.794361 0.077445
H88   H     H_    0.757834 0.736201 0.606073 0.150248
N1    N     N_R   0.408680 0.130160 0.995800 -0.120996
N2    N     N_R   0.403730 0.078230 0.935950 -0.067006
N3    N     N_R   0.903730 0.421770 0.935950 -0.066379
N4    N     N_R   0.903730 0.578230 0.935950 -0.067527
N5    N     N_R   0.426630 0.075970 0.212960 -0.049057
N6    N     N_R   0.426630 0.924030 0.212960 -0.068615
N7    N     N_R   0.926630 0.575970 0.212960 -0.048086
N8    N     N_R   0.926630 0.424030 0.212960 -0.068104
N9    N     N_R   0.591320 0.134600 0.004200 -0.060185
N10   N     N_R   0.591320 0.865400 0.004200 -0.061486
N11   N     N_R   0.091320 0.634600 0.004200 -0.059481
N12   N     N_R   0.408680 0.869840 0.995800 -0.099396
N13   N     N_R   0.091320 0.365400 0.004200 -0.064484
N14   N     N_R   0.578320 0.867660 0.846880 -0.071724
N15   N     N_R   0.578320 0.132340 0.846880 -0.066369
N16   N     N_R   0.078320 0.367660 0.846880 -0.062457
N17   N     N_R   0.078320 0.632340 0.846880 -0.067393
N18   N     N_R   0.573370 0.074390 0.787040 -0.052325
N19   N     N_R   0.573370 0.925610 0.787040 -0.055397
N20   N     N_R   0.073370 0.574390 0.787040 -0.056099
N21   N     N_R   0.073370 0.425610 0.787040 -0.046919
N22   N     N_R   0.596270 0.927870 0.064040 -0.047622
N23   N     N_R   0.908680 0.630160 0.995800 -0.122207
N24   N     N_R   0.596270 0.072130 0.064040 -0.046472
N25   N     N_R   0.096270 0.427870 0.064040 -0.048921
N26   N     N_R   0.096270 0.572130 0.064040 -0.046115
N27   N     N_R   0.908680 0.369840 0.995800 -0.103430
N28   N     N_R   0.421680 0.867580 0.153120 -0.096423
N29   N     N_R   0.421680 0.132420 0.153120 -0.105240
N30   N     N_R   0.921680 0.367580 0.153120 -0.096575
N31   N     N_R   0.921680 0.632420 0.153120 -0.106459
N32   N     N_R   0.403730 0.921770 0.935950 -0.063217
Ni1   Ni    Ni4+2 0.500000 0.131190 0.000000 0.236844
Ni2   Ni    Ni4+2 0.500000 0.868810 0.000000 0.239244
Ni3   Ni    Ni4+2 0.000000 0.631190 0.000000 0.238377
Ni4   Ni    Ni4+2 0.000000 0.368810 0.000000 0.247423
Ni5   Ni    Ni4+2 0.488650 0.000000 0.862740 0.216792
Ni6   Ni    Ni4+2 0.988650 0.500000 0.862740 0.220287
Ni7   Ni    Ni4+2 0.511350 0.000000 0.137260 0.235976
Ni8   Ni    Ni4+2 0.011350 0.500000 0.137260 0.238653
O1    O     O_3   0.415243 0.270004 0.987758 -0.730772
O2    O     O_2   0.511147 0.834505 0.389189 -0.570835
O3    O     O_2   0.952517 0.723829 0.345686 -0.548919
O4    O     O_2   0.005479 0.335186 0.403414 -0.559505
O5    O     O_3   0.549602 0.789685 0.568707 -0.738232
O6    O     O_3   0.699288 0.118560 0.473820 -0.739538
O7    O     O_3   0.037379 0.270235 0.578931 -0.728580
O8    O     O_3   0.212724 0.602856 0.469414 -0.754486
O9    O     O_2   0.630073 0.918372 0.459429 -0.531480
O10   O     O_2   0.847595 0.013989 0.377386 -0.524487
O11   O     O_2   0.096320 0.406118 0.482446 -0.518281
O12   O     O_3   0.311350 0.785960 0.143955 -0.794823
O13   O     O_2   0.375986 0.518520 0.378140 -0.553665
O14   O     O_3   0.439131 0.728002 0.146542 -0.743092
O15   O     O_3   0.339626 0.249920 0.203587 -0.771029
O16   O     O_3   0.939820 0.228127 0.146446 -0.739664
O17   O     O_3   0.844617 0.752202 0.203488 -0.766071
O18   O     O_2   0.848888 0.878712 0.482819 -0.515385
O19   O     O_2   0.859841 0.135040 0.662483 -0.544899
O20   O     O_2   0.298023 0.381502 0.598831 -0.561730
O21   O     O_2   0.352143 0.656835 0.681725 -0.554630
O22   O     O_2   0.608723 0.680475 0.861545 -0.584826
O23   O     O_3   0.914123 0.770022 0.989423 -0.724809
O24   O     O_2   0.612653 0.304102 0.843183 -0.582209
O25   O     O_2   0.100198 0.182641 0.872468 -0.577452
O26   O     O_2   0.110513 0.804118 0.842726 -0.579647
O27   O     O_3   0.811470 0.285848 0.143835 -0.798446
O28   O     O_2   0.521956 0.606501 0.632755 -0.561990
O29   O     O_2   0.601537 0.263645 0.537801 -0.552346
O30   O     O_2   0.030757 0.088505 0.642337 -0.559932
O31   O     O_2   0.115683 0.743835 0.509770 -0.553887
O32   O     O_2   0.448600 0.247131 0.336074 -0.562650

loop_
_geom_bond_atom_site_label_1
_geom_bond_atom_site_label_2
_ccdc_geom_bond_type
C33   C55   S    
C104  O3    D    
N31   Ni3   S    
C74   H35   S    
C18   C36   S    
N9    N24   A    
C34   C56   S    
C55   O6    S    
C107  H72   S    
N10   Ni2   S    
C100  O30   D    
N20   Ni6   S    
C64   C77   S    
C62   H22   S    
C107  O10   D    
N9    Ni1   S    
N19   Ni5   S    
C18   H1    S    
C4    O18   D    
C28   C48   S    
N7    N31   A    
C28   H15   S    
C73   H33   S    
N10   N22   A    
C68   C75   A    
N5    N29   A    
C73   N7    A    
C108  O11   D    
N26   Ni8   S    
C94   N19   A    
C33   C39   S    
C23   C42   S    
C22   H52   S    
C108  H73   S    
C93   H40   S    
C38   C83   S    
C28   C37   S    
C21   N12   A    
C60   C62   D    
C10   O25   D    
C35   C37   S    
N4    Ni6   S    
N22   Ni7   S    
C57   O8    S    
C60   C98   S    
N25   Ni8   S    
C10   H86   S    
C25   C40   S    
C90   N15   A    
N16   Ni4   S    
C9    H85   S    
N5    Ni7   S    
C70   C78   A    
C20   C25   S    
C22   C39   S    
C59   H19   S    
C97   H58   S    
C29   H16   S    
H55   O23   S    
N13   N25   A    
C2    C85   A    
C68   N2    A    
C24   C101  S    
C11   O26   D    
C61   C63   D    
C56   C108  S    
C22   C26   S    
N24   Ni7   S    
C97   O28   D    
C42   C56   S    
N6    Ni7   S    
C66   H26   S    
C84   N9    A    
C88   H39   S    
C41   C55   S    
C20   H51   S    
C67   C77   A    
C29   C38   S    
C41   C46   S    
H57   O27   S    
C101  H61   S    
C17   C95   A    
H79   O17   S    
C19   C37   S    
C11   C92   S    
H70   O8    S    
H66   O5    S    
C2    C61   S    
C61   H21   S    
C26   C99   S    
C104  H64   S    
C12   C58   S    
C45   H88   S    
C21   C77   A    
C23   C100  S    
C101  O31   D    
C30   H17   S    
C33   H10   S    
C105  H65   S    
C103  H63   S    
C95   N20   A    
C7    H83   S    
C24   H56   S    
C17   C92   A    
C47   H3    S    
C74   C82   A    
C86   H38   S    
C27   H14   S    
C85   N10   A    
C54   N22   A    
C21   O12   S    
C99   H59   S    
C4    C45   S    
C69   H29   S    
C40   C45   S    
C37   C80   S    
C16   C96   A    
C6    C47   S    
C18   C23   S    
C1    C75   A    
C87   N26   A    
N6    N28   A    
C62   C79   S    
C35   H13   S    
C15   C41   S    
C2    C54   A    
N3    Ni6   S    
C49   N28   A    
C11   H87   S    
C71   H31   S    
C58   C64   D    
C1    O1    S    
C34   H7    S    
C96   H43   S    
C14   C40   S    
N29   Ni1   S    
C53   O5    S    
C29   C104  S    
C29   C45   S    
C94   H41   S    
N13   Ni4   S    
C86   N11   A    
C52   C83   A    
C67   H27   S    
C52   O17   S    
H76   O15   S    
C14   C89   A    
C31   H9    S    
C65   H46   S    
N28   Ni2   S    
C65   N24   A    
C20   C38   S    
C25   H67   S    
C52   N31   A    
C51   C82   A    
C13   C76   A    
C60   H20   S    
C36   C81   S    
C6    H82   S    
C51   N30   A    
C33   H6    S    
C6    O20   D    
C35   H8    S    
C95   H42   S    
C26   C41   S    
C63   H24   S    
C31   C53   S    
C68   H28   S    
C51   O16   S    
C53   C106  S    
N32   Ni5   S    
N21   Ni6   S    
N11   N26   A    
C49   O14   S    
C3    C57   S    
C25   C97   S    
C48   H4    S    
C56   O7    S    
C19   H12   S    
C70   H30   S    
C5    O19   D    
C88   N13   A    
C23   H45   S    
C30   C105  S    
C27   C102  S    
C24   C44   S    
C7    O21   D    
N18   Ni5   S    
N3    N27   A    
C10   C91   S    
C20   H23   S    
N8    N30   A    
C15   C93   A    
C16   C42   S    
C106  H71   S    
N27   Ni4   S    
H68   O6    S    
N17   N20   A    
C27   C47   S    
C34   H11   S    
C71   N5    A    
C64   H25   S    
C99   O29   D    
C70   N4    A    
N15   Ni1   S    
C12   C87   A    
H69   O7    S    
C93   N18   A    
C19   H50   S    
C30   C46   S    
C32   O23   S    
C1    N1    A    
C3    O13   D    
C39   C82   S    
N23   Ni3   S    
C91   N16   A    
N2    Ni5   S    
N17   Ni3   S    
C9    C90   S    
C65   C98   A    
C92   N17   A    
C54   H44   S    
C22   H34   S    
C31   C38   S    
C58   H18   S    
C89   N14   A    
C13   C59   S    
N1    Ni1   S    
C76   N25   A    
C5    C46   S    
H54   O12   S    
C76   H47   S    
C49   C80   A    
C12   C86   A    
C100  H60   S    
C27   C36   S    
C84   C98   A    
C7    C48   S    
C4    H80   S    
C46   H2    S    
C19   C24   S    
C102  H62   S    
H75   O14   S    
C5    H81   S    
N7    Ni8   S    
C72   C80   A    
C18   H49   S    
N12   N32   A    
C15   C90   A    
C43   O27   S    
C26   H78   S    
C28   C103  S    
N11   Ni3   S    
C44   C57   S    
C74   N8    A    
C67   N32   A    
C8    H84   S    
C103  O2    D    
N30   Ni4   S    
C66   C75   S    
C85   H37   S    
C13   C88   A    
C105  O4    D    
C31   H5    S    
C30   C39   S    
C34   C36   S    
C42   C47   S    
C106  O9    D    
C8    O22   D    
N1    N2    A    
C3    H74   S    
N14   Ni2   S    
C32   N23   A    
C69   C79   A    
C50   O15   S    
C32   C78   A    
C44   C48   S    
C72   H32   S    
N15   N18   A    
H53   O1    S    
C72   N6    A    
C16   C91   A    
N8    Ni8   S    
C35   C57   S    
N16   N21   A    
C9    O24   D    
C40   C53   S    
C69   N3    A    
N4    N23   A    
C84   H36   S    
C87   H48   S    
C50   N29   A    
C102  O32   D    
C8    C89   S    
C55   C107  S    
C71   C81   A    
N14   N19   A    
C43   C79   A    
C73   C83   A    
C14   C94   A    
C17   C44   S    
C43   N27   A    
C96   N21   A    
C50   C81   A    
N12   Ni2   S    
C59   C66   D    
H77   O16   S    
C63   C78   S    
