data_mof_unit_38096.cif
_audit_creation_date              2012-12-10T22:11:08-0500
_audit_creation_method            fapswitch 2.2
_symmetry_space_group_name_H-M    P1
_symmetry_Int_Tables_number       1
_space_group_crystal_system       triclinic
_cell_length_a                    12.067444
_cell_length_b                    12.299835
_cell_length_c                    23.18574
_cell_angle_alpha                 90.178654
_cell_angle_beta                  90.747459
_cell_angle_gamma                 91.46152
_cell_volume                      3439.97024881

loop_
_atom_site_label
_atom_site_type_symbol
_atom_type_description
_atom_site_fract_x
_atom_site_fract_y
_atom_site_fract_z
_atom_type_partial_charge
C1    C     C_R   0.654087 0.998229 0.581226 0.847542
C2    C     C_R   0.119641 0.890765 0.836149 0.123592
C3    C     C_R   0.441880 0.850785 0.318630 -0.118212
C4    C     C_R   0.816239 0.181919 0.594209 0.143539
C5    C     C_R   0.797586 0.287505 0.614684 -0.157430
C6    C     C_R   0.797524 0.375415 0.576607 -0.147041
C7    C     C_R   0.815138 0.358529 0.517857 -0.135051
C8    C     C_R   0.834703 0.254016 0.497246 -0.106696
C9    C     C_R   0.837853 0.166249 0.535333 -0.084780
C10   C     C_R   0.911834 0.178316 0.115028 0.044870
C11   C     C_R   0.108581 0.817518 0.883595 0.060646
C12   C     C_R   0.164374 0.915461 0.294101 -0.236316
C13   C     C_R   0.887188 0.089685 0.679764 -0.188828
C14   C     C_R   0.250530 0.917618 0.334292 -0.034376
C15   C     C_R   0.811687 0.088073 0.634492 -0.036261
C16   C     C_R   0.842953 0.111600 0.307401 0.162648
C17   C     C_R   0.130803 0.892836 0.682554 0.133797
C18   C     C_R   0.762542 0.103579 0.349835 -0.273486
C19   C     C_R   0.343598 0.002174 0.420228 0.859320
C20   C     C_R   0.212420 0.895594 0.640271 -0.236734
C21   C     C_3   0.991922 0.003655 0.247190 -0.059917
C22   C     C_3   0.009548 0.001553 0.754377 -0.058675
C23   C     C_R   0.654867 0.002553 0.421169 0.876590
C24   C     C_R   0.344842 0.997216 0.578824 0.871519
C25   C     C_R   0.096106 0.005627 0.286902 0.077248
C26   C     C_R   0.904434 0.998198 0.714835 0.075218
C27   C     C_R   0.260555 0.005236 0.373975 -0.125866
C28   C     C_R   0.736350 0.998553 0.628528 -0.117891
C29   C     C_R   0.897983 0.012574 0.290995 0.095590
C30   C     C_R   0.898011 0.745313 0.161554 0.089061
C31   C     C_R   0.099832 0.993527 0.708641 0.090690
C32   C     C_R   0.739141 0.006070 0.377785 -0.051252
C33   C     C_R   0.259810 0.994323 0.622082 -0.048685
C34   C     C_R   0.986349 0.095006 0.202337 0.027550
C35   C     C_R   0.018853 0.918059 0.804549 0.028367
C36   C     C_R   0.995850 0.261339 0.120854 -0.147254
C37   C     C_R   0.005185 0.762135 0.892498 -0.178613
C38   C     C_R   0.992242 0.900882 0.208784 0.086474
C39   C     C_R   0.009421 0.108618 0.788463 0.112153
C40   C     C_R   0.988167 0.740161 0.122653 -0.068219
C41   C     C_R   0.108725 0.254931 0.840227 0.085723
C42   C     C_R   0.009854 0.275994 0.870180 -0.066771
C43   C     C_R   0.992317 0.659308 0.076781 0.843239
C44   C     C_R   0.007326 0.346884 0.920524 0.874991
C45   C     C_R   0.998478 0.350590 0.080070 0.882018
C46   C     C_R   0.001354 0.657946 0.924728 0.872843
C47   C     C_R   0.114630 0.095432 0.323453 -0.183182
C48   C     C_R   0.830833 0.908390 0.707591 -0.233562
C49   C     C_R   0.190053 0.095508 0.368971 0.072628
C50   C     C_R   0.739840 0.912541 0.669522 0.099441
C51   C     C_R   0.881606 0.919765 0.325963 -0.213014
C52   C     C_R   0.079171 0.893211 0.169125 -0.165750
C53   C     C_R   0.143374 0.091376 0.684903 -0.238526
C54   C     C_R   0.800461 0.914825 0.366865 -0.229591
C55   C     C_R   0.223371 0.091732 0.643835 -0.214272
C56   C     C_R   0.081166 0.162686 0.196540 -0.266631
C57   C     C_R   0.917416 0.889748 0.830700 -0.231773
C58   C     C_R   0.079637 0.255375 0.163516 0.052737
C59   C     C_R   0.907776 0.812782 0.874008 0.060737
C60   C     C_R   0.906109 0.821400 0.206449 -0.226782
C61   C     C_R   0.108257 0.163844 0.804511 -0.211704
C62   C     C_3   0.193700 0.190388 0.412266 -0.366306
C63   C     C_R   0.909340 0.145221 0.811103 -0.176157
C64   C     C_3   0.097312 0.269557 0.409587 -0.417905
C65   C     C_3   0.103410 0.350430 0.459685 -0.867988
C66   C     C_3   0.647170 0.826895 0.676453 -0.407706
C67   C     C_3   0.603918 0.823411 0.738620 -0.366051
C68   C     C_3   0.496244 0.756012 0.742984 -0.905044
C69   C     C_3   0.790583 0.030599 0.162834 -0.392732
C70   C     C_3   0.674968 0.083091 0.162115 -0.372365
C71   C     C_3   0.607991 0.064533 0.216950 -0.902386
C72   C     C_3   0.238558 0.925020 0.818117 -0.411545
C73   C     C_3   0.303504 0.007591 0.857219 -0.363214
C74   C     C_R   0.078509 0.812644 0.127904 -0.240163
C75   C     C_3   0.400415 0.061780 0.825334 -0.917612
C76   C     C_3   0.874669 0.230219 0.292562 -0.460809
C77   C     C_3   0.783243 0.294807 0.262846 -0.335173
C78   C     C_3   0.816767 0.415053 0.258813 -0.919696
C79   C     C_3   0.075499 0.782688 0.693886 -0.428559
C80   C     C_3   0.155846 0.698356 0.717522 -0.359379
C81   C     C_3   0.092650 0.600044 0.741854 -0.888030
C82   C     C_3   0.170177 0.343980 0.171578 -0.364755
C83   C     C_3   0.235383 0.342066 0.229121 -0.392549
C84   C     C_3   0.310237 0.443321 0.236022 -0.878971
C85   C     C_R   0.909919 0.226300 0.852000 -0.242534
C86   C     C_3   0.795609 0.789779 0.902197 -0.368548
C87   C     C_3   0.713923 0.884135 0.900465 -0.391055
C88   C     C_3   0.614777 0.861806 0.939272 -0.895028
C89   C     C_3   0.792717 0.674208 0.153273 -0.384427
C90   C     C_3   0.698457 0.689348 0.196495 -0.403571
C91   C     C_3   0.595632 0.621089 0.179139 -0.890861
C92   C     C_3   0.213916 0.326271 0.845452 -0.394003
C93   C     C_3   0.274795 0.343022 0.787996 -0.383535
C94   C     C_3   0.366306 0.430809 0.793542 -0.896331
C95   C     C_3   0.866463 0.149473 0.054310 -0.361409
C96   C     C_R   0.894898 0.106077 0.161902 0.137543
C97   C     C_3   0.745977 0.181739 0.041865 -0.310891
C98   C     C_3   0.721343 0.201345 0.978118 -0.882807
C99   C     C_3   0.196164 0.814262 0.932042 -0.340542
C100  C     C_3   0.295962 0.742143 0.918823 -0.311667
C101  C     C_3   0.351227 0.702032 0.974166 -0.889667
C102  C     C_R   0.330602 0.828317 0.332458 0.149373
C103  C     C_R   0.296945 0.721546 0.346237 -0.136122
C104  C     C_R   0.374310 0.638857 0.347439 -0.154854
C105  C     C_R   0.485061 0.661828 0.333971 -0.131281
C106  C     C_R   0.518750 0.767707 0.319436 -0.113289
H1    H     H_    0.932362 0.848967 0.321217 0.151486
H2    H     H_    0.937868 0.162523 0.685392 0.140051
H3    H     H_    0.360101 0.787568 0.894470 0.199135
H4    H     H_    0.222006 0.897269 0.945320 0.156107
H5    H     H_    0.156771 0.787176 0.972750 0.208912
H6    H     H_    0.211582 0.703007 0.357223 0.120863
H7    H     H_    0.348455 0.557116 0.359222 0.128565
H8    H     H_    0.544764 0.597631 0.334808 0.124828
H9    H     H_    0.604522 0.785621 0.309219 0.124675
H10   H     H_    0.469105 0.932862 0.308165 0.107032
H11   H     H_    0.781514 0.301372 0.659937 0.125426
H12   H     H_    0.782468 0.456443 0.592547 0.126846
H13   H     H_    0.787793 0.840273 0.390937 0.160040
H14   H     H_    0.813372 0.426367 0.488267 0.119346
H15   H     H_    0.846262 0.240963 0.451654 0.122579
H16   H     H_    0.853330 0.085683 0.518757 0.106396
H17   H     H_    0.255613 0.169444 0.628712 0.166268
H18   H     H_    0.147279 0.810044 0.098352 0.157803
H19   H     H_    0.831551 0.247714 0.870420 0.168160
H20   H     H_    0.719985 0.175958 0.362882 0.163079
H21   H     H_    0.237115 0.820340 0.620375 0.159547
H22   H     H_    0.066815 0.165226 0.317213 0.132400
H23   H     H_    0.839141 0.835751 0.732857 0.137373
H24   H     H_    0.095660 0.307117 0.501478 0.269042
H25   H     H_    0.116167 0.170771 0.697327 0.143142
H26   H     H_    0.183234 0.397423 0.459165 0.255960
H27   H     H_    0.034537 0.408173 0.455614 0.247762
H28   H     H_    0.100296 0.316632 0.368773 0.215632
H29   H     H_    0.017827 0.222650 0.411744 0.228868
H30   H     H_    0.193659 0.155422 0.456464 0.221888
H31   H     H_    0.271377 0.239078 0.405808 0.219834
H32   H     H_    0.429264 0.793729 0.717167 0.261045
H33   H     H_    0.508546 0.671825 0.727279 0.265466
H34   H     H_    0.470136 0.752361 0.788710 0.246030
H35   H     H_    0.666565 0.786948 0.767700 0.220186
H36   H     H_    0.156324 0.146284 0.219720 0.164130
H37   H     H_    0.588526 0.907432 0.753739 0.222446
H38   H     H_    0.574556 0.843432 0.648697 0.235196
H39   H     H_    0.678568 0.745828 0.664470 0.194678
H40   H     H_    0.603698 0.976748 0.228072 0.254624
H41   H     H_    0.644450 0.111117 0.253319 0.274945
H42   H     H_    0.522148 0.092764 0.210018 0.244149
H43   H     H_    0.679787 0.170999 0.152611 0.214950
H44   H     H_    0.623665 0.042223 0.127972 0.210583
H45   H     H_    0.794915 0.972719 0.126115 0.173876
H46   H     H_    0.790000 0.980728 0.201243 0.224069
H47   H     H_    0.843275 0.928385 0.816593 0.147825
H48   H     H_    0.465948 0.001658 0.818154 0.264481
H49   H     H_    0.374194 0.093747 0.782812 0.258786
H50   H     H_    0.436205 0.129849 0.851724 0.252306
H51   H     H_    0.248186 0.069657 0.874773 0.229670
H52   H     H_    0.343431 0.967789 0.894248 0.221929
H53   H     H_    0.288410 0.851307 0.814366 0.176794
H54   H     H_    0.241779 0.956679 0.774596 0.219297
H55   H     H_    0.831557 0.450163 0.302518 0.260221
H56   H     H_    0.893013 0.425744 0.232836 0.264241
H57   H     H_    0.749058 0.459725 0.237657 0.258873
H58   H     H_    0.839192 0.824526 0.236079 0.137259
H59   H     H_    0.770406 0.263954 0.218592 0.245686
H60   H     H_    0.703940 0.287971 0.286367 0.215217
H61   H     H_    0.895853 0.272029 0.333980 0.189274
H62   H     H_    0.948633 0.242451 0.266801 0.218036
H63   H     H_    0.037446 0.625333 0.777191 0.260764
H64   H     H_    0.042401 0.558772 0.707371 0.261587
H65   H     H_    0.152223 0.542012 0.759889 0.257017
H66   H     H_    0.211077 0.670503 0.682793 0.218606
H67   H     H_    0.208387 0.734228 0.752356 0.223873
H68   H     H_    0.007177 0.788144 0.723949 0.217662
H69   H     H_    0.185643 0.137417 0.788188 0.168246
H70   H     H_    0.038005 0.751504 0.652811 0.197861
H71   H     H_    0.366639 0.451738 0.198717 0.263858
H72   H     H_    0.259674 0.517244 0.239408 0.266760
H73   H     H_    0.361536 0.435955 0.275812 0.246059
H74   H     H_    0.177015 0.338002 0.265800 0.223698
H75   H     H_    0.289421 0.270298 0.230532 0.221601
H76   H     H_    0.230476 0.337686 0.135978 0.220006
H77   H     H_    0.130137 0.424347 0.169127 0.208736
H78   H     H_    0.570995 0.785276 0.925736 0.267487
H79   H     H_    0.642281 0.854913 0.984998 0.258865
H80   H     H_    0.147982 0.951493 0.169852 0.147571
H81   H     H_    0.556124 0.929679 0.935751 0.254944
H82   H     H_    0.756880 0.960507 0.915010 0.233463
H83   H     H_    0.681322 0.895462 0.856004 0.213313
H84   H     H_    0.755803 0.716591 0.881748 0.208391
H85   H     H_    0.810670 0.773385 0.948716 0.228679
H86   H     H_    0.562237 0.649072 0.137005 0.260288
H87   H     H_    0.615569 0.533786 0.175524 0.256252
H88   H     H_    0.530431 0.630000 0.211988 0.265649
H89   H     H_    0.726271 0.664860 0.240354 0.223376
H90   H     H_    0.674050 0.775903 0.197329 0.226926
H91   H     H_    0.830107 0.107413 0.799819 0.136910
H92   H     H_    0.756777 0.693635 0.110283 0.228961
H93   H     H_    0.816105 0.587364 0.154077 0.214166
H94   H     H_    0.331452 0.509950 0.806254 0.255572
H95   H     H_    0.428808 0.406780 0.826390 0.263217
H96   H     H_    0.408147 0.441203 0.751471 0.252435
H97   H     H_    0.314119 0.267139 0.774260 0.227232
H98   H     H_    0.215059 0.366211 0.753618 0.224738
H99   H     H_    0.192310 0.409075 0.859733 0.231615
H100  H     H_    0.270976 0.290289 0.877750 0.207005
H101  H     H_    0.767678 0.144702 0.950648 0.254159
H102  H     H_    0.152649 0.842048 0.268874 0.157902
H103  H     H_    0.631337 0.188013 0.969155 0.230478
H104  H     H_    0.741580 0.286665 0.966954 0.288894
H105  H     H_    0.690983 0.112699 0.053095 0.205343
H106  H     H_    0.723980 0.255043 0.066928 0.226305
H107  H     H_    0.921329 0.186128 0.021097 0.207638
H108  H     H_    0.873657 0.060619 0.046943 0.168616
H109  H     H_    0.381200 0.772239 0.000854 0.252621
H110  H     H_    0.292124 0.651485 0.999537 0.285625
H111  H     H_    0.423034 0.651559 0.963219 0.230503
H112  H     H_    0.269619 0.670824 0.892014 0.234669
O1    O     O_R   0.621380 0.090460 0.561410 -0.601779
O2    O     O_R   0.912410 0.372520 0.941210 -0.634228
O3    O     O_R   0.905660 0.383870 0.059980 -0.611343
O4    O     O_R   0.094340 0.616130 0.940020 -0.620708
O5    O     O_R   0.092570 0.390420 0.063230 -0.634256
O6    O     O_R   0.907430 0.609580 0.936770 -0.636550
O7    O     O_R   0.900680 0.620930 0.055550 -0.650365
O8    O     O_R   0.099320 0.379070 0.944450 -0.637808
O9    O     O_R   0.378620 0.909540 0.438590 -0.599775
O10   O     O_R   0.617150 0.909540 0.438590 -0.621518
O11   O     O_R   0.382850 0.090460 0.561410 -0.633216
O12   O     O_R   0.619720 0.093230 0.440890 -0.631264
O13   O     O_R   0.380280 0.906770 0.559110 -0.638505
O14   O     O_R   0.618800 0.906770 0.559110 -0.637660
O15   O     O_R   0.381200 0.093230 0.440890 -0.647378
O16   O     O_R   0.087590 0.627480 0.058790 -0.636745
Zn1   Zn    Zn3+2 0.501730 0.123520 0.501540 0.938105
Zn2   Zn    Zn3+2 0.498270 0.876480 0.498460 0.944378
Zn3   Zn    Zn3+2 0.125690 0.504390 0.002180 0.901019
Zn4   Zn    Zn3+2 0.874310 0.495610 0.997820 0.901114

loop_
_geom_bond_atom_site_label_1
_geom_bond_atom_site_label_2
_ccdc_geom_bond_type
C2    C35   A    
C33   C55   A    
C71   H41   S    
C87   C88   S    
C34   C56   A    
C93   C94   S    
C97   H106  S    
C41   C42   A    
C105  C106  A    
C74   H18   S    
C44   O2    A    
C17   C79   S    
C24   O13   A    
C67   H37   S    
C65   H26   S    
C23   O10   A    
C15   C28   A    
C7    C8    A    
C47   C49   A    
C77   C78   S    
O9    Zn2   S    
C98   H104  S    
C86   H85   S    
C72   H53   S    
C42   C44   S    
C83   H74   S    
C36   C45   S    
C48   H23   S    
C12   H102  S    
C34   C96   A    
C80   H67   S    
C52   C74   A    
C3    H10   S    
C30   C89   S    
C5    C6    A    
C91   H87   S    
C8    H15   S    
C14   C102  S    
C90   H90   S    
C38   C52   A    
C101  H110  S    
C77   H59   S    
C73   H51   S    
O14   Zn2   S    
C17   C20   A    
C46   O6    A    
O6    Zn4   S    
C83   H75   S    
C76   H61   S    
C11   C99   S    
C62   H30   S    
C100  H3    S    
C11   C37   A    
C93   H98   S    
C19   O9    A    
C100  C101  S    
C66   H39   S    
C62   C64   S    
C92   H99   S    
C28   C50   A    
C75   H50   S    
C40   C43   S    
C90   H89   S    
C99   C100  S    
C56   C58   A    
C8    C9    A    
C30   C60   A    
C1    C28   S    
C70   C71   S    
C94   H96   S    
C81   H63   S    
C14   C27   A    
C19   C27   S    
C25   C47   A    
C26   C48   A    
C87   H83   S    
C56   H36   S    
C69   C96   S    
C48   C50   A    
C66   C67   S    
C64   H29   S    
C100  H112  S    
C78   H57   S    
O8    Zn3   S    
C54   H13   S    
C63   C85   A    
O7    Zn4   S    
C73   C75   S    
C79   H68   S    
O2    Zn4   S    
C69   C70   S    
C70   H43   S    
C52   H80   S    
C13   H2    S    
C2    C72   S    
C2    C11   A    
C19   O15   A    
C32   C54   A    
C104  C105  A    
C97   C98   S    
C6    C7    A    
C55   H17   S    
C53   C55   A    
C3    C106  A    
C70   H44   S    
C89   H93   S    
C98   H103  S    
C64   H28   S    
C86   H84   S    
C22   C31   S    
C21   C38   S    
C63   H91   S    
C67   C68   S    
C45   O5    A    
O1    Zn1   S    
C105  H8    S    
C47   H22   S    
C92   H100  S    
C76   C77   S    
C20   H21   S    
C24   O11   A    
O5    Zn3   S    
C89   C90   S    
C42   C85   A    
C91   H88   S    
C86   C87   S    
C72   C73   S    
C21   C34   S    
C16   C29   A    
C99   H4    S    
C57   H47   S    
C73   H52   S    
C41   C61   A    
C104  H7    S    
C5    H11   S    
C61   H69   S    
O16   Zn3   S    
C69   H45   S    
O11   Zn1   S    
C84   H73   S    
C89   H92   S    
C75   H49   S    
C50   C66   S    
C83   C84   S    
C10   C96   A    
C99   H5    S    
C71   H40   S    
C9    H16   S    
C30   C40   A    
O12   Zn1   S    
C1    O1    A    
C94   H95   S    
C37   C59   A    
C81   H64   S    
C31   C53   A    
C68   H32   S    
C84   H72   S    
O15   Zn1   S    
O13   Zn2   S    
C1    O14   A    
C38   C60   A    
C20   C33   A    
C3    C102  A    
C51   H1    S    
C88   H79   S    
C88   H81   S    
C12   C14   A    
C78   H56   S    
C13   C15   A    
C17   C31   A    
C13   C26   A    
C68   H34   S    
C57   C59   A    
C18   C32   A    
C80   H66   S    
C67   H35   S    
C98   H101  S    
C39   C61   A    
C27   C49   A    
C29   C51   A    
C21   C25   S    
C82   H76   S    
C49   C62   S    
C97   H105  S    
C85   H19   S    
C16   C76   S    
C69   H46   S    
C79   H70   S    
C53   H25   S    
C80   C81   S    
C43   O16   A    
C72   H54   S    
C95   C97   S    
C87   H82   S    
C22   C35   S    
C39   C63   A    
C91   H86   S    
C12   C25   A    
O4    Zn3   S    
C36   C58   A    
C24   C33   S    
C46   O4    A    
C65   H24   S    
C106  H9    S    
C35   C57   A    
C51   C54   A    
C45   O3    A    
C23   C32   S    
C4    C15   S    
C58   C82   S    
C4    C9    A    
C59   C86   S    
C7    H14   S    
C75   H48   S    
C90   C91   S    
C21   C29   S    
C10   C95   S    
C101  H109  S    
C95   H107  S    
C22   C39   S    
C82   H77   S    
C64   C65   S    
C71   H42   S    
C92   C93   S    
C60   H58   S    
C40   C74   A    
C76   H62   S    
C94   H94   S    
C81   H65   S    
C62   H31   S    
C102  C103  A    
C93   H97   S    
C65   H27   S    
O10   Zn2   S    
C23   O12   A    
C88   H78   S    
C79   C80   S    
C101  H111  S    
C4    C5    A    
C41   C92   S    
C66   H38   S    
C78   H55   S    
C16   C18   A    
C82   C83   S    
C22   C26   S    
C103  C104  A    
C95   H108  S    
C103  H6    S    
C68   H33   S    
C10   C36   A    
C37   C46   S    
C77   H60   S    
C44   O8    A    
O3    Zn4   S    
C6    H12   S    
C18   H20   S    
C43   O7    A    
C84   H71   S    
