data_mof_unit_55380.cif
_audit_creation_date              2013-03-05T15:41:04-0500
_audit_creation_method            fapswitch 2.2
_symmetry_space_group_name_H-M    P1
_symmetry_Int_Tables_number       1
_space_group_crystal_system       triclinic
_cell_length_a                    11.092879
_cell_length_b                    10.981343
_cell_length_c                    18.784043
_cell_angle_alpha                 90.619887
_cell_angle_beta                  90.1624
_cell_angle_gamma                 59.941479
_cell_volume                      1980.32139415

loop_
_atom_site_label
_atom_site_type_symbol
_atom_site_description
_atom_site_fract_x
_atom_site_fract_y
_atom_site_fract_z
_atom_type_partial_charge
O1    O     O_R   0.507110 0.256280 0.580300 -0.449399
O2    O     O_R   0.280830 0.527190 0.577940 -0.470236
C1    C     C_R   0.238290 0.644871 0.609332 0.570979
O3    O     O_R   0.261360 0.738990 0.584270 -0.432850
O4    O     O_R   0.532590 0.694780 0.574370 -0.474713
C2    C     C_R   0.651809 0.621439 0.602758 0.565017
O5    O     O_R   0.744470 0.503750 0.577000 -0.429223
O6    O     O_R   0.698520 0.277230 0.571620 -0.499270
C3    C     C_R   0.627829 0.227770 0.601803 0.565914
O7    O     O_R   0.498530 0.256920 0.419280 -0.514052
O8    O     O_R   0.272880 0.527780 0.428680 -0.461479
C4    C     C_R   0.215154 0.651993 0.405171 0.591829
O9    O     O_R   0.252780 0.739630 0.423250 -0.543861
O10   O     O_R   0.524640 0.695370 0.425100 -0.479511
C5    C     C_R   0.642875 0.623747 0.394400 0.564731
O11   O     O_R   0.735890 0.504390 0.415980 -0.509249
O12   O     O_R   0.690560 0.277820 0.422350 -0.500798
C6    C     C_R   0.615275 0.230469 0.395181 0.600602
Cr1   Cr    Cr6+3 0.393010 0.398050 0.501480 1.163361
Cr2   Cr    Cr6+3 0.398820 0.707980 0.501630 1.142112
Cr3   Cr    Cr6+3 0.708140 0.393940 0.496850 1.128377
O13   O     O_3   0.499990 0.499990 0.499980 -0.338476
C7    C     C_3   0.533872 0.738114 0.799494 -0.248268
H1    H     H_    0.476842 0.846838 0.821481 0.195435
H2    H     H_    0.485536 0.683896 0.826906 0.165927
C8    C     C_3   0.516494 0.732219 0.717601 -0.000021
H3    H     H_    0.460581 0.673098 0.707615 0.139969
H4    H     H_    0.701097 0.859625 0.788455 0.127611
H5    H     H_    0.654782 0.849814 0.674914 0.148236
C9    C     C_3   0.755058 0.745832 0.772347 0.117041
C10   C     C_3   0.757428 0.512006 0.797650 0.106215
C11   C     C_3   0.690590 0.669649 0.816700 0.004519
H6    H     H_    0.865768 0.451513 0.818066 0.224041
C12   C     C_3   0.666724 0.648128 0.679233 -0.073761
C13   C     C_3   0.732509 0.741948 0.690919 0.141851
C14   C     C_3   0.757577 0.497995 0.716469 0.095772
H7    H     H_    0.707207 0.435213 0.702954 0.156338
C15   C     C_2   0.672772 0.158434 0.671312 -0.039471
C16   C     C_2   0.679860 0.181817 0.831760 0.254920
C17   C     C_2   0.789384 0.145484 0.787259 0.247930
C18   C     C_2   0.772192 0.165479 0.708808 -0.072200
H8    H     H_    0.844935 0.185078 0.681009 0.199288
H9    H     H_    0.606757 0.125231 0.697273 0.171468
C19   C     C_2   0.177433 0.665011 0.681255 0.213064
C20   C     C_2   0.202921 0.653630 0.842497 -0.054374
C21   C     C_2   0.187078 0.562397 0.800770 0.011525
C22   C     C_2   0.207378 0.549989 0.722543 0.212442
H10   H     H_    0.147974 0.498380 0.823684 0.218180
H11   H     H_    0.248934 0.712682 0.821260 0.125501
C23   C     C_2   0.658057 0.655216 0.321315 0.217139
C24   C     C_2   0.630558 0.661052 0.155783 0.283275
C25   C     C_2   0.716073 0.555438 0.198681 -0.091783
C26   C     C_2   0.687559 0.550610 0.273578 -0.163948
H12   H     H_    0.819175 0.475346 0.181000 0.144675
H13   H     H_    0.701974 0.450246 0.291409 0.159557
C27   C     C_2   0.637771 0.180455 0.323199 0.323520
C28   C     C_2   0.633823 0.207300 0.162759 0.233288
C29   C     C_2   0.532833 0.216029 0.204372 -0.098308
C30   C     C_2   0.529187 0.253054 0.278353 -0.082644
H14   H     H_    0.464070 0.177257 0.187860 0.154822
H15   H     H_    0.432330 0.342976 0.297030 0.116701
C31   C     C_2   0.116432 0.687226 0.348010 0.225254
C32   C     C_2   0.107639 0.698417 0.191944 -0.045243
C33   C     C_2   0.053548 0.814548 0.234909 0.224473
C34   C     C_2   0.086254 0.801683 0.310308 -0.104003
H16   H     H_    0.109165 0.880467 0.331369 0.142761
H17   H     H_    0.167889 0.592289 0.212166 0.083678
O14   O     O_R   0.089190 0.825870 0.932320 -0.469590
O15   O     O_R   0.819070 0.053960 0.931440 -0.468529
C35   C     C_R   0.702134 0.103655 0.898382 0.557859
O16   O     O_R   0.607070 0.076440 0.916460 -0.482378
O17   O     O_R   0.647110 0.806550 0.917690 -0.523737
C36   C     C_R   0.717504 0.683863 0.891811 0.517813
O18   O     O_R   0.837080 0.593860 0.915300 -0.522590
O19   O     O_R   0.064770 0.636080 0.932550 -0.513104
C37   C     C_R   0.122358 0.703492 0.908920 0.552453
O20   O     O_R   0.068250 0.829200 0.092940 -0.439725
O21   O     O_R   0.799650 0.057040 0.080330 -0.476342
C38   C     C_R   0.672839 0.114772 0.100852 0.555251
O22   O     O_R   0.586130 0.079760 0.077080 -0.520570
O23   O     O_R   0.627700 0.809630 0.066580 -0.443648
C39   C     C_R   0.692329 0.687826 0.093872 0.610619
O24   O     O_R   0.816140 0.597180 0.075920 -0.554968
O25   O     O_R   0.045360 0.639170 0.081440 -0.504732
C40   C     C_R   0.081830 0.716590 0.116305 0.584930
Cr4   Cr    Cr6+3 0.937950 0.938450 0.008940 1.107422
Cr5   Cr    Cr6+3 0.626180 0.937030 0.994750 1.088646
Cr6   Cr    Cr6+3 0.937790 0.625760 0.001410 1.050626
O26   O     O_3   0.833980 0.833750 0.001700 -0.289631
N1    N     N_R   0.904030 0.419117 0.691681 0.113143
O27   O     O_R   0.998665 0.435653 0.723833 -0.242848
O28   O     O_R   0.946076 0.314314 0.646989 -0.261980
O29   O     O_3   0.896474 0.684662 0.787266 -0.632209
H18   H     H_    0.902932 0.733786 0.830359 0.349370
N2    N     N_R   0.854347 0.712506 0.646857 0.129577
O30   O     O_R   0.872635 0.817839 0.632765 -0.304459
O31   O     O_R   0.915487 0.602976 0.605128 -0.225619
O32   O     O_3   0.920792 0.091727 0.816442 -0.632467
H19   H     H_    0.984986 0.089899 0.779368 0.384773
N3    N     N_R   0.539596 0.290926 0.814826 0.075151
O33   O     O_R   0.517015 0.382475 0.765633 -0.374282
O34   O     O_R   0.438967 0.319255 0.859337 -0.315254
N4    N     N_R   0.252520 0.411115 0.692296 0.117573
O35   O     O_R   0.324482 0.300465 0.731074 -0.224768
O36   O     O_R   0.190457 0.395986 0.636798 -0.177243
N5    N     N_R   0.098282 0.807984 0.708863 0.059199
O37   O     O_R   0.997154 0.842068 0.753426 -0.322870
O38   O     O_R   0.105007 0.910337 0.678698 -0.261771
O39   O     O_3   0.494178 0.758647 0.173666 -0.655921
H20   H     H_    0.460851 0.718792 0.210721 0.323140
N6    N     N_R   0.645741 0.788441 0.303745 0.093402
O40   O     O_R   0.723088 0.796264 0.254150 -0.367018
O41   O     O_R   0.575389 0.896900 0.345449 -0.296989
O42   O     O_3   0.713312 0.265378 0.185335 -0.717584
H21   H     H_    0.778732 0.254693 0.146752 0.337895
O43   O     O_3   0.759112 0.057823 0.306559 -0.661545
H22   H     H_    0.745185 0.017167 0.262264 0.386115
O44   O     O_3   0.981711 0.948515 0.206488 -0.632461
H23   H     H_    0.972646 0.018728 0.242859 0.362059
O45   O     O_3   0.071076 0.593997 0.330408 -0.681437
H24   H     H_    0.986208 0.643587 0.300777 0.359039
N7    N     N_R   0.428617 0.878210 0.691080 0.073348
O46   O     O_R   0.430121 0.984797 0.721397 -0.314796
O47   O     O_R   0.337581 0.905680 0.641301 -0.201241
O48   O     O_3   0.684413 0.452827 0.829325 -0.710725
H25   H     H_    0.710503 0.437892 0.880413 0.333435

loop_
_geom_bond_atom_site_label_1
_geom_bond_atom_site_label_2
_geom_bond_distance
_ccdc_geom_bond_type
O29   H18   0.990098 S    
O14   Cr4   2.076499 S    
C36   O18   1.274270 A    
C28   C38   1.452137 S    
N2    O30   1.300448 A    
O42   H21   0.990706 S    
C28   C29   1.330776 D    
O4    Cr2   1.966514 S    
C20   C21   1.344459 D    
O45   H24   0.991281 S    
O8    Cr1   1.950731 S    
C8    H3    1.114212 S    
O11   Cr3   2.071223 S    
C9    C13   1.552746 S    
C20   C37   1.468526 S    
C14   H7    1.110531 S    
C9    O29   1.391608 S    
C17   O32   1.383581 S    
O4    C2    1.272893 A    
C7    C8    1.554448 S    
N5    O37   1.295040 A    
C29   H14   1.086484 S    
C5    O11   1.265395 A    
O32   H19   0.990276 S    
C33   O44   1.387248 S    
O43   H22   0.987822 S    
O12   C6    1.286519 A    
C12   C13   1.545822 S    
C18   H8    1.071883 S    
C5    C23   1.449929 S    
O44   H23   0.991314 S    
C3    C15   1.473297 S    
C8    C12   1.612493 S    
N6    O40   1.300588 A    
O6    C3    1.291198 A    
C30   H15   1.088286 S    
C7    H1    1.109245 S    
C10   H6    1.111676 S    
C35   O16   1.279311 A    
C31   O45   1.385033 S    
O9    Cr2   2.084794 S    
C19   C22   1.380818 D    
C6    C27   1.428534 S    
O21   Cr4   1.954544 S    
O24   Cr6   2.079151 S    
O20   C40   1.252698 A    
C24   O39   1.386005 S    
Cr3   O13   1.999160 S    
C32   C40   1.444682 S    
C25   H12   1.086302 S    
O23   C39   1.272006 A    
C21   H10   1.086613 S    
C26   H13   1.087921 S    
C32   H17   1.084916 S    
C1    C19   1.476142 S    
O1    Cr1   2.069551 S    
C23   C26   1.354066 D    
C22   N4    1.455032 S    
C32   C33   1.360737 D    
C24   C25   1.344624 D    
O10   Cr2   1.961416 S    
Cr1   O13   1.998476 S    
O1    C3    1.278320 A    
O25   C40   1.283113 A    
C15   C18   1.340982 D    
N4    O36   1.301953 A    
C16   C17   1.359033 D    
O21   C38   1.278171 A    
C29   C30   1.438662 S    
O5    Cr3   2.080210 S    
O12   Cr3   1.957385 S    
C2    C12   1.488270 S    
O19   C37   1.278894 A    
C4    C31   1.442124 S    
N1    O28   1.300155 A    
C10   C11   1.541720 S    
C20   H11   1.085585 S    
O7    Cr1   2.072985 S    
N3    O34   1.301420 A    
O6    Cr3   1.950216 S    
C27   O43   1.378555 S    
N6    O41   1.301303 A    
Cr6   O26   1.976806 S    
C24   C39   1.456768 S    
O23   Cr5   1.948112 S    
O22   Cr5   2.073532 S    
O16   Cr5   2.067154 S    
C17   C18   1.489825 S    
Cr2   O13   1.976868 S    
O20   Cr4   2.075821 S    
C34   H16   1.087150 S    
C13   N2    1.476144 S    
Cr5   O26   1.999843 S    
O48   H25   0.992904 S    
C10   O48   1.403835 S    
N7    O47   1.296419 A    
C1    O3    1.277308 A    
C11   C36   1.464115 S    
O17   Cr5   1.956009 S    
C25   C26   1.450194 S    
C14   N1    1.480624 S    
C21   C22   1.481636 S    
C31   C34   1.337829 D    
O2    Cr1   1.954635 S    
C10   C14   1.530903 S    
O25   Cr6   1.966341 S    
O17   C36   1.263046 A    
Cr4   O26   1.998671 S    
O8    C4    1.265716 A    
N2    O31   1.298651 A    
C2    O5    1.272560 A    
C19   N5    1.452199 S    
O14   C37   1.275682 A    
H5    C13   1.104527 S    
C27   C30   1.357505 D    
C7    C11   1.544231 S    
H4    C9    1.120213 S    
O2    C1    1.270673 A    
C15   H9    1.086430 S    
O39   H20   0.991371 S    
C33   C34   1.451738 S    
C9    C11   1.588454 S    
C16   N3    1.447611 S    
C28   O42   1.385459 S    
N5    O38   1.299224 A    
O7    C6    1.260966 A    
C23   N6    1.441496 S    
C16   C35   1.474065 S    
C12   C14   1.606078 S    
C7    H2    1.111356 S    
O15   C35   1.288272 A    
C38   O22   1.279342 A    
O3    Cr2   2.081478 S    
O19   Cr6   1.960461 S    
C4    O9    1.268938 A    
C39   O24   1.271479 A    
N4    O35   1.299398 A    
O10   C5    1.277675 A    
N3    O33   1.301460 A    
C8    N7    1.489145 S    
O18   Cr6   2.087244 S    
N7    O46   1.303716 A    
O15   Cr4   1.954642 S    
N1    O27   1.297975 A    
