data_mof_unit_61913.cif
_audit_creation_date              2012-12-10T18:21:44-0500
_audit_creation_method            fapswitch 2.2
_symmetry_space_group_name_H-M    P1
_symmetry_Int_Tables_number       1
_space_group_crystal_system       triclinic
_cell_length_a                    35.671992
_cell_length_b                    35.672069
_cell_length_c                    29.36013
_cell_angle_alpha                 89.996927
_cell_angle_beta                  90.001678
_cell_angle_gamma                 90.022102
_cell_volume                      37360.5793681

loop_
_atom_site_label
_atom_site_type_symbol
_atom_type_description
_atom_site_fract_x
_atom_site_fract_y
_atom_site_fract_z
_atom_type_partial_charge
C1    C     C_R   0.999989 0.427822 0.500113 0.922273
C2    C     C_R   0.427824 0.999992 0.500202 0.922497
C3    C     C_R   0.000005 0.572176 0.500205 0.922326
C4    C     C_R   0.572177 0.000008 0.500203 0.922227
C5    C     C_R   0.499992 0.927823 0.999793 0.922321
C6    C     C_R   0.927821 0.499989 0.999884 0.922341
C7    C     C_R   0.500002 0.072179 0.999887 0.922221
C8    C     C_R   0.072179 0.500011 0.999883 0.922106
C9    C     C_1   0.000090 0.233547 0.503184 -0.044292
C10   C     C_1   0.233539 0.000419 0.503249 -0.044518
C11   C     C_1   0.000498 0.766462 0.503266 -0.044612
C12   C     C_1   0.766462 0.999546 0.503270 -0.044725
C13   C     C_1   0.500411 0.733537 0.996679 -0.044632
C14   C     C_1   0.733546 0.500124 0.996784 -0.044183
C15   C     C_1   0.500153 0.266455 0.996784 -0.044287
C16   C     C_1   0.266455 0.499906 0.996735 -0.044377
C17   C     C_1   0.999802 0.267235 0.503343 -0.011689
C18   C     C_1   0.267228 0.000249 0.502988 -0.011450
C19   C     C_1   0.000332 0.732774 0.503007 -0.011510
C20   C     C_1   0.732774 0.999719 0.503008 -0.011610
C21   C     C_1   0.500244 0.767225 0.996940 -0.011580
C22   C     C_1   0.767234 0.499830 0.996624 -0.011560
C23   C     C_1   0.499870 0.232767 0.996629 -0.011613
C24   C     C_1   0.232767 0.500196 0.996578 -0.011694
C25   C     C_R   0.018928 0.327802 0.536885 -0.058539
C26   C     C_R   0.327690 0.980398 0.536053 -0.059053
C27   C     C_R   0.980458 0.672302 0.536065 -0.059100
C28   C     C_R   0.672315 0.019607 0.536042 -0.059219
C29   C     C_R   0.019381 0.673045 0.467382 -0.058953
C30   C     C_R   0.326965 0.019299 0.467348 -0.058842
C31   C     C_R   0.979881 0.326868 0.468304 -0.059007
C32   C     C_R   0.673033 0.980662 0.467380 -0.058968
C33   C     C_R   0.519314 0.826952 0.032587 -0.059019
C34   C     C_R   0.826858 0.479883 0.031662 -0.059072
C35   C     C_R   0.479916 0.173129 0.031664 -0.059113
C36   C     C_R   0.173147 0.520138 0.031624 -0.059223
C37   C     C_R   0.519016 0.172204 0.963127 -0.058487
C38   C     C_R   0.827809 0.518952 0.963098 -0.058370
C39   C     C_R   0.480382 0.827699 0.963911 -0.059004
C40   C     C_R   0.172187 0.481055 0.963078 -0.058513
C41   C     C_R   0.019241 0.367267 0.535707 0.271179
C42   C     C_R   0.367156 0.980528 0.535439 0.271626
C43   C     C_R   0.980571 0.632836 0.535446 0.271370
C44   C     C_R   0.632849 0.019486 0.535422 0.271460
C45   C     C_R   0.019444 0.633574 0.466913 0.271928
C46   C     C_R   0.366437 0.019380 0.466885 0.271872
C47   C     C_R   0.980268 0.366325 0.467257 0.271921
C48   C     C_R   0.633561 0.980594 0.466908 0.271666
C49   C     C_R   0.519395 0.866424 0.033070 0.271970
C50   C     C_R   0.866315 0.480262 0.032717 0.272151
C51   C     C_R   0.480293 0.133673 0.032721 0.271924
C52   C     C_R   0.133691 0.519750 0.032693 0.271998
C53   C     C_R   0.519315 0.132739 0.964314 0.271161
C54   C     C_R   0.867274 0.519256 0.964283 0.271115
C55   C     C_R   0.480513 0.867166 0.964543 0.271398
C56   C     C_R   0.132722 0.480743 0.964276 0.270880
C57   C     C_R   0.999947 0.386541 0.500915 -0.210896
C58   C     C_R   0.386544 0.999983 0.500861 -0.210782
C59   C     C_R   0.000026 0.613456 0.500875 -0.210871
C60   C     C_R   0.613457 0.000015 0.500862 -0.210954
C61   C     C_R   0.499983 0.886543 0.999117 -0.210904
C62   C     C_R   0.886540 0.499949 0.999072 -0.210803
C63   C     C_R   0.499989 0.113461 0.999087 -0.210902
C64   C     C_R   0.113461 0.500052 0.999063 -0.210964
C65   C     C_R   0.999186 0.307721 0.503171 -0.077233
C66   C     C_R   0.307706 0.999746 0.501942 -0.077103
C67   C     C_R   0.999823 0.692295 0.501965 -0.077112
C68   C     C_R   0.692296 0.000231 0.501956 -0.077132
C69   C     C_R   0.499745 0.807704 0.997999 -0.077151
C70   C     C_R   0.807719 0.499203 0.996801 -0.077189
C71   C     C_R   0.499251 0.192281 0.996813 -0.077192
C72   C     C_R   0.192281 0.500815 0.996765 -0.077220
C73   C     C_R   0.072911 0.999793 0.499990 0.808225
C74   C     C_R   0.999800 0.927088 0.499989 0.808503
C75   C     C_R   0.927089 0.000202 0.499988 0.808750
C76   C     C_R   0.000233 0.072912 0.499986 0.808389
C77   C     C_R   0.572912 0.500248 0.000014 0.808127
C78   C     C_R   0.500248 0.427089 0.000014 0.808404
C79   C     C_R   0.427088 0.499756 0.000014 0.808712
C80   C     C_R   0.499782 0.572911 0.000010 0.808531
C81   C     C_R   0.999999 0.500000 0.415268 0.835690
C82   C     C_R   0.500000 0.000001 0.415268 0.838587
C83   C     C_R   0.000000 0.500001 0.584732 0.837809
C84   C     C_R   0.500000 0.999999 0.584732 0.834899
C85   C     C_R   0.499999 0.999999 0.915268 0.837693
C86   C     C_R   0.000000 0.500001 0.915268 0.840612
C87   C     C_R   0.500000 0.000000 0.084732 0.835733
C88   C     C_R   1.000000 0.499999 0.084732 0.832849
C89   C     C_1   0.999999 0.499999 0.364038 -0.118596
C90   C     C_1   0.500000 0.000003 0.364038 -0.115293
C91   C     C_1   0.000001 0.500002 0.635961 -0.114487
C92   C     C_1   0.500000 0.999997 0.635961 -0.117919
C93   C     C_1   0.499999 0.999998 0.864039 -0.115610
C94   C     C_1   0.000000 0.500003 0.864039 -0.112166
C95   C     C_1   0.500001 0.000001 0.135961 -0.117602
C96   C     C_1   1.000000 0.499997 0.135962 -0.120897
C97   C     C_1   0.999999 0.499998 0.321580 0.030283
C98   C     C_1   0.500001 0.000003 0.321580 0.033389
C99   C     C_1   0.000001 0.500003 0.678420 0.032448
C100  C     C_1   0.499999 0.999996 0.678420 0.029166
C101  C     C_1   0.499999 0.999997 0.821580 0.030692
C102  C     C_1   0.000001 0.500004 0.821580 0.033977
C103  C     C_1   0.500001 0.000002 0.178420 0.031908
C104  C     C_1   0.999999 0.499997 0.178420 0.028804
C105  C     C_1   0.999999 0.499997 0.271230 0.025127
C106  C     C_1   0.500001 0.000003 0.271230 0.028037
C107  C     C_1   0.000001 0.500004 0.728769 0.027423
C108  C     C_1   0.499999 0.999995 0.728769 0.024322
C109  C     C_1   0.499999 0.999996 0.771231 0.024816
C110  C     C_1   0.000001 0.500004 0.771231 0.027917
C111  C     C_1   0.500001 0.000003 0.228770 0.027565
C112  C     C_1   0.999999 0.499997 0.228770 0.024655
C113  C     C_R   0.018337 0.173480 0.536906 -0.203237
C114  C     C_R   0.173502 0.982116 0.537052 -0.203539
C115  C     C_R   0.982161 0.826479 0.537052 -0.203764
C116  C     C_R   0.826501 0.017858 0.537062 -0.204054
C117  C     C_R   0.017844 0.825624 0.467053 -0.198454
C118  C     C_R   0.174395 0.017774 0.467031 -0.198231
C119  C     C_R   0.982720 0.174436 0.466858 -0.197862
C120  C     C_R   0.825603 0.982196 0.467048 -0.198557
C121  C     C_R   0.517772 0.674404 0.032917 -0.198262
C122  C     C_R   0.674439 0.482741 0.033113 -0.197544
C123  C     C_R   0.482760 0.325544 0.033113 -0.197650
C124  C     C_R   0.325558 0.517296 0.033070 -0.197896
C125  C     C_R   0.518407 0.326547 0.963090 -0.203391
C126  C     C_R   0.673472 0.518401 0.963096 -0.203084
C127  C     C_R   0.482080 0.673488 0.962922 -0.203902
C128  C     C_R   0.326533 0.481612 0.963076 -0.203572
C129  C     C_R   0.019366 0.134204 0.536028 -0.033914
C130  C     C_R   0.134231 0.980869 0.536079 -0.034094
C131  C     C_R   0.980895 0.865748 0.536070 -0.034124
C132  C     C_R   0.865771 0.019116 0.536076 -0.034103
C133  C     C_R   0.017354 0.864801 0.465346 -0.035633
C134  C     C_R   0.135218 0.017309 0.465338 -0.035557
C135  C     C_R   0.982968 0.135253 0.465258 -0.035610
C136  C     C_R   0.864780 0.982676 0.465340 -0.035671
C137  C     C_R   0.517293 0.635227 0.034641 -0.035615
C138  C     C_R   0.635257 0.482988 0.034724 -0.035577
C139  C     C_R   0.483003 0.364726 0.034724 -0.035605
C140  C     C_R   0.364740 0.517030 0.034706 -0.035660
C141  C     C_R   0.519433 0.365824 0.963983 -0.033945
C142  C     C_R   0.634196 0.519432 0.963988 -0.033931
C143  C     C_R   0.480822 0.634218 0.963927 -0.034151
C144  C     C_R   0.365809 0.480568 0.963990 -0.033953
C145  C     C_R   0.001168 0.114503 0.500142 -0.139645
C146  C     C_R   0.114502 0.999002 0.500177 -0.139307
C147  C     C_R   0.999023 0.885497 0.500171 -0.139382
C148  C     C_R   0.885498 0.000989 0.500172 -0.139267
C149  C     C_R   0.498976 0.614501 0.999822 -0.139278
C150  C     C_R   0.614501 0.501200 0.999856 -0.139666
C151  C     C_R   0.501205 0.385500 0.999854 -0.139564
C152  C     C_R   0.385499 0.498804 0.999855 -0.139592
C153  C     C_R   0.000252 0.193391 0.502465 0.103356
C154  C     C_R   0.193379 0.000375 0.502703 0.103865
C155  C     C_R   0.000441 0.806622 0.502717 0.103847
C156  C     C_R   0.806622 0.999591 0.502722 0.103882
C157  C     C_R   0.500365 0.693376 0.997242 0.103914
C158  C     C_R   0.693389 0.500289 0.997512 0.103366
C159  C     C_R   0.500305 0.306612 0.997509 0.103387
C160  C     C_R   0.306613 0.499742 0.997471 0.103373
Cu1   Cu    Cu3+1 0.962730 0.500000 0.500000 1.062712
Cu2   Cu    Cu3+1 0.500000 0.037270 0.500000 1.056028
Cu3   Cu    Cu3+1 0.037270 0.500000 0.500000 1.049406
Cu4   Cu    Cu3+1 0.500000 0.962730 0.500000 1.055960
Cu5   Cu    Cu3+1 0.462730 0.000000 0.000000 1.062711
Cu6   Cu    Cu3+1 0.000000 0.537270 0.000000 1.056079
Cu7   Cu    Cu3+1 0.537270 0.000000 0.000000 1.049408
Cu8   Cu    Cu3+1 0.000000 0.462730 0.000000 1.056150
Cu9   Cu    Cu3+1 1.000000 0.000000 0.457530 0.983621
Cu10  Cu    Cu3+1 0.000000 0.000000 0.542470 0.996586
Cu11  Cu    Cu3+1 0.500000 0.500000 0.957530 0.996531
Cu12  Cu    Cu3+1 0.500000 0.500000 0.042470 0.983242
H1    H     H_    0.032315 0.188619 0.564097 0.145267
H2    H     H_    0.188669 0.968104 0.564187 0.145403
H3    H     H_    0.968151 0.811299 0.564185 0.145374
H4    H     H_    0.811338 0.031868 0.564198 0.145315
H5    H     H_    0.031883 0.809879 0.440423 0.147327
H6    H     H_    0.190156 0.031794 0.440389 0.147323
H7    H     H_    0.968697 0.190222 0.440248 0.147955
H8    H     H_    0.809840 0.968172 0.440411 0.147303
H9    H     H_    0.531800 0.690172 0.059545 0.147333
H10   H     H_    0.690230 0.468708 0.059711 0.148015
H11   H     H_    0.468737 0.309740 0.059716 0.147979
H12   H     H_    0.309764 0.531339 0.059657 0.147959
H13   H     H_    0.532409 0.311426 0.935913 0.145222
H14   H     H_    0.688608 0.532403 0.935920 0.145252
H15   H     H_    0.468052 0.688645 0.935791 0.145308
H16   H     H_    0.311403 0.467602 0.935903 0.145207
O1    O     O_R   0.968530 0.445640 0.500010 -0.547926
O2    O     O_R   0.445640 0.031470 0.500010 -0.554978
O3    O     O_R   0.031470 0.554360 0.500010 -0.555035
O4    O     O_R   0.554360 0.968530 0.500010 -0.555012
O5    O     O_R   0.968530 0.554360 0.499990 -0.548002
O6    O     O_R   0.445640 0.968530 0.499990 -0.548039
O7    O     O_R   0.031470 0.445640 0.499990 -0.554976
O8    O     O_R   0.554360 0.031470 0.499990 -0.548048
O9    O     O_R   0.468530 0.945640 0.000010 -0.547820
O10   O     O_R   0.945640 0.531470 0.000010 -0.554731
O11   O     O_R   0.531470 0.054360 0.000010 -0.554761
O12   O     O_R   0.054360 0.468530 0.000010 -0.554746
O13   O     O_R   0.468530 0.054360 0.999990 -0.548072
O14   O     O_R   0.945640 0.468530 0.999990 -0.548102
O15   O     O_R   0.531470 0.945640 0.999990 -0.555202
O16   O     O_R   0.054360 0.531470 0.999990 -0.548157
O17   O     O_R   0.968530 0.500000 0.438040 -0.556013
O18   O     O_R   0.500000 0.031470 0.438040 -0.557249
O19   O     O_R   0.031470 0.500000 0.438040 -0.558502
O20   O     O_R   0.500000 0.968530 0.438040 -0.556558
O21   O     O_R   0.968530 0.500000 0.561960 -0.555229
O22   O     O_R   0.500000 0.968530 0.561960 -0.557239
O23   O     O_R   0.031470 0.500000 0.561960 -0.557768
O24   O     O_R   0.500000 0.031470 0.561960 -0.556513
O25   O     O_R   0.468530 0.000000 0.938040 -0.555585
O26   O     O_R   0.000000 0.531470 0.938040 -0.556837
O27   O     O_R   0.531470 0.000000 0.938040 -0.558107
O28   O     O_R   0.000000 0.468530 0.938040 -0.556100
O29   O     O_R   0.468530 0.000000 0.061960 -0.555653
O30   O     O_R   0.000000 0.468530 0.061960 -0.557600
O31   O     O_R   0.531470 0.000000 0.061960 -0.558170
O32   O     O_R   0.000000 0.531470 0.061960 -0.556933
O33   O     O_R   0.054260 0.999990 0.464160 -0.569389
O34   O     O_R   0.999990 0.945740 0.464160 -0.569542
O35   O     O_R   0.945740 0.000010 0.464160 -0.569481
O36   O     O_R   0.000010 0.054260 0.464160 -0.569641
O37   O     O_R   0.054260 0.000010 0.535840 -0.568187
O38   O     O_R   0.999990 0.054260 0.535840 -0.568013
O39   O     O_R   0.945740 0.999990 0.535840 -0.567869
O40   O     O_R   0.000010 0.945740 0.535840 -0.567929
O41   O     O_R   0.554260 0.499990 0.964160 -0.568202
O42   O     O_R   0.499990 0.445740 0.964160 -0.568104
O43   O     O_R   0.445740 0.500010 0.964160 -0.567869
O44   O     O_R   0.500010 0.554260 0.964160 -0.568034
O45   O     O_R   0.554260 0.500010 0.035840 -0.569602
O46   O     O_R   0.499990 0.554260 0.035840 -0.569425
O47   O     O_R   0.445740 0.499990 0.035840 -0.569701
O48   O     O_R   0.500010 0.445740 0.035840 -0.569598
C161  C     C_R   0.040922 0.114752 0.572161 0.128742
C162  C     C_R   0.071634 0.091929 0.560797 -0.103432
C163  C     C_R   0.091586 0.073149 0.594812 -0.113720
C164  C     C_R   0.081150 0.077137 0.640422 -0.115540
C165  C     C_R   0.050894 0.100124 0.652081 -0.138464
C166  C     C_R   0.030902 0.119017 0.618134 -0.152480
H17   H     H_    0.079814 0.088426 0.525609 0.093073
H18   H     H_    0.115071 0.055454 0.585777 0.128177
H19   H     H_    0.096536 0.062462 0.666717 0.119689
H20   H     H_    0.042879 0.103246 0.687430 0.125245
H21   H     H_    0.007385 0.136566 0.627588 0.113341
C167  C     C_R   0.114817 0.959092 0.572064 0.127380
C168  C     C_R   0.092083 0.928349 0.560487 -0.105474
C169  C     C_R   0.073336 0.908186 0.594358 -0.114156
C170  C     C_R   0.077269 0.918439 0.640036 -0.115692
C171  C     C_R   0.100167 0.948724 0.651908 -0.138402
C172  C     C_R   0.119026 0.968927 0.618106 -0.151524
H22   H     H_    0.088625 0.920305 0.525245 0.093300
H23   H     H_    0.055707 0.884679 0.585160 0.128352
H24   H     H_    0.062620 0.902890 0.666220 0.119667
H25   H     H_    0.103246 0.956598 0.687310 0.125797
H26   H     H_    0.136502 0.992466 0.627727 0.115774
C173  C     C_R   0.959118 0.885142 0.572054 0.127485
C174  C     C_R   0.928359 0.907834 0.560479 -0.105759
C175  C     C_R   0.908210 0.926579 0.594348 -0.114211
C176  C     C_R   0.918490 0.922682 0.640022 -0.115895
C177  C     C_R   0.948791 0.899827 0.651891 -0.138687
C178  C     C_R   0.968984 0.880974 0.618090 -0.151156
H27   H     H_    0.920296 0.911265 0.525239 0.093272
H28   H     H_    0.884694 0.944180 0.585152 0.128269
H29   H     H_    0.902951 0.937329 0.666205 0.119430
H30   H     H_    0.956688 0.896778 0.687290 0.125540
H31   H     H_    0.992542 0.863538 0.627706 0.115690
C179  C     C_R   0.885192 0.040901 0.572046 0.127702
C180  C     C_R   0.907892 0.071665 0.560452 -0.106211
C181  C     C_R   0.926660 0.091829 0.594303 -0.115010
C182  C     C_R   0.922781 0.081555 0.639980 -0.115654
C183  C     C_R   0.899918 0.051248 0.651868 -0.138570
C184  C     C_R   0.881041 0.031041 0.618085 -0.151172
H32   H     H_    0.911311 0.079720 0.525208 0.093336
H33   H     H_    0.944266 0.115349 0.585089 0.127190
H34   H     H_    0.937446 0.097105 0.666149 0.119066
H35   H     H_    0.896882 0.043355 0.687269 0.125396
H36   H     H_    0.863599 0.007478 0.627717 0.115568
C185  C     C_R   0.037115 0.883142 0.427223 0.123411
C186  C     C_R   0.075748 0.890100 0.429992 -0.158629
C187  C     C_R   0.094285 0.907922 0.394053 -0.137068
C188  C     C_R   0.074400 0.918584 0.355103 -0.121540
C189  C     C_R   0.035998 0.911204 0.351921 -0.138153
C190  C     C_R   0.017412 0.893305 0.387762 -0.097607
H37   H     H_    0.091449 0.881631 0.459801 0.116544
H38   H     H_    0.124055 0.913470 0.396393 0.125644
H39   H     H_    0.088767 0.932470 0.327357 0.116026
H40   H     H_    0.020641 0.919331 0.321701 0.116770
H41   H     H_    0.987725 0.887574 0.385011 0.118964
C191  C     C_R   0.116897 0.037059 0.427204 0.123345
C192  C     C_R   0.109798 0.075657 0.430043 -0.158089
C193  C     C_R   0.091999 0.094179 0.394086 -0.136715
C194  C     C_R   0.081494 0.074314 0.355055 -0.122214
C195  C     C_R   0.089007 0.035947 0.351811 -0.138278
C196  C     C_R   0.106886 0.017376 0.387669 -0.097824
H42   H     H_    0.118145 0.091343 0.459916 0.117011
H43   H     H_    0.086346 0.123922 0.396476 0.127100
H44   H     H_    0.067626 0.088668 0.327293 0.116428
H45   H     H_    0.081001 0.020605 0.321528 0.116956
H46   H     H_    0.112726 0.987719 0.384868 0.118887
C197  C     C_R   0.963006 0.116965 0.427251 0.123845
C198  C     C_R   0.924353 0.110177 0.430213 -0.161531
C199  C     C_R   0.905623 0.092396 0.394394 -0.137392
C200  C     C_R   0.925333 0.081617 0.355364 -0.121753
C201  C     C_R   0.963756 0.088827 0.351988 -0.138009
C202  C     C_R   0.982536 0.106678 0.387714 -0.094585
H47   H     H_    0.908787 0.118749 0.460082 0.115379
H48   H     H_    0.875838 0.086971 0.396886 0.125536
H49   H     H_    0.910817 0.067770 0.327705 0.115798
H50   H     H_    0.978979 0.080606 0.321707 0.116748
H51   H     H_    0.012237 0.112276 0.384813 0.119296
C203  C     C_R   0.883099 0.962941 0.427197 0.123512
C204  C     C_R   0.890078 0.924317 0.429953 -0.158502
C205  C     C_R   0.907894 0.905810 0.394000 -0.137310
C206  C     C_R   0.918530 0.925717 0.355050 -0.121884
C207  C     C_R   0.911130 0.964111 0.351882 -0.138365
C208  C     C_R   0.893236 0.982667 0.387737 -0.097760
H52   H     H_    0.881633 0.908601 0.459765 0.116390
H53   H     H_    0.913460 0.876047 0.396329 0.125474
H54   H     H_    0.932413 0.911374 0.327293 0.115827
H55   H     H_    0.919237 0.979485 0.321662 0.116706
H56   H     H_    0.887492 0.012349 0.385002 0.119055
C209  C     C_R   0.537011 0.616916 0.072806 0.123262
C210  C     C_R   0.575625 0.609876 0.070052 -0.158299
C211  C     C_R   0.594111 0.592066 0.106028 -0.136676
C212  C     C_R   0.574195 0.581492 0.144995 -0.122172
C213  C     C_R   0.535811 0.588948 0.148156 -0.138475
C214  C     C_R   0.517275 0.606836 0.112278 -0.097728
H57   H     H_    0.591348 0.618267 0.040224 0.117118
H58   H     H_    0.623866 0.586455 0.103702 0.127126
H59   H     H_    0.588522 0.567613 0.172770 0.116426
H60   H     H_    0.520429 0.580886 0.178388 0.116821
H61   H     H_    0.487600 0.612620 0.115007 0.119070
C215  C     C_R   0.616976 0.463039 0.072746 0.123613
C216  C     C_R   0.610141 0.424393 0.069781 -0.161362
C217  C     C_R   0.592378 0.405675 0.105625 -0.136823
C218  C     C_R   0.581663 0.425390 0.144678 -0.122155
C219  C     C_R   0.588913 0.463806 0.148050 -0.138142
C220  C     C_R   0.606746 0.482575 0.112300 -0.094502
H62   H     H_    0.618661 0.408824 0.039895 0.116123
H63   H     H_    0.586920 0.375897 0.103134 0.127240
H64   H     H_    0.567831 0.410882 0.172356 0.116447
H65   H     H_    0.580739 0.479032 0.178347 0.116874
H66   H     H_    0.612375 0.512271 0.115199 0.119300
C221  C     C_R   0.463070 0.382992 0.072756 0.123640
C222  C     C_R   0.424417 0.389780 0.069822 -0.161451
C223  C     C_R   0.405720 0.407548 0.105666 -0.137072
C224  C     C_R   0.425467 0.418313 0.144687 -0.122399
C225  C     C_R   0.463891 0.411111 0.148028 -0.138335
C226  C     C_R   0.482639 0.393272 0.112278 -0.094511
H67   H     H_    0.408828 0.381228 0.039957 0.116069
H68   H     H_    0.375937 0.412972 0.103201 0.127081
H69   H     H_    0.410975 0.432151 0.172365 0.116201
H70   H     H_    0.479140 0.419324 0.178297 0.116788
H71   H     H_    0.512343 0.387686 0.115143 0.119492
C227  C     C_R   0.383019 0.536963 0.072741 0.123749
C228  C     C_R   0.389723 0.575637 0.069869 -0.161793
C229  C     C_R   0.407512 0.594335 0.105709 -0.137367
C230  C     C_R   0.418379 0.574572 0.144668 -0.121702
C231  C     C_R   0.411252 0.536127 0.147953 -0.138215
C232  C     C_R   0.393395 0.517377 0.112208 -0.094450
H72   H     H_    0.381092 0.591240 0.040052 0.115498
H73   H     H_    0.412876 0.624135 0.103287 0.125571
H74   H     H_    0.432234 0.589064 0.172340 0.115793
H75   H     H_    0.419543 0.520864 0.178177 0.116607
H76   H     H_    0.387872 0.487655 0.115030 0.119548
C233  C     C_R   0.541046 0.385304 0.927909 0.128874
C234  C     C_R   0.571724 0.408166 0.939363 -0.103817
C235  C     C_R   0.591748 0.426955 0.905404 -0.114641
C236  C     C_R   0.581415 0.422938 0.859762 -0.115327
C237  C     C_R   0.551194 0.399913 0.848013 -0.138148
C238  C     C_R   0.531133 0.381010 0.881903 -0.152729
H77   H     H_    0.579826 0.411689 0.974577 0.093172
H78   H     H_    0.615208 0.444678 0.914509 0.127196
H79   H     H_    0.596857 0.437619 0.833510 0.119282
H80   H     H_    0.543262 0.396767 0.812638 0.125292
H81   H     H_    0.507646 0.363426 0.872378 0.113337
C239  C     C_R   0.614737 0.541042 0.927905 0.128654
C240  C     C_R   0.591888 0.571716 0.939346 -0.103342
C241  C     C_R   0.573119 0.591732 0.905376 -0.113864
C242  C     C_R   0.577143 0.581399 0.859737 -0.115569
C243  C     C_R   0.600156 0.551183 0.848001 -0.138223
C244  C     C_R   0.619040 0.531129 0.881902 -0.152766
H82   H     H_    0.588362 0.579822 0.974557 0.093105
H83   H     H_    0.555406 0.615189 0.914468 0.128254
H84   H     H_    0.562478 0.596835 0.833477 0.119617
H85   H     H_    0.603309 0.543250 0.812629 0.125427
H86   H     H_    0.636616 0.507649 0.872386 0.113451
C245  C     C_R   0.458994 0.614785 0.928004 0.127627
C246  C     C_R   0.428252 0.592079 0.939668 -0.106277
C247  C     C_R   0.408047 0.573297 0.905862 -0.115116
C248  C     C_R   0.418261 0.577167 0.860163 -0.115623
C249  C     C_R   0.448546 0.600037 0.848205 -0.138357
C250  C     C_R   0.468790 0.618931 0.881943 -0.151335
H87   H     H_    0.420242 0.588669 0.974930 0.093425
H88   H     H_    0.384543 0.555688 0.915126 0.127272
H89   H     H_    0.402682 0.562490 0.834029 0.118998
H90   H     H_    0.456390 0.603065 0.812787 0.125560
H91   H     H_    0.492331 0.636380 0.872257 0.115645
C251  C     C_R   0.385277 0.458932 0.927943 0.128990
C252  C     C_R   0.408087 0.428240 0.939432 -0.104219
C253  C     C_R   0.426874 0.408200 0.905500 -0.114751
C254  C     C_R   0.422905 0.418530 0.859852 -0.115462
C255  C     C_R   0.399934 0.448768 0.848070 -0.138432
C256  C     C_R   0.381036 0.468849 0.881932 -0.152366
H92   H     H_    0.411571 0.420140 0.974652 0.093220
H93   H     H_    0.444558 0.384730 0.914629 0.127151
H94   H     H_    0.437582 0.403075 0.833620 0.119026
H95   H     H_    0.396827 0.456700 0.812690 0.125027
H96   H     H_    0.363500 0.492352 0.872385 0.113276
C257  C     C_R   0.039350 0.307430 0.573295 0.184981
C258  C     C_R   0.078699 0.307839 0.574487 -0.081915
C259  C     C_R   0.097921 0.287674 0.607990 -0.133882
C260  C     C_R   0.078017 0.266913 0.640337 -0.107166
C261  C     C_R   0.038848 0.266348 0.639306 -0.147750
C262  C     C_R   0.019519 0.286557 0.605945 -0.123949
H97   H     H_    0.094402 0.323535 0.549316 0.141700
H98   H     H_    0.128253 0.288019 0.608766 0.133433
H99   H     H_    0.092942 0.251228 0.666158 0.130271
H100  H     H_    0.023467 0.250192 0.664299 0.131388
H101  H     H_    0.989168 0.285815 0.605353 0.129762
C263  C     C_R   0.307184 0.960393 0.572671 0.185583
C264  C     C_R   0.307128 0.974561 0.617286 -0.084275
C265  C     C_R   0.286731 0.956354 0.651423 -0.134708
C266  C     C_R   0.266193 0.924050 0.641191 -0.111211
C267  C     C_R   0.266076 0.909852 0.596818 -0.145553
C268  C     C_R   0.286507 0.927921 0.562612 -0.122560
H102  H     H_    0.322645 0.999783 0.625466 0.140926
H103  H     H_    0.286719 0.967373 0.685768 0.135863
H104  H     H_    0.250327 0.910059 0.667622 0.131313
H105  H     H_    0.250082 0.884900 0.588907 0.134262
H106  H     H_    0.286076 0.916805 0.528286 0.130036
C269  C     C_R   0.960450 0.692797 0.572673 0.185653
C270  C     C_R   0.974606 0.692857 0.617295 -0.084109
C271  C     C_R   0.956399 0.713247 0.651423 -0.134860
C272  C     C_R   0.924106 0.733773 0.641176 -0.111564
C273  C     C_R   0.909920 0.733885 0.596796 -0.145381
C274  C     C_R   0.927989 0.713462 0.562599 -0.122349
H107  H     H_    0.999820 0.677350 0.625487 0.140737
H108  H     H_    0.967410 0.713262 0.685773 0.135337
H109  H     H_    0.910115 0.749634 0.667600 0.130632
H110  H     H_    0.884977 0.749871 0.588873 0.134042
H111  H     H_    0.916882 0.713890 0.528268 0.129917
C275  C     C_R   0.692824 0.039632 0.572639 0.185809
C276  C     C_R   0.692878 0.025492 0.617268 -0.084320
C277  C     C_R   0.713279 0.043718 0.651386 -0.135195
C278  C     C_R   0.733822 0.076011 0.641120 -0.111442
C279  C     C_R   0.733941 0.090180 0.596733 -0.145339
C280  C     C_R   0.713507 0.072093 0.562546 -0.122385
H112  H     H_    0.677357 0.000279 0.625475 0.140419
H113  H     H_    0.713289 0.032720 0.685743 0.134936
H114  H     H_    0.749691 0.090017 0.667537 0.130619
H115  H     H_    0.749940 0.115124 0.588795 0.133978
H116  H     H_    0.713940 0.083187 0.528208 0.129889
C281  C     C_R   0.039834 0.694293 0.431738 0.185303
C282  C     C_R   0.079183 0.693996 0.430644 -0.082354
C283  C     C_R   0.098437 0.715005 0.397930 -0.134972
C284  C     C_R   0.078561 0.736492 0.366275 -0.106906
C285  C     C_R   0.039389 0.736932 0.367203 -0.147639
C286  C     C_R   0.020029 0.715885 0.399774 -0.124741
H117  H     H_    0.094861 0.677736 0.455294 0.141572
H118  H     H_    0.128771 0.714752 0.397234 0.133841
H119  H     H_    0.093510 0.752832 0.341073 0.131780
H120  H     H_    0.024029 0.753649 0.342752 0.133619
H121  H     H_    0.989676 0.716548 0.400313 0.130064
C287  C     C_R   0.305727 0.039732 0.431690 0.185173
C288  C     C_R   0.306042 0.079081 0.430570 -0.082243
C289  C     C_R   0.285042 0.098316 0.397842 -0.134912
C290  C     C_R   0.263547 0.078421 0.366202 -0.106879
C291  C     C_R   0.263089 0.039249 0.367156 -0.147362
C292  C     C_R   0.284127 0.019909 0.399740 -0.124565
H122  H     H_    0.322309 0.094773 0.455210 0.141613
H123  H     H_    0.285310 0.128649 0.397126 0.133703
H124  H     H_    0.247214 0.093355 0.340990 0.131746
H125  H     H_    0.246364 0.023875 0.342716 0.133862
H126  H     H_    0.283449 0.989556 0.400300 0.130291
C293  C     C_R   0.959712 0.305465 0.432580 0.185908
C294  C     C_R   0.973798 0.304121 0.387956 -0.084596
C295  C     C_R   0.955502 0.282790 0.354744 -0.134204
C296  C     C_R   0.923194 0.262595 0.365919 -0.109932
C297  C     C_R   0.909075 0.263761 0.410305 -0.147129
C298  C     C_R   0.927230 0.285130 0.443584 -0.123085
H127  H     H_    0.999038 0.319342 0.379068 0.140754
H128  H     H_    0.966464 0.281780 0.320394 0.135739
H129  H     H_    0.909140 0.245998 0.340211 0.132140
H130  H     H_    0.884125 0.248024 0.418953 0.133877
H131  H     H_    0.916189 0.285671 0.477943 0.130181
C299  C     C_R   0.694267 0.960197 0.431750 0.185238
C300  C     C_R   0.693918 0.920847 0.430661 -0.082063
C301  C     C_R   0.714909 0.901582 0.397956 -0.134791
C302  C     C_R   0.736426 0.921447 0.366310 -0.107391
C303  C     C_R   0.736919 0.960620 0.367234 -0.147866
C304  C     C_R   0.715890 0.979991 0.399795 -0.124739
H132  H     H_    0.677634 0.905178 0.455305 0.141632
H133  H     H_    0.714615 0.871248 0.397262 0.133737
H134  H     H_    0.752752 0.906489 0.341114 0.131201
H135  H     H_    0.753661 0.975970 0.342790 0.133372
H136  H     H_    0.716592 0.010344 0.400332 0.130011
C305  C     C_R   0.539763 0.805702 0.068221 0.185239
C306  C     C_R   0.579113 0.806011 0.069307 -0.082309
C307  C     C_R   0.598363 0.784999 0.102009 -0.134786
C308  C     C_R   0.578482 0.763498 0.133658 -0.107216
C309  C     C_R   0.539310 0.763046 0.132739 -0.147630
C310  C     C_R   0.519954 0.784096 0.100180 -0.124410
H137  H     H_    0.594793 0.822282 0.044659 0.141381
H138  H     H_    0.628696 0.785261 0.102699 0.133601
H139  H     H_    0.593428 0.747155 0.158851 0.131384
H140  H     H_    0.523947 0.746317 0.157186 0.133607
H141  H     H_    0.489601 0.783423 0.099646 0.130254
C311  C     C_R   0.805446 0.459706 0.067373 0.185693
C312  C     C_R   0.804102 0.473774 0.112005 -0.084325
C313  C     C_R   0.782762 0.455472 0.145204 -0.134019
C314  C     C_R   0.762558 0.423174 0.134009 -0.109990
C315  C     C_R   0.763725 0.409073 0.089614 -0.147188
C316  C     C_R   0.785103 0.427235 0.056348 -0.123326
H142  H     H_    0.819328 0.499006 0.120909 0.141206
H143  H     H_    0.781751 0.466420 0.179560 0.136153
H144  H     H_    0.745953 0.409115 0.159707 0.132357
H145  H     H_    0.747981 0.384131 0.080950 0.134056
H146  H     H_    0.785644 0.416207 0.021983 0.130170
C317  C     C_R   0.459722 0.194528 0.067358 0.185754
C318  C     C_R   0.473772 0.195890 0.112000 -0.084167
C319  C     C_R   0.455452 0.217217 0.145183 -0.134168
C320  C     C_R   0.423155 0.237389 0.133962 -0.110312
C321  C     C_R   0.409071 0.236205 0.089557 -0.147006
C322  C     C_R   0.427251 0.214840 0.056307 -0.123148
H147  H     H_    0.499003 0.180688 0.120924 0.141041
H148  H     H_    0.466386 0.218241 0.179547 0.135680
H149  H     H_    0.409083 0.253982 0.159647 0.131759
H150  H     H_    0.384130 0.251924 0.080873 0.133844
H151  H     H_    0.416237 0.214285 0.021934 0.130033
C323  C     C_R   0.194565 0.540327 0.067319 0.185919
C324  C     C_R   0.195927 0.526268 0.111955 -0.084360
C325  C     C_R   0.217273 0.544582 0.145138 -0.134472
C326  C     C_R   0.237466 0.576882 0.133922 -0.110166
C327  C     C_R   0.236283 0.590974 0.089523 -0.147003
C328  C     C_R   0.214898 0.572800 0.056273 -0.123211
H152  H     H_    0.180708 0.501035 0.120876 0.140747
H153  H     H_    0.218296 0.533640 0.179498 0.135309
H154  H     H_    0.254076 0.590949 0.159607 0.131768
H155  H     H_    0.252018 0.615917 0.080842 0.133782
H156  H     H_    0.214344 0.583821 0.021903 0.129998
C329  C     C_R   0.539472 0.192580 0.926736 0.185063
C330  C     C_R   0.578823 0.192185 0.925586 -0.081985
C331  C     C_R   0.598077 0.212352 0.892099 -0.134086
C332  C     C_R   0.578202 0.233102 0.859725 -0.106824
C333  C     C_R   0.539032 0.233653 0.860715 -0.147800
C334  C     C_R   0.519672 0.213442 0.894059 -0.124305
H157  H     H_    0.594502 0.176499 0.950777 0.141888
H158  H     H_    0.628409 0.212017 0.891355 0.133675
H159  H     H_    0.593152 0.248787 0.833916 0.130715
H160  H     H_    0.523675 0.249799 0.835701 0.131406
H161  H     H_    0.489320 0.214172 0.894618 0.129563
C335  C     C_R   0.807447 0.539390 0.926694 0.184924
C336  C     C_R   0.807864 0.578740 0.925520 -0.081897
C337  C     C_R   0.787708 0.597978 0.892022 -0.134035
C338  C     C_R   0.766948 0.578089 0.859661 -0.106809
C339  C     C_R   0.766375 0.538920 0.860675 -0.147475
C340  C     C_R   0.786574 0.519575 0.894030 -0.124091
H162  H     H_    0.823559 0.594431 0.950701 0.141910
H163  H     H_    0.788061 0.628310 0.891260 0.133548
H164  H     H_    0.751271 0.593026 0.833844 0.130701
H165  H     H_    0.750219 0.523551 0.835671 0.131696
H166  H     H_    0.785826 0.489224 0.894609 0.129823
C341  C     C_R   0.460360 0.807206 0.927299 0.185805
C342  C     C_R   0.474505 0.807167 0.882673 -0.084552
C343  C     C_R   0.456282 0.786782 0.848540 -0.134898
C344  C     C_R   0.423984 0.766240 0.858787 -0.111158
C345  C     C_R   0.409809 0.766106 0.903170 -0.145522
C346  C     C_R   0.427894 0.786525 0.937373 -0.122305
H167  H     H_    0.499722 0.822687 0.874481 0.140445
H168  H     H_    0.467283 0.786784 0.814186 0.135410
H169  H     H_    0.409979 0.750383 0.832359 0.131060
H170  H     H_    0.384861 0.750108 0.911094 0.134069
H171  H     H_    0.416795 0.786080 0.971707 0.130058
C347  C     C_R   0.192544 0.460615 0.926676 0.184990
C348  C     C_R   0.192137 0.421265 0.925518 -0.081681
C349  C     C_R   0.212287 0.402027 0.892019 -0.133881
C350  C     C_R   0.233031 0.421915 0.859641 -0.107443
C351  C     C_R   0.233593 0.461085 0.860638 -0.147967
C352  C     C_R   0.213400 0.480430 0.893995 -0.124250
H172  H     H_    0.176454 0.405575 0.950712 0.141920
H173  H     H_    0.211943 0.371695 0.891270 0.133561
H174  H     H_    0.248703 0.406978 0.833823 0.130063
H175  H     H_    0.249736 0.476454 0.835622 0.131114
H176  H     H_    0.214140 0.510781 0.894560 0.129485
Cl1   Cl    Cl    0.041718 0.392605 0.579870 -0.619779
Cl2   Cl    Cl    0.392310 0.956595 0.578601 -0.619067
Cl3   Cl    Cl    0.956615 0.607671 0.578595 -0.618422
Cl4   Cl    Cl    0.607700 0.043451 0.578559 -0.618471
Cl5   Cl    Cl    0.041813 0.609345 0.421782 -0.618990
Cl6   Cl    Cl    0.390678 0.041745 0.421744 -0.618866
Cl7   Cl    Cl    0.956352 0.390418 0.423201 -0.617985
Cl8   Cl    Cl    0.609317 0.958214 0.421781 -0.618548
Cl9   Cl    Cl    0.541782 0.890649 0.078206 -0.618073
Cl10  Cl    Cl    0.890398 0.456328 0.076767 -0.617721
Cl11  Cl    Cl    0.456341 0.109577 0.076759 -0.617140
Cl12  Cl    Cl    0.109615 0.543689 0.076741 -0.617246
Cl13  Cl    Cl    0.541813 0.107406 0.920179 -0.620703
Cl14  Cl    Cl    0.892622 0.541741 0.920133 -0.620600
Cl15  Cl    Cl    0.456562 0.892333 0.921407 -0.619301
Cl16  Cl    Cl    0.107367 0.458245 0.920142 -0.620212

loop_
_geom_bond_atom_site_label_1
_geom_bond_atom_site_label_2
_ccdc_geom_bond_type
C283  C284  A    
C178  H31   S    
Cu10  O40   S    
C130  C146  A    
C281  C282  A    
C266  C267  A    
C117  C133  A    
C294  C295  A    
C10   C154  S    
C88   C96   S    
C216  C217  A    
C336  C337  A    
C76   O36   A    
C186  C187  A    
C257  C258  A    
C207  H55   S    
C14   C158  S    
C121  H9    S    
C188  C189  A    
C80   O44   A    
C85   O27   A    
C132  C179  S    
C229  H73   S    
C296  H129  S    
C139  C221  S    
C292  H126  S    
C108  C109  T    
C4    O8    A    
C183  C184  A    
C264  C265  A    
Cu7   O31   S    
C291  H125  S    
C123  H11   S    
C46   Cl6   S    
C172  H26   S    
C163  C164  A    
Cu4   O22   S    
C349  C350  A    
C28   C275  S    
C318  H147  S    
C127  H15   S    
C196  H46   S    
C210  C211  A    
C127  C157  A    
C129  C145  A    
C261  H100  S    
C33   C69   A    
C81   O19   A    
C97   C105  S    
C297  H130  S    
C187  H38   S    
Cu11  O42   S    
C35   C71   A    
C309  H140  S    
C119  C153  A    
C141  C151  A    
C341  C346  A    
C329  C334  A    
C114  C130  A    
C42   C58   A    
C332  H159  S    
C180  H32   S    
C119  H7    S    
Cu1   Cu3   S    
C117  H5    S    
Cu2   Cu4   S    
Cu12  O48   S    
C263  C268  A    
C134  C146  A    
Cu5   O29   S    
C312  H142  S    
C189  H40   S    
C49   Cl9   S    
C74   C147  S    
C8    O16   A    
C219  C220  A    
C314  H144  S    
C282  C283  A    
C51   Cl11  S    
C225  H70   S    
C215  C216  A    
C35   C317  S    
C203  C204  A    
C288  C289  A    
C28   C44   A    
C29   C45   A    
C205  C206  A    
C254  H94   S    
Cu6   O10   S    
C212  H59   S    
C317  C322  A    
C347  C352  A    
C6    O14   A    
C307  H138  S    
C249  C250  A    
C311  C312  A    
C12   C20   T    
C319  H148  S    
C200  C201  A    
C122  C158  A    
C13   C21   T    
C350  H174  S    
C127  C143  A    
C291  C292  A    
C128  C144  A    
C26   C263  S    
C83   O21   A    
C161  C166  A    
C339  C340  A    
C105  C112  T    
C346  H171  S    
C42   Cl2   S    
C323  C328  A    
C37   C71   A    
C35   C51   A    
C164  H19   S    
C107  C110  T    
C299  C300  A    
C242  C243  A    
Cu2   O2    S    
C308  C309  A    
C280  H116  S    
C266  H104  S    
C326  H154  S    
C31   C65   A    
C96   C104  T    
C337  C338  A    
C45   C59   A    
C129  C161  S    
C328  H156  S    
C293  C298  A    
C20   C68   S    
C2    O2    A    
C315  C316  A    
C77   C150  S    
Cu8   O30   S    
C338  H164  S    
C75   C148  S    
C83   C91   S    
C247  C248  A    
C77   O41   A    
C182  H34   S    
C98   C106  S    
C73   O33   A    
C277  C278  A    
C75   O39   A    
C184  H36   S    
C185  C186  A    
C334  H161  S    
C7    O13   A    
C254  C255  A    
C260  C261  A    
C6    C62   S    
C170  H24   S    
C352  H176  S    
C123  C159  A    
C10   C18   T    
C124  C160  A    
C222  C223  A    
Cu8   O14   S    
C331  H158  S    
C238  H81   S    
C224  C225  A    
C86   O28   A    
C116  C156  A    
C29   C281  S    
C202  H51   S    
C262  H101  S    
C114  H2    S    
C94   C102  T    
C78   O48   A    
C235  H78   S    
C228  C229  A    
C274  H111  S    
C188  H39   S    
C290  H124  S    
C101  C109  S    
C114  C154  A    
C199  H48   S    
C239  C240  A    
C125  C159  A    
C305  C310  A    
C223  C224  A    
C16   C160  S    
C232  H76   S    
C225  C226  A    
C259  C260  A    
Cu7   O27   S    
C82   O20   A    
C234  C235  A    
C343  H168  S    
C285  C286  A    
C342  C343  A    
C345  H170  S    
C246  H87   S    
C302  H134  S    
C28   C68   A    
C124  H12   S    
C85   O25   A    
C289  H123  S    
C25   C257  S    
C175  C176  A    
Cu4   O6    S    
C231  C232  A    
C217  H63   S    
C123  C139  A    
C48   Cl8   S    
C125  H13   S    
C201  H50   S    
C121  C137  A    
C192  H42   S    
C242  H84   S    
C115  H3    S    
C221  C226  A    
C325  H153  S    
C85   C93   S    
C286  H121  S    
C39   C341  S    
Cu9   O34   S    
C271  H108  S    
C125  C141  A    
C87   C95   S    
C117  C155  A    
C264  H102  S    
C56   C64   A    
C131  C147  A    
C304  H136  S    
C133  C147  A    
C47   Cl7   S    
C278  H114  S    
C216  H62   S    
C36   C52   A    
C11   C155  S    
C37   C53   A    
C218  H64   S    
C9    C153  S    
C186  H37   S    
Cu5   Cu7   S    
C305  C306  A    
C46   C58   A    
Cu6   Cu8   S    
C350  C351  A    
C12   C156  S    
C180  C181  A    
C167  C168  A    
C13   C157  S    
C229  C230  A    
C303  C304  A    
C95   C103  T    
C78   C151  S    
C182  C183  A    
C106  C111  T    
C80   C149  S    
Cu11  O43   S    
C100  C108  S    
C236  H79   S    
C5    C61   S    
C183  H35   S    
C26   C66   A    
C253  C254  A    
Cu4   O20   S    
C176  H29   S    
C104  C112  S    
C92   C100  T    
C167  C172  A    
C181  C182  A    
C5    O9    A    
C207  C208  A    
C135  C145  A    
C349  H173  S    
C256  H96   S    
C162  H17   S    
C233  C238  A    
C21   C69   S    
C86   O26   A    
C192  C193  A    
C1    C57   S    
C47   C57   A    
C249  H90   S    
C165  H20   S    
C297  C298  A    
C116  C132  A    
C143  C149  A    
C213  H60   S    
C4    C60   S    
C295  C296  A    
C39   C69   A    
Cu1   O5    S    
C136  C148  A    
C7    C63   S    
C351  C352  A    
C8    C64   S    
C118  H6    S    
Cu5   O25   S    
C263  C264  A    
C199  C200  A    
C214  H61   S    
C30   C287  S    
C319  C320  A    
C8    O12   A    
C142  C239  S    
C219  H65   S    
C314  C315  A    
C82   O18   A    
C267  C268  A    
C24   C72   S    
C190  H41   S    
C251  C252  A    
C310  H141  S    
C140  C152  A    
C40   C72   A    
C323  C324  A    
C179  C184  A    
C30   C46   A    
C174  C175  A    
C5    O15   A    
C317  C318  A    
C176  C177  A    
C18   C66   S    
C200  H49   S    
C270  C271  A    
C14   C22   T    
C252  H92   S    
C79   O47   A    
C193  H43   S    
C144  C152  A    
C243  H85   S    
C53   Cl13  S    
C53   C63   A    
C248  C249  A    
C55   C61   A    
C139  C151  A    
C164  C165  A    
C88   O30   A    
C118  C154  A    
C272  H109  S    
C143  C245  S    
C270  H107  S    
C204  C205  A    
C287  C288  A    
C278  C279  A    
C33   C49   A    
C187  C188  A    
Cu7   O11   S    
C171  C172  A    
Cu3   O3    S    
C245  C250  A    
C84   C92   S    
C91   C99   T    
C315  H145  S    
Cu4   O4    S    
C300  C301  A    
C223  H68   S    
C22   C70   S    
C271  C272  A    
C36   C72   A    
C79   C152  S    
C1    O1    A    
C267  H105  S    
C175  H28   S    
C247  H88   S    
Cu11  O41   S    
C241  C242  A    
C300  H132  S    
C4    O4    A    
C293  C294  A    
C230  H74   S    
Cu1   O17   S    
C191  C196  A    
C177  C178  A    
Cu12  O45   S    
C84   O24   A    
C11   C19   T    
C327  C328  A    
C181  H33   S    
C31   C293  S    
C344  H169  S    
C113  H1    S    
C134  C191  S    
C54   Cl14  S    
C248  H89   S    
C41   Cl1   S    
C193  C194  A    
C84   O22   A    
Cu9   O36   S    
C265  C266  A    
C43   Cl3   S    
C235  C236  A    
C120  C156  A    
C301  C302  A    
C103  C111  S    
C330  C331  A    
Cu9   Cu10  S    
C333  H160  S    
Cu5   O13   S    
C272  C273  A    
C29   C67   A    
C39   C55   A    
C252  C253  A    
C40   C56   A    
C19   C67   S    
Cu7   O15   S    
C34   C70   A    
C234  H77   S    
C231  H75   S    
C81   C89   S    
C168  H22   S    
C31   C47   A    
Cu10  O39   S    
Cu2   O18   S    
C32   C48   A    
C321  H150  S    
C137  C209  S    
C171  H25   S    
C306  H137  S    
C259  H98   S    
C198  H47   S    
C49   C61   A    
C348  C349  A    
C23   C71   S    
C126  H14   S    
C51   C63   A    
C122  C138  A    
C37   C329  S    
C173  C178  A    
C52   C64   A    
C221  C222  A    
C130  C167  S    
C212  C213  A    
C281  C286  A    
C54   C62   A    
C136  C203  S    
C169  C170  A    
Cu1   O21   S    
C303  H135  S    
C126  C142  A    
C119  C135  A    
C276  C277  A    
C120  C136  A    
C301  H133  S    
C290  C291  A    
C15   C159  S    
C333  C334  A    
Cu5   O9    S    
C218  C219  A    
C38   C54   A    
Cu3   O7    S    
C307  C308  A    
C168  C169  A    
C209  C214  A    
C3    O5    A    
C298  H131  S    
C197  C202  A    
C131  C173  S    
C38   C70   A    
C76   C145  S    
Cu12  O46   S    
C255  H95   S    
C258  C259  A    
C102  C110  S    
C253  H93   S    
C93   C101  T    
Cu6   O32   S    
C194  C195  A    
C335  C336  A    
C34   C311  S    
C269  C274  A    
Cu12  O47   S    
C208  H56   S    
C332  C333  A    
Cu8   O12   S    
C1    O7    A    
C128  H16   S    
C320  H149  S    
C124  C140  A    
C204  H52   S    
C246  C247  A    
C80   O46   A    
C135  C197  S    
C250  H91   S    
C220  H66   S    
C2    C58   S    
C140  C227  S    
C194  H44   S    
C78   O42   A    
C99   C107  S    
C236  C237  A    
C74   O34   A    
C283  H118  S    
C295  H128  S    
C82   C90   S    
C177  H30   S    
C142  C150  A    
C120  H8    S    
C41   C57   A    
C211  C212  A    
C273  H110  S    
Cu8   O28   S    
C336  H162  S    
C44   C60   A    
C339  H165  S    
Cu3   O19   S    
C331  C332  A    
C313  C314  A    
C56   Cl16  S    
C26   C42   A    
C209  C210  A    
C50   Cl10  S    
C251  C256  A    
C27   C43   A    
C316  H146  S    
C284  C285  A    
C296  C297  A    
Cu10  O37   S    
Cu2   O8    S    
C25   C65   A    
C179  C180  A    
C25   C41   A    
C2    O6    A    
C174  H27   S    
C257  C262  A    
C144  C251  S    
C321  C322  A    
C335  C340  A    
Cu11  Cu12  S    
C275  C276  A    
C213  C214  A    
C313  H143  S    
C206  H54   S    
C273  C274  A    
C268  H106  S    
C243  C244  A    
C261  C262  A    
C344  C345  A    
C245  C246  A    
C115  C131  A    
C138  C150  A    
C36   C323  S    
C309  C310  A    
C189  C190  A    
C113  C129  A    
C203  C208  A    
C224  H69   S    
C191  C192  A    
C348  H172  S    
C211  H58   S    
C287  C292  A    
C340  H166  S    
C165  C166  A    
C312  C313  A    
C86   C94   S    
C141  C233  S    
C279  H115  S    
C284  H119  S    
C55   Cl15  S    
C324  C325  A    
C163  H18   S    
C185  C190  A    
C87   O31   A    
C306  C307  A    
C299  C304  A    
C15   C23   T    
C279  C280  A    
C75   O35   A    
C327  H155  S    
C16   C24   T    
C197  C198  A    
C40   C347  S    
C311  C316  A    
C137  C149  A    
C227  C228  A    
C240  H82   S    
C222  H67   S    
C48   C60   A    
C265  H103  S    
C126  C158  A    
C195  H45   S    
Cu9   O33   S    
C34   C50   A    
C116  H4    S    
C76   O38   A    
C330  H157  S    
C132  C148  A    
C44   Cl4   S    
C27   C67   A    
C325  C326  A    
Cu1   O1    S    
C74   O40   A    
C6    O10   A    
Cu3   O23   S    
C308  H139  S    
C32   C299  S    
C326  C327  A    
C88   O32   A    
C337  H163  S    
C244  H86   S    
C89   C97   T    
C162  C163  A    
C237  H80   S    
C38   C335  S    
C215  C220  A    
C3    O3    A    
C338  C339  A    
C276  H112  S    
C79   O43   A    
C77   O45   A    
C329  C330  A    
C227  C232  A    
Cu6   O16   S    
C260  H99   S    
C228  H72   S    
C258  H97   S    
Cu6   O26   S    
C30   C66   A    
C9    C17   T    
C198  C199  A    
C27   C269  S    
C50   C62   A    
C173  C174  A    
C277  H113  S    
C351  H175  S    
C128  C160  A    
C81   O17   A    
C233  C234  A    
C169  H23   S    
C255  C256  A    
C138  C215  S    
Cu11  O44   S    
C195  C196  A    
C115  C155  A    
C45   Cl5   S    
C113  C153  A    
C341  C342  A    
C118  C134  A    
C205  H53   S    
C288  H122  S    
C33   C305  S    
C43   C59   A    
C170  C171  A    
C230  C231  A    
C17   C65   S    
C166  H21   S    
C32   C68   A    
C73   C146  S    
C282  H117  S    
C302  C303  A    
Cu10  O38   S    
Cu9   O35   S    
C237  C238  A    
C345  C346  A    
C73   O37   A    
C324  H152  S    
C343  C344  A    
C240  C241  A    
Cu2   O24   S    
C285  H120  S    
C133  C185  S    
C239  C244  A    
C347  C348  A    
C87   O29   A    
C7    O11   A    
C206  C207  A    
C161  C162  A    
C289  C290  A    
C269  C270  A    
C275  C280  A    
C122  H10   S    
C318  C319  A    
C217  C218  A    
C210  H57   S    
C294  H127  S    
C322  H151  S    
C201  C202  A    
C320  C321  A    
C121  C157  A    
C342  H167  S    
C226  H71   S    
C90   C98   T    
C83   O23   A    
C52   Cl12  S    
C241  H83   S    
C3    C59   S    
