data_mof_unit_64138.cif
_audit_creation_date              2013-03-05T16:31:30-0500
_audit_creation_method            fapswitch 2.2
_symmetry_space_group_name_H-M    P1
_symmetry_Int_Tables_number       1
_space_group_crystal_system       triclinic
_cell_length_a                    35.704868
_cell_length_b                    35.704863
_cell_length_c                    29.373977
_cell_angle_alpha                 89.999955
_cell_angle_beta                  89.999974
_cell_angle_gamma                 90.00002
_cell_volume                      37447.0450648

loop_
_atom_site_label
_atom_site_type_symbol
_atom_site_description
_atom_site_fract_x
_atom_site_fract_y
_atom_site_fract_z
_atom_type_partial_charge
O1    O     O_R   0.968530 0.445640 0.500010 -0.548733
O2    O     O_R   0.445640 0.031470 0.500010 -0.548734
O3    O     O_R   0.031470 0.554360 0.500010 -0.548734
O4    O     O_R   0.554360 0.968530 0.500010 -0.548733
O5    O     O_R   0.968530 0.554360 0.499990 -0.548733
O6    O     O_R   0.445640 0.968530 0.499990 -0.548733
O7    O     O_R   0.031470 0.445640 0.499990 -0.548734
O8    O     O_R   0.554360 0.031470 0.499990 -0.548733
O9    O     O_R   0.468530 0.945640 0.000010 -0.548732
O10   O     O_R   0.945640 0.531470 0.000010 -0.548733
O11   O     O_R   0.531470 0.054360 0.000010 -0.548733
O12   O     O_R   0.054360 0.468530 0.000010 -0.548733
O13   O     O_R   0.468530 0.054360 0.999990 -0.548731
O14   O     O_R   0.945640 0.468530 0.999990 -0.548731
O15   O     O_R   0.531470 0.945640 0.999990 -0.548735
O16   O     O_R   0.054360 0.531470 0.999990 -0.548734
C1    C     C_R   0.000000 0.427880 0.500000 0.922420
C2    C     C_R   0.427880 0.000000 0.500000 0.922420
C3    C     C_R   1.000000 0.572120 0.500000 0.922420
C4    C     C_R   0.572120 0.000000 0.500000 0.922416
C5    C     C_R   0.500000 0.927880 0.000000 0.922418
C6    C     C_R   0.927880 0.500000 0.000000 0.922413
C7    C     C_R   0.500000 0.072120 0.000000 0.922414
C8    C     C_R   0.072120 0.500000 0.000000 0.922420
O17   O     O_R   0.968530 0.500000 0.438040 -0.551810
O18   O     O_R   0.500000 0.031470 0.438040 -0.551810
O19   O     O_R   0.031470 0.500000 0.438040 -0.551810
O20   O     O_R   0.500000 0.968530 0.438040 -0.551809
O21   O     O_R   0.968530 0.500000 0.561960 -0.551810
O22   O     O_R   0.500000 0.968530 0.561960 -0.551810
O23   O     O_R   0.031470 0.500000 0.561960 -0.551810
O24   O     O_R   0.500000 0.031470 0.561960 -0.551810
O25   O     O_R   0.468530 0.000000 0.938040 -0.551812
O26   O     O_R   0.000000 0.531470 0.938040 -0.551808
O27   O     O_R   0.531470 0.000000 0.938040 -0.551808
O28   O     O_R   0.000000 0.468530 0.938040 -0.551811
O29   O     O_R   0.468530 0.000000 0.061960 -0.551807
O30   O     O_R   0.000000 0.468530 0.061960 -0.551808
O31   O     O_R   0.531470 0.000000 0.061960 -0.551813
O32   O     O_R   1.000000 0.531470 0.061960 -0.551812
C9    C     C_R   0.000000 0.500000 0.415276 0.840193
C10   C     C_R   0.500000 0.000000 0.415276 0.840192
C11   C     C_R   1.000000 0.500000 0.584724 0.840192
C12   C     C_R   0.500000 1.000000 0.584724 0.840189
C13   C     C_R   0.500000 0.000000 0.915276 0.840187
C14   C     C_R   0.000000 0.500000 0.915276 0.840190
C15   C     C_R   0.500000 0.000000 0.084724 0.840190
C16   C     C_R   1.000000 0.500000 0.084724 0.840188
Cu1   Cu    Cu3+1 0.962730 0.500000 0.500000 1.152744
Cu2   Cu    Cu3+1 0.500000 0.037270 0.500000 1.152745
Cu3   Cu    Cu3+1 0.037270 0.500000 0.500000 1.152745
Cu4   Cu    Cu3+1 0.500000 0.962730 0.500000 1.152745
Cu5   Cu    Cu3+1 0.462730 0.000000 0.000000 1.152747
Cu6   Cu    Cu3+1 0.000000 0.537270 0.000000 1.152745
Cu7   Cu    Cu3+1 0.537270 0.000000 0.000000 1.152745
Cu8   Cu    Cu3+1 0.000000 0.462730 0.000000 1.152748
C17   C     C_1   0.000000 0.500000 0.364040 -0.044211
C18   C     C_1   0.500000 0.000000 0.364040 -0.044212
C19   C     C_1   1.000000 0.500000 0.635960 -0.044212
C20   C     C_1   0.500000 1.000000 0.635960 -0.044213
C21   C     C_1   0.500000 1.000000 0.864040 -0.044214
C22   C     C_1   1.000000 0.500000 0.864040 -0.044215
C23   C     C_1   0.500000 0.000000 0.135960 -0.044213
C24   C     C_1   1.000000 0.500000 0.135960 -0.044216
C25   C     C_1   0.000000 0.500000 0.321584 0.083713
C26   C     C_1   0.500000 0.000000 0.321584 0.083714
C27   C     C_1   1.000000 0.500000 0.678416 0.083713
C28   C     C_1   0.500000 1.000000 0.678416 0.083714
C29   C     C_1   0.500000 1.000000 0.821584 0.083714
C30   C     C_1   1.000000 0.500000 0.821584 0.083712
C31   C     C_1   0.500000 0.000000 0.178416 0.083714
C32   C     C_1   1.000000 0.500000 0.178416 0.083712
C33   C     C_1   0.000000 0.500000 0.271230 0.078595
C34   C     C_1   0.500000 0.000000 0.271230 0.078596
C35   C     C_1   1.000000 0.500000 0.728770 0.078595
C36   C     C_1   0.500000 1.000000 0.728770 0.078595
C37   C     C_1   0.500000 1.000000 0.771229 0.078595
C38   C     C_1   0.000000 0.500000 0.771229 0.078595
C39   C     C_1   0.500000 0.000000 0.228770 0.078596
C40   C     C_1   0.000000 0.500000 0.228770 0.078595
C41   C     C_R   0.023463 0.173470 0.530680 -0.131582
C42   C     C_R   0.173470 0.976537 0.530680 -0.131581
C43   C     C_R   0.976537 0.826530 0.530680 -0.131582
C44   C     C_R   0.826530 0.023463 0.530681 -0.131581
C45   C     C_R   0.023463 0.826530 0.469320 -0.131580
C46   C     C_R   0.173470 0.023463 0.469319 -0.131580
C47   C     C_R   0.976537 0.173470 0.469319 -0.131580
C48   C     C_R   0.826530 0.976537 0.469320 -0.131581
C49   C     C_R   0.523464 0.673470 0.030680 -0.131578
C50   C     C_R   0.673470 0.476537 0.030679 -0.131583
C51   C     C_R   0.476536 0.326530 0.030680 -0.131580
C52   C     C_R   0.326530 0.523463 0.030681 -0.131581
C53   C     C_R   0.523464 0.326530 0.969321 -0.131581
C54   C     C_R   0.673470 0.523464 0.969320 -0.131579
C55   C     C_R   0.476537 0.673470 0.969321 -0.131583
C56   C     C_R   0.326530 0.476537 0.969319 -0.131581
C57   C     C_R   0.022277 0.133980 0.531574 0.232105
C58   C     C_R   0.133980 0.977723 0.531575 0.232105
C59   C     C_R   0.977723 0.866019 0.531574 0.232105
C60   C     C_R   0.866020 0.022277 0.531575 0.232105
C61   C     C_R   0.022278 0.866020 0.468425 0.232103
C62   C     C_R   0.133980 0.022277 0.468425 0.232104
C63   C     C_R   0.977722 0.133980 0.468425 0.232103
C64   C     C_R   0.866020 0.977723 0.468425 0.232105
C65   C     C_R   0.522278 0.633980 0.031574 0.232101
C66   C     C_R   0.633980 0.477723 0.031574 0.232107
C67   C     C_R   0.477722 0.366020 0.031574 0.232103
C68   C     C_R   0.366019 0.522277 0.031575 0.232104
C69   C     C_R   0.522278 0.366020 0.968426 0.232105
C70   C     C_R   0.633980 0.522278 0.968426 0.232104
C71   C     C_R   0.477723 0.633981 0.968426 0.232103
C72   C     C_R   0.366019 0.477723 0.968425 0.232105
C73   C     C_R   1.000000 0.114238 0.500000 -0.191335
C74   C     C_R   0.114238 0.000000 0.500000 -0.191336
C75   C     C_R   0.000000 0.885762 0.500000 -0.191336
C76   C     C_R   0.885762 1.000000 0.500000 -0.191336
C77   C     C_R   0.500000 0.614238 0.000000 -0.191333
C78   C     C_R   0.614238 0.500000 1.000000 -0.191335
C79   C     C_R   0.500000 0.385762 0.000000 -0.191335
C80   C     C_R   0.385762 0.500000 0.000000 -0.191335
C81   C     C_R   1.000000 0.193238 0.500000 -0.016757
C82   C     C_R   0.193238 1.000000 0.500000 -0.016757
C83   C     C_R   0.000000 0.806762 0.500000 -0.016757
C84   C     C_R   0.806762 1.000000 0.500000 -0.016757
C85   C     C_R   0.500000 0.693238 0.000001 -0.016756
C86   C     C_R   0.693238 0.500000 1.000000 -0.016757
C87   C     C_R   0.500000 0.306762 0.000000 -0.016757
C88   C     C_R   0.306762 0.500000 0.000000 -0.016757
C89   C     C_1   1.000000 0.233768 0.500000 0.193576
C90   C     C_1   0.233768 1.000000 0.500000 0.193574
C91   C     C_1   0.000000 0.766232 0.500000 0.193577
C92   C     C_1   0.766232 1.000000 0.500000 0.193574
C93   C     C_1   0.500000 0.733768 0.000001 0.193586
C94   C     C_1   0.733768 0.500000 1.000000 0.193572
C95   C     C_1   0.500000 0.266232 0.000000 0.193575
C96   C     C_1   0.266232 0.500000 0.000000 0.193575
C97   C     C_1   0.000000 0.267517 0.500000 0.235864
C98   C     C_1   0.267517 1.000000 0.500000 0.235863
C99   C     C_1   0.000000 0.732483 0.500000 0.235864
C100  C     C_1   0.732483 1.000000 0.500000 0.235863
C101  C     C_1   0.500000 0.767517 0.000001 0.235869
C102  C     C_1   0.767517 0.500000 1.000000 0.235858
C103  C     C_1   0.500000 0.232482 0.000000 0.235861
C104  C     C_1   0.232482 0.500000 0.000000 0.235863
C105  C     C_R   0.018565 0.327563 0.535023 0.239524
C106  C     C_R   0.327563 0.981435 0.535024 0.239524
C107  C     C_R   0.981436 0.672436 0.535024 0.239524
C108  C     C_R   0.672436 0.018565 0.535024 0.239525
C109  C     C_R   0.018564 0.672436 0.464976 0.239524
C110  C     C_R   0.327563 0.018564 0.464976 0.239524
C111  C     C_R   0.981435 0.327564 0.464976 0.239525
C112  C     C_R   0.672436 0.981435 0.464976 0.239524
C113  C     C_R   0.518563 0.827564 0.035026 0.239523
C114  C     C_R   0.827563 0.481433 0.035021 0.239524
C115  C     C_R   0.481433 0.172436 0.035022 0.239523
C116  C     C_R   0.172436 0.518564 0.035024 0.239525
C117  C     C_R   0.518567 0.172437 0.964978 0.239524
C118  C     C_R   0.827564 0.518568 0.964978 0.239522
C119  C     C_R   0.481437 0.827563 0.964975 0.239525
C120  C     C_R   0.172436 0.481436 0.964976 0.239525
C121  C     C_R   0.019093 0.366983 0.534496 0.213283
C122  C     C_R   0.366983 0.980907 0.534496 0.213283
C123  C     C_R   0.980907 0.633017 0.534496 0.213283
C124  C     C_R   0.633017 0.019093 0.534496 0.213283
C125  C     C_R   0.019093 0.633017 0.465503 0.213283
C126  C     C_R   0.366983 0.019093 0.465503 0.213284
C127  C     C_R   0.980907 0.366983 0.465504 0.213282
C128  C     C_R   0.633017 0.980907 0.465504 0.213284
C129  C     C_R   0.519092 0.866984 0.034498 0.213284
C130  C     C_R   0.866983 0.480904 0.034494 0.213282
C131  C     C_R   0.480905 0.133017 0.034495 0.213282
C132  C     C_R   0.133017 0.519093 0.034497 0.213282
C133  C     C_R   0.519095 0.133017 0.965505 0.213283
C134  C     C_R   0.866983 0.519096 0.965506 0.213281
C135  C     C_R   0.480908 0.866983 0.965503 0.213285
C136  C     C_R   0.133017 0.480907 0.965503 0.213283
C137  C     C_R   1.000000 0.386663 0.500000 -0.327440
C138  C     C_R   0.386663 1.000000 0.500000 -0.327441
C139  C     C_R   0.000000 0.613337 0.500000 -0.327440
C140  C     C_R   0.613337 0.000000 0.500000 -0.327440
C141  C     C_R   0.500000 0.886663 0.000000 -0.327439
C142  C     C_R   0.886663 0.500000 1.000000 -0.327443
C143  C     C_R   0.500000 0.113337 0.000000 -0.327443
C144  C     C_R   0.113337 0.500000 0.000000 -0.327440
C145  C     C_R   0.000000 0.307943 0.500000 -0.213475
C146  C     C_R   0.307943 1.000000 0.500000 -0.213475
C147  C     C_R   0.000000 0.692056 0.500000 -0.213475
C148  C     C_R   0.692056 1.000000 0.500000 -0.213475
C149  C     C_R   0.500000 0.807943 0.000001 -0.213477
C150  C     C_R   0.807943 0.500000 1.000000 -0.213475
C151  C     C_R   0.500000 0.192057 0.000000 -0.213475
C152  C     C_R   0.192057 0.500000 1.000000 -0.213475
O33   O     O_R   0.054260 0.999990 0.464160 -0.545885
O34   O     O_R   0.999990 0.945740 0.464160 -0.545885
O35   O     O_R   0.945740 0.000010 0.464160 -0.545885
O36   O     O_R   0.000010 0.054260 0.464160 -0.545885
O37   O     O_R   0.054260 0.000010 0.535840 -0.545886
O38   O     O_R   0.999990 0.054260 0.535840 -0.545885
O39   O     O_R   0.945740 0.999990 0.535840 -0.545886
O40   O     O_R   0.000010 0.945740 0.535840 -0.545886
O41   O     O_R   0.554260 0.499990 0.964160 -0.545886
O42   O     O_R   0.499990 0.445740 0.964160 -0.545887
O43   O     O_R   0.445740 0.500010 0.964160 -0.545885
O44   O     O_R   0.500010 0.554260 0.964160 -0.545886
O45   O     O_R   0.554260 0.500010 0.035840 -0.545887
O46   O     O_R   0.499990 0.554260 0.035840 -0.545885
O47   O     O_R   0.445740 0.499990 0.035840 -0.545885
O48   O     O_R   0.500010 0.445740 0.035840 -0.545887
C153  C     C_R   0.072823 0.000000 0.500000 0.938986
C154  C     C_R   0.000000 0.927177 0.500000 0.938987
C155  C     C_R   0.927177 0.000000 0.500000 0.938987
C156  C     C_R   1.000000 0.072823 0.500000 0.938986
C157  C     C_R   0.572823 0.500000 0.000000 0.938990
C158  C     C_R   0.500000 0.427177 0.000000 0.938990
C159  C     C_R   0.427177 0.500000 0.000000 0.938987
C160  C     C_R   0.500000 0.572823 0.000000 0.938988
Cu9   Cu    Cu3+1 0.000000 0.000000 0.457530 1.248718
Cu10  Cu    Cu3+1 0.000000 0.000000 0.542470 1.248717
Cu11  Cu    Cu3+1 0.500000 0.500000 0.957530 1.248716
Cu12  Cu    Cu3+1 0.500000 0.500000 0.042470 1.248717
C161  C     C_2   0.050304 0.193187 0.561404 0.528719
H1    H     H_    0.059307 0.180268 0.592940 0.143250
O49   O     O_2   0.063956 0.223361 0.551125 -0.472450
C162  C     C_2   0.193187 0.949697 0.561405 0.528720
H2    H     H_    0.180268 0.940694 0.592942 0.143249
O50   O     O_2   0.223360 0.936044 0.551126 -0.472450
C163  C     C_2   0.949696 0.806813 0.561404 0.528719
H3    H     H_    0.940693 0.819732 0.592941 0.143250
O51   O     O_2   0.936044 0.776639 0.551126 -0.472450
C164  C     C_2   0.806813 0.050304 0.561404 0.528721
H4    H     H_    0.819732 0.059306 0.592942 0.143249
O52   O     O_2   0.776639 0.063956 0.551126 -0.472451
C165  C     C_2   0.050304 0.806814 0.438596 0.528720
H5    H     H_    0.059308 0.819733 0.407059 0.143250
O53   O     O_2   0.063955 0.776639 0.448873 -0.472452
C166  C     C_2   0.193187 0.050303 0.438595 0.528720
H6    H     H_    0.180267 0.059306 0.407058 0.143249
O54   O     O_2   0.223361 0.063956 0.448873 -0.472450
C167  C     C_2   0.949696 0.193186 0.438596 0.528717
H7    H     H_    0.940692 0.180267 0.407060 0.143250
O55   O     O_2   0.936044 0.223361 0.448873 -0.472450
C168  C     C_2   0.806813 0.949696 0.438596 0.528720
H8    H     H_    0.819732 0.940693 0.407058 0.143249
O56   O     O_2   0.776639 0.936044 0.448874 -0.472450
C169  C     C_2   0.550306 0.693186 0.061404 0.528713
H9    H     H_    0.559314 0.680264 0.092937 0.143252
O57   O     O_2   0.563953 0.723363 0.051129 -0.472457
C170  C     C_2   0.693187 0.449695 0.061402 0.528721
H10   H     H_    0.680268 0.440693 0.092940 0.143249
O58   O     O_2   0.723360 0.436042 0.051123 -0.472446
C171  C     C_2   0.449694 0.306814 0.061402 0.528719
H11   H     H_    0.440689 0.319733 0.092938 0.143250
O59   O     O_2   0.436043 0.276639 0.051124 -0.472450
C172  C     C_2   0.306813 0.550303 0.061405 0.528719
H12   H     H_    0.319733 0.559306 0.092942 0.143250
O60   O     O_2   0.276639 0.563955 0.051127 -0.472449
C173  C     C_2   0.550306 0.306814 0.938598 0.528719
H13   H     H_    0.559310 0.319732 0.907062 0.143250
O61   O     O_2   0.563958 0.276639 0.948877 -0.472448
C174  C     C_2   0.693186 0.550306 0.938597 0.528715
H14   H     H_    0.680266 0.559311 0.907061 0.143250
O62   O     O_2   0.723361 0.563957 0.948875 -0.472447
C175  C     C_2   0.449696 0.693187 0.938597 0.528721
H15   H     H_    0.440693 0.680268 0.907060 0.143250
O63   O     O_2   0.436044 0.723361 0.948876 -0.472454
C176  C     C_2   0.306813 0.449697 0.938595 0.528719
H16   H     H_    0.319732 0.440695 0.907058 0.143250
O64   O     O_2   0.276639 0.436045 0.948873 -0.472449
N1    N     N_R   0.045476 0.113760 0.563005 0.111928
O65   O     O_R   0.036837 0.112896 0.606014 -0.295954
O66   O     O_R   0.073534 0.093957 0.548225 -0.310000
N2    N     N_R   0.113760 0.954525 0.563006 0.111930
O67   O     O_R   0.112895 0.963164 0.606015 -0.295955
O68   O     O_R   0.093957 0.926466 0.548226 -0.309999
N3    N     N_R   0.954524 0.886240 0.563005 0.111929
O69   O     O_R   0.963163 0.887104 0.606015 -0.295954
O70   O     O_R   0.926466 0.906042 0.548225 -0.309999
N4    N     N_R   0.886240 0.045475 0.563005 0.111929
O71   O     O_R   0.887104 0.036836 0.606015 -0.295955
O72   O     O_R   0.906043 0.073534 0.548226 -0.309999
N5    N     N_R   0.045476 0.886240 0.436995 0.111928
O73   O     O_R   0.036837 0.887105 0.393985 -0.295953
O74   O     O_R   0.073534 0.906043 0.451775 -0.310001
N6    N     N_R   0.113760 0.045475 0.436994 0.111929
O75   O     O_R   0.112895 0.036836 0.393985 -0.295954
O76   O     O_R   0.093957 0.073534 0.451773 -0.309999
N7    N     N_R   0.954524 0.113760 0.436995 0.111928
O77   O     O_R   0.963163 0.112895 0.393985 -0.295953
O78   O     O_R   0.926466 0.093957 0.451775 -0.310001
N8    N     N_R   0.886240 0.954524 0.436995 0.111929
O79   O     O_R   0.887105 0.963164 0.393985 -0.295954
O80   O     O_R   0.906043 0.926466 0.451774 -0.309999
N9    N     N_R   0.545476 0.613759 0.063005 0.111923
O81   O     O_R   0.536837 0.612894 0.106014 -0.295952
O82   O     O_R   0.573535 0.593957 0.048225 -0.310004
N10   N     N_R   0.613760 0.454524 0.063005 0.111929
O83   O     O_R   0.612896 0.463162 0.106014 -0.295955
O84   O     O_R   0.593957 0.426466 0.048225 -0.309998
N11   N     N_R   0.454523 0.386240 0.063004 0.111928
O85   O     O_R   0.463161 0.387104 0.106014 -0.295954
O86   O     O_R   0.426465 0.406043 0.048224 -0.310003
N12   N     N_R   0.386240 0.545475 0.063006 0.111929
O87   O     O_R   0.387105 0.536836 0.106015 -0.295953
O88   O     O_R   0.406043 0.573534 0.048227 -0.309998
N13   N     N_R   0.545477 0.386240 0.936996 0.111929
O89   O     O_R   0.536839 0.387104 0.893986 -0.295955
O90   O     O_R   0.573534 0.406043 0.951776 -0.309999
N14   N     N_R   0.613759 0.545476 0.936995 0.111928
O91   O     O_R   0.612896 0.536838 0.893986 -0.295954
O92   O     O_R   0.593957 0.573534 0.951775 -0.310003
N15   N     N_R   0.454524 0.613760 0.936995 0.111929
O93   O     O_R   0.463163 0.612896 0.893986 -0.295954
O94   O     O_R   0.426466 0.593958 0.951775 -0.310000
N16   N     N_R   0.386240 0.454525 0.936994 0.111930
O95   O     O_R   0.387104 0.463165 0.893985 -0.295955
O96   O     O_R   0.406042 0.426467 0.951773 -0.309997
N17   N     N_R   0.035624 0.307571 0.572070 0.179439
O97   O     O_R   0.070430 0.313604 0.582874 -0.208308
O98   O     O_R   0.016188 0.283541 0.595541 -0.293624
N18   N     N_R   0.307571 0.964376 0.572070 0.179438
O99   O     O_R   0.313604 0.929570 0.582874 -0.208308
O100  O     O_R   0.283541 0.983812 0.595541 -0.293624
N19   N     N_R   0.964377 0.692429 0.572070 0.179439
O101  O     O_R   0.929571 0.686396 0.582875 -0.208308
O102  O     O_R   0.983813 0.716459 0.595541 -0.293624
N20   N     N_R   0.692429 0.035624 0.572070 0.179438
O103  O     O_R   0.686394 0.070429 0.582875 -0.208309
O104  O     O_R   0.716459 0.016188 0.595541 -0.293623
N21   N     N_R   0.035623 0.692429 0.427929 0.179439
O105  O     O_R   0.070429 0.686396 0.417125 -0.208308
O106  O     O_R   0.016187 0.716459 0.404459 -0.293621
N22   N     N_R   0.307571 0.035624 0.427930 0.179438
O107  O     O_R   0.313605 0.070429 0.417125 -0.208308
O108  O     O_R   0.283541 0.016187 0.404459 -0.293623
N23   N     N_R   0.964376 0.307571 0.427930 0.179439
O109  O     O_R   0.929570 0.313604 0.417125 -0.208308
O110  O     O_R   0.983812 0.283541 0.404459 -0.293621
N24   N     N_R   0.692429 0.964376 0.427930 0.179439
O111  O     O_R   0.686395 0.929570 0.417126 -0.208309
O112  O     O_R   0.716459 0.983812 0.404459 -0.293623
N25   N     N_R   0.535621 0.807571 0.072073 0.179441
O113  O     O_R   0.570426 0.813605 0.082880 -0.208308
O114  O     O_R   0.516183 0.783541 0.095543 -0.293613
N26   N     N_R   0.807571 0.464370 0.072066 0.179438
O115  O     O_R   0.813604 0.429564 0.082866 -0.208308
O116  O     O_R   0.783541 0.483805 0.095539 -0.293623
N27   N     N_R   0.464372 0.192429 0.072067 0.179439
O117  O     O_R   0.429565 0.186395 0.082869 -0.208308
O118  O     O_R   0.483807 0.216458 0.095540 -0.293619
N28   N     N_R   0.192429 0.535623 0.072070 0.179438
O119  O     O_R   0.186396 0.570429 0.082875 -0.208308
O120  O     O_R   0.216459 0.516187 0.095541 -0.293622
N29   N     N_R   0.535628 0.192429 0.927933 0.179438
O121  O     O_R   0.570435 0.186396 0.917132 -0.208308
O122  O     O_R   0.516193 0.216459 0.904460 -0.293622
N30   N     N_R   0.807571 0.535630 0.927934 0.179440
O123  O     O_R   0.813603 0.570437 0.917135 -0.208308
O124  O     O_R   0.783542 0.516195 0.904459 -0.293617
N31   N     N_R   0.464379 0.807571 0.927928 0.179438
O125  O     O_R   0.429574 0.813606 0.917119 -0.208309
O126  O     O_R   0.483816 0.783539 0.904460 -0.293628
N32   N     N_R   0.192429 0.464377 0.927929 0.179438
O127  O     O_R   0.186395 0.429571 0.917124 -0.208308
O128  O     O_R   0.216459 0.483813 0.904459 -0.293623
N33   N     N_R   0.036822 0.387067 0.570815 0.165638
O129  O     O_R   0.073001 0.391294 0.570898 -0.244438
O130  O     O_R   0.016555 0.405567 0.599940 -0.349719
N34   N     N_R   0.387067 0.963178 0.570815 0.165639
O131  O     O_R   0.391295 0.926999 0.570898 -0.244439
O132  O     O_R   0.405566 0.983445 0.599941 -0.349718
N35   N     N_R   0.963179 0.612933 0.570815 0.165638
O133  O     O_R   0.927000 0.608705 0.570898 -0.244439
O134  O     O_R   0.983446 0.594433 0.599941 -0.349719
N36   N     N_R   0.612933 0.036822 0.570815 0.165639
O135  O     O_R   0.608703 0.073001 0.570895 -0.244441
O136  O     O_R   0.594435 0.016555 0.599942 -0.349714
N37   N     N_R   0.036821 0.612933 0.429185 0.165638
O137  O     O_R   0.073000 0.608705 0.429102 -0.244439
O138  O     O_R   0.016554 0.594433 0.400059 -0.349720
N38   N     N_R   0.387067 0.036822 0.429185 0.165638
O139  O     O_R   0.391295 0.073001 0.429102 -0.244440
O140  O     O_R   0.405566 0.016555 0.400059 -0.349717
N39   N     N_R   0.963178 0.387067 0.429185 0.165639
O141  O     O_R   0.926999 0.391295 0.429102 -0.244439
O142  O     O_R   0.983445 0.405567 0.400059 -0.349718
N40   N     N_R   0.612933 0.963178 0.429185 0.165639
O143  O     O_R   0.608705 0.926999 0.429103 -0.244439
O144  O     O_R   0.594434 0.983445 0.400059 -0.349717
N41   N     N_R   0.536819 0.887067 0.070817 0.165637
O145  O     O_R   0.572998 0.891296 0.070902 -0.244441
O146  O     O_R   0.516551 0.905567 0.099942 -0.349718
N42   N     N_R   0.887066 0.463172 0.070810 0.165643
O147  O     O_R   0.891295 0.426993 0.070888 -0.244437
O148  O     O_R   0.905565 0.483436 0.099939 -0.349713
N43   N     N_R   0.463174 0.112933 0.070812 0.165642
O149  O     O_R   0.426995 0.108705 0.070890 -0.244438
O150  O     O_R   0.483439 0.094434 0.099940 -0.349715
N44   N     N_R   0.112933 0.536821 0.070815 0.165638
O151  O     O_R   0.108706 0.573000 0.070899 -0.244438
O152  O     O_R   0.094433 0.516554 0.099941 -0.349719
N45   N     N_R   0.536826 0.112934 0.929188 0.165642
O153  O     O_R   0.573005 0.108706 0.929109 -0.244437
O154  O     O_R   0.516561 0.094434 0.900061 -0.349716
N46   N     N_R   0.887067 0.536828 0.929189 0.165643
O155  O     O_R   0.891293 0.573007 0.929110 -0.244434
O156  O     O_R   0.905568 0.516563 0.900062 -0.349718
N47   N     N_R   0.463181 0.887067 0.929183 0.165637
O157  O     O_R   0.427002 0.891298 0.929101 -0.244444
O158  O     O_R   0.483449 0.905564 0.900056 -0.349712
N48   N     N_R   0.112933 0.463179 0.929185 0.165639
O159  O     O_R   0.108705 0.427000 0.929102 -0.244440
O160  O     O_R   0.094434 0.483446 0.900059 -0.349717

loop_
_geom_bond_atom_site_label_1
_geom_bond_atom_site_label_2
_geom_bond_distance
_ccdc_geom_bond_type
O45   Cu12  1.947110 S    
O8    Cu2   1.951933 S    
C8    C144  1.471637 S    
O40   Cu10  1.947113 S    
C68   C80   1.410589 A    
C10   C18   1.505014 S    
C49   C85   1.418509 A    
C51   C87   1.418505 A    
C14   C22   1.505014 S    
C45   C165  1.492809 S    
O43   C159  1.244028 A    
N6    O75   1.300835 A    
O18   Cu2   1.831758 S    
C165  O53   1.220439 D    
C58   C74   1.410590 A    
C42   C162  1.492810 S    
C123  N35   1.432824 S    
O25   C13   1.307541 A    
C22   C30   1.247096 T    
C175  O63   1.220441 D    
C172  O60   1.220443 D    
C111  N23   1.436914 S    
C64   C76   1.410589 A    
C118  C134  1.407690 A    
N3    O69   1.300835 A    
O19   Cu3   1.831758 S    
N2    O67   1.300832 A    
Cu1   Cu3   2.661444 S    
Cu2   Cu4   2.661444 S    
N7    O78   1.300776 A    
O3    C3    1.290219 A    
N20   O103  1.300588 A    
C44   C164  1.492807 S    
C60   N4    1.435168 S    
C55   C175  1.492809 S    
C169  H9    1.083637 S    
C66   C78   1.410587 A    
O25   Cu5   1.831758 S    
C42   C58   1.410847 A    
O5    Cu1   1.951933 S    
O38   Cu10  1.947110 S    
O39   Cu10  1.947114 S    
N34   O131  1.300563 A    
N29   O122  1.301173 A    
C170  O58   1.220441 D    
C56   C176  1.492806 S    
O44   Cu11  1.947110 S    
N19   O101  1.300590 A    
C44   C60   1.410847 A    
C109  N21   1.436914 S    
C171  H11   1.083633 S    
O41   Cu11  1.947110 S    
N42   O148  1.300732 A    
O17   C9    1.307541 A    
C72   C80   1.410591 A    
C136  N48   1.432825 S    
C63   C73   1.410591 A    
C105  N17   1.436916 S    
N16   O95   1.300832 A    
C128  C140  1.408985 A    
O31   C15   1.307538 A    
C41   C81   1.418503 A    
C135  N47   1.432825 S    
N40   O144  1.300731 A    
C113  N25   1.436916 S    
C117  C151  1.410150 A    
C115  N27   1.436914 S    
C62   C74   1.410588 A    
C163  H3    1.083630 S    
C50   C86   1.418503 A    
O42   C158  1.244025 A    
C164  O52   1.220439 D    
C63   N7    1.435170 S    
C47   C63   1.410847 A    
C174  O62   1.220445 D    
N10   O83   1.300836 A    
C23   C31   1.247096 T    
O26   Cu6   1.831758 S    
C34   C39   1.247193 T    
N1    O66   1.300780 A    
N41   O145  1.300565 A    
C61   C75   1.410589 A    
C121  C137  1.408985 A    
N39   O141  1.300563 A    
O27   C13   1.307538 A    
C3    C139  1.471637 S    
C132  N44   1.432825 S    
C1    C137  1.471637 S    
C136  C144  1.408985 A    
C75   C154  1.478710 S    
O46   Cu12  1.947110 S    
C53   C87   1.418504 A    
C73   C156  1.478710 S    
C65   N9    1.435169 S    
C108  C148  1.410150 A    
N33   O129  1.300565 A    
C15   C23   1.505014 S    
O9    C5    1.290222 A    
C105  C121  1.407690 A    
C111  C127  1.407690 A    
O11   C7    1.290219 A    
C49   C169  1.492812 S    
C45   C83   1.418506 A    
C78   C157  1.478714 S    
N28   O119  1.300588 A    
O16   Cu6   1.951933 S    
O7    Cu3   1.951936 S    
N23   O109  1.300590 A    
O36   C156  1.244026 A    
C89   C97   1.205007 T    
C86   C94   1.447143 S    
N31   O125  1.300592 A    
C103  C151  1.443401 S    
O6    Cu4   1.951937 S    
N16   O96   1.300776 A    
C42   C82   1.418503 A    
C134  N46   1.432828 S    
O15   Cu7   1.951936 S    
N38   O139  1.300565 A    
C131  N43   1.432828 S    
C29   C37   1.479115 S    
C48   C84   1.418504 A    
C134  C142  1.408985 A    
C31   C39   1.479115 S    
N45   O153  1.300567 A    
O21   Cu1   1.831755 S    
O33   Cu9   1.947110 S    
C106  N18   1.436914 S    
N9    O81   1.300835 A    
O23   C11   1.307538 A    
C76   C155  1.478710 S    
C118  C150  1.410151 A    
N32   O127  1.300589 A    
C110  C126  1.407694 A    
C69   N13   1.435169 S    
C166  H6    1.083632 S    
C84   C92   1.447140 S    
C173  H13   1.083630 S    
O19   C9    1.307538 A    
N36   O135  1.300567 A    
O2    Cu2   1.951937 S    
C19   C27   1.247096 T    
C52   C68   1.410847 A    
C54   C174  1.492808 S    
N13   O90   1.300779 A    
O28   C14   1.307541 A    
O26   C14   1.307538 A    
O29   C15   1.307541 A    
O38   C156  1.244027 A    
C165  H5    1.083632 S    
O30   C16   1.307538 A    
C110  N22   1.436914 S    
C135  C141  1.408979 A    
O29   Cu5   1.831755 S    
C95   C103  1.205007 T    
C130  C142  1.408984 A    
N21   O106  1.301173 A    
C48   C64   1.410848 A    
N14   O92   1.300775 A    
O34   Cu9   1.947113 S    
O17   Cu1   1.831758 S    
N25   O114  1.301174 A    
N12   O88   1.300777 A    
C47   C167  1.492807 S    
C108  C124  1.407691 A    
C109  C125  1.407690 A    
N46   O155  1.300564 A    
C128  N40   1.432825 S    
Cu9   Cu10  2.495023 S    
C116  C132  1.407690 A    
C46   C166  1.492807 S    
C105  C145  1.410147 A    
N19   O102  1.301170 A    
N18   O100  1.301173 A    
C107  N19   1.436916 S    
C161  H1    1.083630 S    
O34   C154  1.244027 A    
C124  N36   1.432827 S    
C168  O56   1.220441 D    
C17   C25   1.247096 T    
N30   O124  1.301170 A    
C167  O55   1.220444 D    
C20   C28   1.247096 T    
N48   O159  1.300562 A    
C176  O64   1.220442 D    
C48   C168  1.492809 S    
C163  O51   1.220443 D    
O32   Cu6   1.831755 S    
N15   O94   1.300780 A    
C123  C139  1.408984 A    
C125  C139  1.408984 A    
N44   O152  1.300731 A    
C27   C35   1.479115 S    
C46   C62   1.410851 A    
O35   Cu9   1.947114 S    
O18   C10   1.307538 A    
N8    O80   1.300777 A    
N23   O110  1.301174 A    
O22   Cu4   1.831756 S    
C131  C143  1.408986 A    
O23   Cu3   1.831755 S    
C174  H14   1.083632 S    
C110  C146  1.410148 A    
N5    O74   1.300777 A    
O44   C160  1.244028 A    
O1    C1    1.290222 A    
C61   N5    1.435169 S    
C71   C77   1.410585 A    
O46   C160  1.244025 A    
O14   C6    1.290222 A    
N6    O76   1.300776 A    
C6    C142  1.471640 S    
C107  C123  1.407690 A    
C57   N1    1.435168 S    
N10   O84   1.300778 A    
N4    O72   1.300775 A    
N47   O158  1.300733 A    
C122  C138  1.408983 A    
C91   C99   1.205007 T    
O30   Cu8   1.831756 S    
N26   O115  1.300588 A    
C2    C138  1.471637 S    
C79   C158  1.478713 S    
N2    O68   1.300777 A    
C49   C65   1.410847 A    
N4    O71   1.300834 A    
N20   O104  1.301174 A    
C53   C69   1.410848 A    
C52   C172  1.492806 S    
C167  H7    1.083633 S    
C60   C76   1.410591 A    
C112  C148  1.410150 A    
O22   C12   1.307538 A    
C162  H2    1.083632 S    
N34   O132  1.300731 A    
N29   O121  1.300589 A    
C45   C61   1.410851 A    
C175  H15   1.083631 S    
C51   C171  1.492812 S    
O10   C6    1.290219 A    
C80   C159  1.478710 S    
C106  C122  1.407690 A    
O47   Cu12  1.947114 S    
C74   C153  1.478710 S    
C98   C146  1.443405 S    
C87   C95   1.447143 S    
C88   C96   1.447143 S    
C59   C75   1.410590 A    
C16   C24   1.505014 S    
O2    C2    1.290219 A    
C54   C86   1.418504 A    
C85   C93   1.447143 S    
N35   O133  1.300563 A    
C102  C150  1.443401 S    
C56   C88   1.418504 A    
N8    O79   1.300834 A    
N17   O98   1.301173 A    
O31   Cu7   1.831755 S    
C50   C170  1.492809 S    
C46   C82   1.418504 A    
C126  C138  1.408984 A    
C97   C145  1.443405 S    
C124  C140  1.408982 A    
C71   N15   1.435169 S    
C114  C150  1.410148 A    
O45   C157  1.244023 A    
C43   C59   1.410847 A    
N1    O65   1.300834 A    
O21   C11   1.307541 A    
C65   C77   1.410592 A    
C67   C79   1.410587 A    
C112  C128  1.407690 A    
O36   Cu9   1.947110 S    
O13   Cu5   1.951933 S    
C72   N16   1.435171 S    
C100  C148  1.443405 S    
C62   N6    1.435169 S    
C101  C149  1.443401 S    
C50   C66   1.410848 A    
Cu11  Cu12  2.495023 S    
C47   C81   1.418503 A    
O3    Cu3   1.951933 S    
C113  C149  1.410149 A    
C104  C152  1.443401 S    
C107  C147  1.410148 A    
C54   C70   1.410848 A    
O40   C154  1.244026 A    
C119  N31   1.436916 S    
N11   O85   1.300834 A    
C172  H12   1.083630 S    
O28   Cu8   1.831758 S    
C118  N30   1.436915 S    
C94   C102  1.205007 T    
N7    O77   1.300834 A    
O47   C159  1.244026 A    
C168  H8    1.083632 S    
N28   O120  1.301172 A    
O41   C157  1.244026 A    
C127  C137  1.408982 A    
C109  C147  1.410149 A    
C169  O57   1.220445 D    
O9    Cu5   1.951936 S    
N27   O117  1.300590 A    
O11   Cu7   1.951933 S    
C170  H10   1.083632 S    
C69   C79   1.410590 A    
N38   O140  1.300731 A    
C111  C145  1.410151 A    
O12   C8    1.290222 A    
C59   N3    1.435168 S    
C83   C91   1.447140 S    
C106  C146  1.410150 A    
C81   C89   1.447143 S    
N42   O147  1.300566 A    
C66   N10   1.435167 S    
N43   O149  1.300565 A    
O5    C3    1.290222 A    
C70   N14   1.435171 S    
C92   C100  1.205007 T    
C41   C161  1.492805 S    
C93   C101  1.205007 T    
C58   N2    1.435170 S    
N40   O143  1.300565 A    
C9    C17   1.505014 S    
C96   C104  1.205007 T    
C114  C130  1.407691 A    
N32   O128  1.301172 A    
C12   C20   1.505014 S    
C133  N45   1.432826 S    
C13   C21   1.505014 S    
C166  O54   1.220441 D    
C164  H4    1.083632 S    
N36   O136  1.300731 A    
C133  C143  1.408983 A    
C32   C40   1.479115 S    
N13   O89   1.300832 A    
C113  C129  1.407690 A    
N41   O146  1.300730 A    
C67   N11   1.435171 S    
C43   C83   1.418503 A    
C117  C133  1.407694 A    
C7    C143  1.471640 S    
C26   C34   1.479115 S    
O48   Cu12  1.947113 S    
O14   Cu8   1.951937 S    
N15   O93   1.300832 A    
C30   C38   1.479115 S    
N43   O150  1.300732 A    
N21   O105  1.300589 A    
C119  C149  1.410153 A    
C117  N29   1.436912 S    
C4    C140  1.471637 S    
C43   C163  1.492809 S    
N25   O113  1.300588 A    
N46   O156  1.300732 A    
C5    C141  1.471637 S    
C56   C72   1.410847 A    
O13   C7    1.290222 A    
O8    C4    1.290219 A    
O4    Cu4   1.951933 S    
N24   O112  1.301172 A    
N3    O70   1.300779 A    
N22   O108  1.301172 A    
N33   O130  1.300730 A    
C171  O59   1.220439 D    
C25   C33   1.479115 S    
C114  N26   1.436913 S    
N22   O107  1.300588 A    
O32   C16   1.307541 A    
C18   C26   1.247096 T    
N35   O134  1.300732 A    
N47   O157  1.300565 A    
N48   O160  1.300729 A    
N9    O82   1.300777 A    
O16   C8    1.290219 A    
C119  C135  1.407694 A    
C120  C136  1.407691 A    
C99   C147  1.443405 S    
C52   C88   1.418505 A    
N45   O154  1.300734 A    
Cu5   Cu7   2.661444 S    
C64   N8    1.435170 S    
O6    C2    1.290222 A    
Cu6   Cu8   2.661444 S    
N37   O138  1.300732 A    
O27   Cu7   1.831758 S    
C121  N33   1.432826 S    
C36   C37   1.247193 T    
C116  N28   1.436914 S    
C112  N24   1.436916 S    
O7    C1    1.290219 A    
N5    O73   1.300835 A    
C173  O61   1.220442 D    
O42   Cu11  1.947113 S    
C77   C160  1.478710 S    
N39   O142  1.300730 A    
O35   C155  1.244028 A    
N27   O118  1.301171 A    
C132  C144  1.408983 A    
O33   C153  1.244028 A    
C129  C141  1.408983 A    
O24   C12   1.307541 A    
N31   O126  1.301172 A    
C120  N32   1.436913 S    
C28   C36   1.479115 S    
C70   C78   1.410590 A    
N11   O86   1.300777 A    
O24   Cu2   1.831755 S    
N37   O137  1.300566 A    
O12   Cu8   1.951933 S    
C115  C151  1.410152 A    
C116  C152  1.410150 A    
C130  N42   1.432828 S    
C55   C85   1.418502 A    
N26   O116  1.301173 A    
C53   C173  1.492808 S    
C127  N39   1.432827 S    
C57   C73   1.410587 A    
C122  N34   1.432826 S    
N14   O91   1.300835 A    
C21   C29   1.247096 T    
N12   O87   1.300835 A    
C162  O50   1.220441 D    
O48   C158  1.244024 A    
O4    C4    1.290222 A    
C11   C19   1.505014 S    
C44   C84   1.418506 A    
O43   Cu11  1.947114 S    
N18   O99   1.300588 A    
C129  N41   1.432826 S    
C161  O49   1.220442 D    
C55   C71   1.410851 A    
O20   Cu4   1.831758 S    
C41   C57   1.410851 A    
C126  N38   1.432823 S    
C125  N37   1.432827 S    
O20   C10   1.307541 A    
N30   O123  1.300589 A    
C33   C40   1.247193 T    
O39   C155  1.244026 A    
C24   C32   1.247096 T    
N17   O97   1.300586 A    
O10   Cu6   1.951937 S    
C35   C38   1.247193 T    
O37   C153  1.244025 A    
C176  H16   1.083630 S    
C108  N20   1.436913 S    
C120  C152  1.410150 A    
C115  C131  1.407690 A    
O15   C5    1.290219 A    
N24   O111  1.300589 A    
N44   O151  1.300569 A    
O1    Cu1   1.951936 S    
C82   C90   1.447143 S    
O37   Cu10  1.947110 S    
C68   N12   1.435169 S    
C51   C67   1.410847 A    
C90   C98   1.205004 T    
