data_mof_unit_33387.cif
_audit_creation_date              2012-12-10T20:41:04-0500
_audit_creation_method            fapswitch 2.2
_symmetry_space_group_name_H-M    P1
_symmetry_Int_Tables_number       1
_space_group_crystal_system       triclinic
_cell_length_a                    27.753096
_cell_length_b                    10.67356
_cell_length_c                    9.846225
_cell_angle_alpha                 89.874511
_cell_angle_beta                  89.771733
_cell_angle_gamma                 90.135728
_cell_volume                      2916.65306909

loop_
_atom_site_label
_atom_site_type_symbol
_atom_type_description
_atom_site_fract_x
_atom_site_fract_y
_atom_site_fract_z
_atom_type_partial_charge
C1    C     C_R   0.501522 0.259863 0.500097 0.888681
C2    C     C_R   0.974219 0.388332 0.458247 0.071922
C3    C     C_R   0.974707 0.599158 0.560155 0.046721
C4    C     C_R   0.405982 0.500262 0.500285 0.880143
C5    C     C_R   0.949245 0.494933 0.507176 0.075134
C6    C     C_R   0.947433 0.291360 0.395999 -0.212573
C7    C     C_R   0.897542 0.295348 0.390727 -0.134731
C8    C     C_R   0.872569 0.396663 0.445783 -0.022226
C9    C     C_R   0.898261 0.497218 0.503238 -0.055588
C10   C     C_R   0.872873 0.599978 0.556920 -0.021365
C11   C     C_R   0.822510 0.599888 0.552978 0.506758
C12   C     C_R   0.278183 0.492856 0.627010 -0.086605
C13   C     C_R   0.822201 0.400200 0.444321 0.508208
C14   C     C_R   0.721987 0.491439 0.621175 -0.099485
C15   C     C_R   0.671951 0.491385 0.621881 -0.214223
C16   C     C_R   0.501673 0.740080 0.499858 0.889130
C17   C     C_R   0.672003 0.510129 0.375836 -0.215034
C18   C     C_R   0.722063 0.510553 0.375519 -0.096404
C19   C     C_R   0.747048 0.501070 0.498114 0.314174
C20   C     C_R   0.024993 0.382657 0.471305 -0.013153
C21   C     C_R   0.050700 0.489909 0.513891 0.079867
C22   C     C_R   0.025734 0.599701 0.555343 0.055870
C23   C     C_R   0.252849 0.495157 0.504789 0.299216
C24   C     C_R   0.050653 0.271309 0.446989 -0.309384
C25   C     C_R   0.102544 0.705963 0.586141 -0.074057
C26   C     C_R   0.948055 0.699445 0.616400 -0.208622
C27   C     C_R   0.898106 0.699731 0.614349 -0.131147
C28   C     C_R   0.593981 0.500147 0.499746 0.870131
C29   C     C_R   0.052759 0.707244 0.589168 -0.192871
C30   C     C_R   0.509552 0.063520 0.623183 0.143232
C31   C     C_R   0.509451 0.128549 0.500527 -0.104521
C32   C     C_R   0.518826 0.065134 0.378603 -0.213263
C33   C     C_R   0.518962 0.935564 0.378482 -0.214206
C34   C     C_R   0.101787 0.487907 0.514142 -0.097986
C35   C     C_R   0.509725 0.871369 0.500284 -0.102960
C36   C     C_R   0.509767 0.935710 0.623093 0.126963
C37   C     C_3   0.475561 0.927557 0.740482 -0.463097
C38   C     C_3   0.475143 0.069484 0.740144 -0.488763
C39   C     C_R   0.479747 0.402738 0.071877 0.209985
C40   C     C_R   0.178180 0.384611 0.471767 0.555021
C41   C     C_R   0.523890 0.589839 0.071546 -0.129518
C42   C     C_R   0.523912 0.589819 0.927434 -0.132058
C43   C     C_R   0.479561 0.403005 0.929124 0.212386
C44   C     C_3   0.427941 0.364228 0.925291 -0.507978
C45   C     C_R   0.127315 0.377257 0.478869 -0.155122
C46   C     C_3   0.428414 0.362494 0.079234 -0.490793
C47   C     C_R   0.177480 0.597297 0.546126 0.522965
C48   C     C_R   0.277441 0.500673 0.380764 -0.077928
C49   C     C_R   0.327520 0.503102 0.378965 -0.203860
C50   C     C_R   0.328176 0.495407 0.625484 -0.206150
C51   C     C_R   0.100789 0.265668 0.452856 0.431204
C52   C     C_R   0.127329 0.597573 0.549411 -0.009800
C53   C     C_R   0.353269 0.499791 0.501433 -0.048415
C54   C     C_R   0.646620 0.500542 0.499124 -0.041168
H1    H     H_    0.347009 0.493771 0.721288 0.153796
H2    H     H_    0.522778 0.886803 0.282664 0.165656
H3    H     H_    0.440286 0.885295 0.712684 0.214665
H4    H     H_    0.259029 0.488869 0.722975 0.145568
H5    H     H_    0.492771 0.886964 0.832307 0.200563
H6    H     H_    0.439666 0.109514 0.711221 0.206428
H7    H     H_    0.491925 0.110971 0.832046 0.204037
H8    H     H_    0.542407 0.663624 0.125626 0.143027
H9    H     H_    0.542463 0.663552 0.872596 0.148014
H10   H     H_    0.404375 0.438458 0.883129 0.214763
H11   H     H_    0.422819 0.269979 0.880316 0.202786
H12   H     H_    0.257690 0.503179 0.286168 0.147948
H13   H     H_    0.404744 0.434839 0.124915 0.216222
H14   H     H_    0.424418 0.266951 0.123066 0.207686
H15   H     H_    0.653200 0.483689 0.718227 0.164700
H16   H     H_    0.741380 0.483630 0.716034 0.144180
H17   H     H_    0.878614 0.218396 0.342894 0.194705
H18   H     H_    0.964060 0.212357 0.346661 0.157916
H19   H     H_    0.031872 0.184904 0.428485 0.185947
H20   H     H_    0.345917 0.507790 0.282079 0.153818
H21   H     H_    0.072997 0.999350 0.533575 0.333123
H22   H     H_    0.121598 0.791254 0.612283 0.216899
H23   H     H_    0.964614 0.778273 0.666011 0.146042
H24   H     H_    0.653271 0.517639 0.279884 0.163435
H25   H     H_    0.879328 0.778777 0.658476 0.192766
H26   H     H_    0.741510 0.518357 0.280291 0.144747
H27   H     H_    0.036558 0.795633 0.614847 0.140591
H28   H     H_    0.522579 0.114434 0.282825 0.170694
N1    N     N_R   0.201514 0.492382 0.507132 -0.369104
N2    N     N_R   0.798414 0.500644 0.497857 -0.357035
N3    N     N_R   0.499670 0.499140 0.142800 -0.107104
N4    N     N_R   0.499670 0.499180 0.857150 -0.106583
O1    O     O_R   0.500010 0.316790 0.614690 -0.615692
O2    O     O_R   0.571250 0.500000 0.614690 -0.622632
O3    O     O_R   0.571240 0.499960 0.385340 -0.623473
O4    O     O_2   0.204614 0.287155 0.427797 -0.453635
O5    O     O_2   0.152742 0.106858 0.300175 -0.187198
O6    O     O_2   0.162099 0.089938 0.547022 -0.240690
O7    O     O_3   0.084486 0.001284 0.438215 -0.557833
O8    O     O_2   0.797095 0.303571 0.391392 -0.554277
O9    O     O_2   0.202298 0.701587 0.580012 -0.517353
O10   O     O_2   0.797718 0.698275 0.603100 -0.554740
O11   O     O_R   0.500000 0.316760 0.385350 -0.622826
O12   O     O_R   0.428760 0.500040 0.614660 -0.622048
O13   O     O_R   0.428750 0.500000 0.385310 -0.619275
O14   O     O_R   0.500000 0.683240 0.614650 -0.621187
O15   O     O_R   0.499990 0.683210 0.385310 -0.625180
S1    S     S_3+6 0.126888 0.114167 0.434326 0.081809
Zn1   Zn    Zn3+2 0.500000 0.500020 0.653130 0.951249
Zn2   Zn    Zn3+2 0.500000 0.499980 0.346870 0.951432

loop_
_geom_bond_atom_site_label_1
_geom_bond_atom_site_label_2
_ccdc_geom_bond_type
C10   C27   A    
C1    O1    A    
C8    C13   A    
C22   C29   A    
C4    O12   A    
C4    C53   S    
C41   C42   A    
C35   C36   A    
C7    C8    A    
C44   H10   S    
C51   S1    S    
C6    H18   S    
C13   N2    A    
C26   C27   A    
C23   N1    S    
C36   C37   S    
C27   H25   S    
C16   C35   S    
C7    H17   S    
C30   C31   A    
C24   H19   S    
C45   C51   A    
O12   Zn1   S    
C1    C31   S    
C30   C38   S    
C18   C19   A    
C11   O10   S    
C46   H14   S    
C20   C24   A    
C8    C9    A    
C28   O2    A    
C28   O3    A    
C42   N4    A    
C47   N1    A    
C9    C10   A    
O6    S1    D    
C38   H7    S    
C12   H4    S    
C24   C51   A    
O13   Zn2   S    
C21   C22   A    
C14   H16   S    
C40   N1    A    
C44   H11   S    
C2    C6    A    
C41   H8    S    
N4    Zn1   S    
C44   C46   S    
C25   C29   A    
C40   C45   A    
C15   H15   S    
C50   C53   A    
C2    C20   A    
C26   H23   S    
C15   C54   A    
C1    O11   A    
C28   C54   S    
C16   O14   A    
C39   C43   A    
C21   C34   A    
O14   Zn1   S    
C47   C52   A    
C43   C44   S    
C29   H27   S    
C37   C38   S    
C31   C32   A    
C12   C23   A    
C17   C18   A    
C34   C45   A    
C37   H5    S    
N3    Zn2   S    
C39   C46   S    
C38   H6    S    
C48   C49   A    
O15   Zn2   S    
O3    Zn2   S    
O1    Zn1   S    
C2    C5    A    
C39   N3    A    
O5    S1    D    
C19   N2    S    
O2    Zn1   S    
C41   N3    A    
H21   O7    S    
C23   C48   A    
C14   C15   A    
C43   N4    A    
C14   C19   A    
C3    C26   A    
C5    C9    A    
C3    C5    A    
O7    S1    S    
C12   C50   A    
C6    C7    A    
C11   N2    A    
C32   H28   S    
C34   C52   A    
C50   H1    S    
C30   C36   A    
C13   O8    S    
C25   H22   S    
C40   O4    S    
C32   C33   A    
C25   C52   A    
C46   H13   S    
C33   H2    S    
C49   C53   A    
C42   H9    S    
C17   H24   S    
C33   C35   A    
O11   Zn2   S    
C10   C11   A    
C16   O15   A    
C20   C21   A    
C18   H26   S    
C4    O13   A    
C47   O9    S    
C49   H20   S    
C3    C22   A    
C48   H12   S    
C17   C54   A    
C37   H3    S    
