data_mof_unit_56030.cif
_audit_creation_date              2012-12-10T17:17:25-0500
_audit_creation_method            fapswitch 2.2
_symmetry_space_group_name_H-M    P1
_symmetry_Int_Tables_number       1
_space_group_crystal_system       triclinic
_cell_length_a                    10.193274
_cell_length_b                    10.54036
_cell_length_c                    12.747777
_cell_angle_alpha                 91.64446
_cell_angle_beta                  110.298669
_cell_angle_gamma                 94.803654
_cell_volume                      1277.61491778

loop_
_atom_site_label
_atom_site_type_symbol
_atom_type_description
_atom_site_fract_x
_atom_site_fract_y
_atom_site_fract_z
_atom_type_partial_charge
C1    C     C_R   0.046533 0.733321 0.486885 0.796961
C2    C     C_R   0.435911 0.545047 0.988672 -0.133727
C3    C     C_R   0.366507 0.557243 0.873974 -0.067785
C4    C     C_R   0.573116 0.504445 0.022808 -0.107667
C5    C     C_R   0.640747 0.484959 0.943077 -0.145608
C6    C     C_R   0.570068 0.509636 0.830888 0.123100
C7    C     C_R   0.448367 0.571728 0.804949 0.258822
C8    C     C_R   0.641330 0.472389 0.132011 0.662211
C9    C     C_R   0.853187 0.445880 0.093417 -0.278040
C10   C     C_R   0.218303 0.552847 0.832033 -0.225370
C11   C     C_2   0.059275 0.866446 0.462229 0.389252
C12   C     C_R   0.137821 0.521229 0.712381 0.968708
C13   C     C_2   0.943403 0.924612 0.408000 0.156328
C14   C     C_2   0.906732 0.128752 0.482729 0.444748
C15   C     C_2   0.958632 0.063359 0.416632 -0.238109
C16   C     C_2   0.424814 0.527036 0.482178 -0.041977
C17   C     C_2   0.567120 0.487323 0.488494 0.055843
C18   C     C_R   0.946684 0.265392 0.502403 0.811944
C19   C     C_R   0.862951 0.480332 0.288382 0.921663
C20   C     C_R   0.778813 0.447038 0.979875 0.628229
C21   C     C_R   0.785340 0.464145 0.169600 -0.332275
C22   C     C_R   0.147389 0.573459 0.906693 -0.346716
C23   C     C_R   0.222525 0.594173 0.020871 0.592454
C24   C     C_R   0.366229 0.580612 0.062681 0.619569
H1    H     H_    0.963419 0.430143 0.121481 0.246863
H2    H     H_    0.570251 0.395704 0.448861 0.151793
H3    H     H_    0.414906 0.624663 0.504101 0.186090
H4    H     H_    0.327771 0.353871 0.436567 0.178979
H5    H     H_    0.034757 0.577626 0.876493 0.248771
H6    H     H_    0.028112 0.110776 0.378420 0.158399
N1    N     N_2   0.313640 0.446500 0.454900 -0.186554
N2    N     N_2   0.686360 0.553430 0.545150 -0.053820
O1    O     O_R   0.936910 0.692950 0.509080 -0.640985
O2    O     O_R   0.138320 0.658600 0.480130 -0.561945
O3    O     O_R   0.002900 0.525670 0.675280 -0.611904
O4    O     O_R   0.204310 0.491320 0.646330 -0.585664
O5    O     O_R   0.861680 0.341400 0.519870 -0.577525
O6    O     O_R   0.063090 0.307050 0.490920 -0.640912
O7    O     O_R   0.795690 0.508680 0.353670 -0.555041
O8    O     O_R   0.997100 0.474330 0.324720 -0.601823
Zn1   Zn    Zn3+2 0.865520 0.522940 0.519330 0.996921
Zn2   Zn    Zn3+2 0.134480 0.477060 0.480670 0.995511
N3    N     N_2   0.809184 0.854195 0.349355 -0.287061
H7    H     H_    0.814353 0.764165 0.318130 0.223744
C25   C     C_3   0.701922 0.920415 0.270513 -0.653418
H8    H     H_    0.605771 0.853545 0.230733 0.270251
H9    H     H_    0.739494 0.956931 0.203932 0.214697
H10   H     H_    0.673031 0.000332 0.313939 0.273455
F1    F     F_    0.820031 0.069979 0.531064 -0.653898
F2    F     F_    0.188137 0.934101 0.504545 -0.678014
N4    N     N_2   0.674513 0.680499 0.566163 -0.262156
H11   H     H_    0.673986 0.734465 0.499791 0.287555
C26   C     C_3   0.772540 0.737161 0.671978 -0.638728
H12   H     H_    0.758693 0.840110 0.678585 0.250418
H13   H     H_    0.882633 0.728230 0.679300 0.264873
H14   H     H_    0.752281 0.692699 0.743065 0.203981
N5    N     N_2   0.607522 0.460342 0.741331 -0.317646
H15   H     H_    0.709487 0.483313 0.746552 0.296418
C27   C     C_3   0.558916 0.326952 0.709932 -0.637991
H16   H     H_    0.606140 0.267310 0.781327 0.259922
H17   H     H_    0.590119 0.295197 0.638998 0.235273
H18   H     H_    0.442432 0.312504 0.683258 0.240193
F3    F     F_    0.847840 0.420196 0.909657 -0.687389
F4    F     F_    0.568020 0.437244 0.199282 -0.615136
F5    F     F_    0.437062 0.616349 0.172326 -0.606623
F6    F     F_    0.155475 0.625940 0.091572 -0.627011
N6    N     N_2   0.420304 0.661022 0.719260 -0.284796
H19   H     H_    0.497079 0.671457 0.684241 0.236771
C28   C     C_3   0.385543 0.784720 0.748128 -0.720462
H20   H     H_    0.377884 0.848558 0.678952 0.289240
H21   H     H_    0.468840 0.828679 0.825523 0.228118
H22   H     H_    0.282565 0.776815 0.760025 0.235711

loop_
_geom_bond_atom_site_label_1
_geom_bond_atom_site_label_2
_ccdc_geom_bond_type
C28   H22   S    
C2    C4    A    
N3    H7    S    
H4    N1    S    
N2    N4    S    
O6    Zn2   S    
C6    C7    A    
C22   H5    S    
C12   O4    A    
C11   C13   D    
C14   C18   S    
C9    C20   A    
O4    Zn2   S    
O2    Zn2   S    
C4    C8    A    
N2    Zn1   S    
O1    Zn1   S    
C16   H3    S    
C13   C15   S    
C8    C21   A    
C18   O6    A    
C9    H1    S    
C27   H16   S    
O7    Zn1   S    
C11   F2    S    
C26   H12   S    
C10   C22   A    
C16   N1    D    
C2    C24   A    
N3    C25   S    
C6    N5    S    
C9    C21   A    
N5    H15   S    
C5    C6    A    
C10   C12   S    
C24   F5    S    
C20   F3    S    
C3    C10   A    
C17   H2    S    
C19   O7    A    
C23   F6    S    
O8    Zn2   S    
N1    Zn2   S    
C18   O5    A    
C8    F4    S    
C1    O2    A    
C2    C3    A    
C3    C7    A    
C25   H9    S    
O5    Zn1   S    
C28   H20   S    
O3    Zn1   S    
N5    C27   S    
C14   F1    S    
C27   H17   S    
C19   O8    A    
C26   H13   S    
C1    O1    A    
N6    H19   S    
C13   N3    S    
N4    H11   S    
N4    C26   S    
C15   H6    S    
C28   H21   S    
C26   H14   S    
N6    C28   S    
C5    C20   A    
C17   N2    D    
C25   H10   S    
C16   C17   S    
C27   H18   S    
C23   C24   A    
C19   C21   S    
C25   H8    S    
C7    N6    S    
C22   C23   A    
C14   C15   D    
C4    C5    A    
C12   O3    A    
C1    C11   S    
