data_mof_unit_14922.cif
_audit_creation_date              2013-03-05T15:41:35-0500
_audit_creation_method            fapswitch 2.2
_symmetry_space_group_name_H-M    P1
_symmetry_Int_Tables_number       1
_space_group_crystal_system       triclinic
_cell_length_a                    24.769686
_cell_length_b                    17.735135
_cell_length_c                    15.464182
_cell_angle_alpha                 89.631662
_cell_angle_beta                  129.266499
_cell_angle_gamma                 89.664787
_cell_volume                      5258.9172594

loop_
_atom_site_label
_atom_site_type_symbol
_atom_site_description
_atom_site_fract_x
_atom_site_fract_y
_atom_site_fract_z
_atom_type_partial_charge
C1    C     C_R   0.344351 0.370442 0.221628 -0.123123
C2    C     C_R   0.351173 0.640879 0.241760 -0.090701
C3    C     C_R   0.844348 0.870447 0.221622 -0.123113
C4    C     C_R   0.851175 0.140881 0.241764 -0.090673
H1    H     H_    0.291575 0.365175 0.190975 0.117893
H2    H     H_    0.303723 0.654928 0.227789 0.115115
H3    H     H_    0.791573 0.865185 0.190971 0.117870
H4    H     H_    0.803727 0.154929 0.227801 0.115107
N1    N     N_R   0.389430 0.421450 0.294590 -0.044463
N2    N     N_R   0.389430 0.578550 0.294590 -0.045146
N3    N     N_R   0.889430 0.921450 0.294590 -0.044474
N4    N     N_R   0.889430 0.078550 0.294590 -0.045154
C5    C     C_R   0.668413 0.395611 0.802236 -0.104199
C6    C     C_R   0.664013 0.614408 0.792230 -0.088407
C7    C     C_R   0.168413 0.895610 0.802235 -0.104314
C8    C     C_R   0.164026 0.114367 0.792278 -0.088399
H5    H     H_    0.720208 0.396099 0.827398 0.136641
H6    H     H_    0.715822 0.616762 0.817558 0.136220
H7    H     H_    0.220209 0.896105 0.827400 0.136668
H8    H     H_    0.215836 0.116715 0.817609 0.136200
N5    N     N_R   0.612200 0.424040 0.705410 -0.066336
N6    N     N_R   0.612200 0.575960 0.705410 -0.063689
N7    N     N_R   0.112200 0.924040 0.705410 -0.066383
N8    N     N_R   0.112200 0.075960 0.705410 -0.063695
C9    C     C_R   0.607269 0.378313 0.408070 -0.050638
C10   C     C_R   0.608492 0.613212 0.404098 -0.010512
C11   C     C_R   0.107242 0.878258 0.408075 -0.050526
C12   C     C_R   0.108502 0.113199 0.404104 -0.010570
H9    H     H_    0.582910 0.369517 0.321835 0.153955
H10   H     H_    0.587610 0.609025 0.318522 0.157558
H11   H     H_    0.082890 0.869455 0.321844 0.153888
H12   H     H_    0.087627 0.108999 0.318533 0.157569
N9    N     N_R   0.581780 0.422390 0.443390 -0.063688
N10   N     N_R   0.581780 0.577610 0.443390 -0.072666
N11   N     N_R   0.081780 0.922390 0.443390 -0.063676
N12   N     N_R   0.081780 0.077610 0.443390 -0.072664
C13   C     C_R   0.410779 0.360342 0.593249 0.353541
C14   C     C_R   0.383237 0.590090 0.591040 0.271427
C15   C     C_R   0.910768 0.860342 0.593239 0.353849
C16   C     C_R   0.883278 0.090130 0.591095 0.271623
N13   N     N_R   0.419850 0.423100 0.556610 -0.092767
N14   N     N_R   0.419850 0.576900 0.556610 -0.085681
N15   N     N_R   0.919850 0.923100 0.556610 -0.092576
N16   N     N_R   0.919850 0.076900 0.556610 -0.085558
C17   C     C_R   0.681051 0.378686 0.594733 -0.010511
C18   C     C_R   0.683391 0.614422 0.590454 -0.033744
C19   C     C_R   0.181015 0.878622 0.594740 -0.010418
C20   C     C_R   0.183393 0.114419 0.590460 -0.033654
H13   H     H_    0.723557 0.370310 0.681766 0.146871
H14   H     H_    0.729812 0.617482 0.676649 0.136194
H15   H     H_    0.223516 0.870239 0.681772 0.146888
H16   H     H_    0.229810 0.117482 0.676658 0.136191
N17   N     N_R   0.627410 0.423100 0.556610 -0.063124
N18   N     N_R   0.627410 0.576900 0.556610 -0.060781
N19   N     N_R   0.127410 0.923100 0.556610 -0.063131
N20   N     N_R   0.127410 0.076900 0.556610 -0.060784
C21   C     C_R   0.334453 0.362785 0.408071 -0.095745
C22   C     C_R   0.311528 0.597168 0.407739 -0.130131
C23   C     C_R   0.834441 0.862798 0.408061 -0.095783
C24   C     C_R   0.811534 0.097161 0.407783 -0.130074
H17   H     H_    0.287497 0.357476 0.323614 0.143243
H18   H     H_    0.266082 0.600634 0.320840 0.176951
H19   H     H_    0.787484 0.857504 0.323603 0.143241
H20   H     H_    0.766077 0.100627 0.320891 0.176938
N21   N     N_R   0.374220 0.422390 0.443390 -0.069948
N22   N     N_R   0.374220 0.577610 0.443390 -0.074605
N23   N     N_R   0.874220 0.922390 0.443390 -0.069978
N24   N     N_R   0.874220 0.077610 0.443390 -0.074615
C25   C     C_R   0.581586 0.400997 0.808897 0.046664
C26   C     C_R   0.573435 0.617279 0.792695 -0.039086
C27   C     C_R   0.081585 0.900984 0.808893 0.046992
C28   C     C_R   0.073451 0.117214 0.792756 -0.039035
H21   H     H_    0.557133 0.410493 0.846004 0.191673
H22   H     H_    0.543624 0.624457 0.820984 0.174948
H23   H     H_    0.057128 0.910453 0.845998 0.191756
H24   H     H_    0.043643 0.124319 0.821067 0.174675
N25   N     N_R   0.555000 0.424040 0.705410 -0.071598
N26   N     N_R   0.555000 0.575960 0.705410 -0.056056
N27   N     N_R   0.055000 0.924040 0.705410 -0.071492
N28   N     N_R   0.055000 0.075960 0.705410 -0.055937
C29   C     C_R   0.436876 0.366948 0.226532 -0.029050
C30   C     C_R   0.441302 0.640620 0.239607 -0.031898
C31   C     C_R   0.936870 0.866957 0.226517 -0.029091
C32   C     C_R   0.941305 0.140622 0.239612 -0.031927
H25   H     H_    0.470101 0.355294 0.205712 0.155341
H26   H     H_    0.476157 0.655285 0.222968 0.170299
H27   H     H_    0.970085 0.855313 0.205677 0.155326
H28   H     H_    0.976164 0.155286 0.222982 0.170307
N29   N     N_R   0.446630 0.421450 0.294590 -0.061904
N30   N     N_R   0.446630 0.578550 0.294590 -0.064206
N31   N     N_R   0.946630 0.921450 0.294590 -0.061911
N32   N     N_R   0.946630 0.078550 0.294590 -0.064209
C33   C     C_R   0.374997 0.331439 0.184620 -0.010958
C34   C     C_R   0.383179 0.681783 0.208156 -0.017945
C35   C     C_R   0.874992 0.831449 0.184607 -0.010943
C36   C     C_R   0.883181 0.181786 0.208161 -0.017937
C37   C     C_R   0.650759 0.380749 0.869085 0.065550
C38   C     C_R   0.641515 0.640152 0.849162 0.088109
C39   C     C_R   0.150758 0.880739 0.869080 0.065379
C40   C     C_R   0.141539 0.140073 0.849246 0.088043
C41   C     C_R   0.669829 0.349010 0.502441 0.142786
C42   C     C_R   0.672047 0.639471 0.494725 0.135447
C43   C     C_R   0.169779 0.848917 0.502452 0.142597
C44   C     C_R   0.172058 0.139458 0.494735 0.135437
C45   C     C_R   0.356689 0.320423 0.501082 -0.019355
C46   C     C_R   0.316165 0.610885 0.499282 0.098424
C47   C     C_R   0.856673 0.820432 0.501066 -0.019518
C48   C     C_R   0.816196 0.110916 0.499356 0.098366
Ni1   Ni    Ni4+2 0.382890 0.500000 0.370170 0.264114
Ni2   Ni    Ni4+2 0.882890 1.000000 0.370170 0.264112
Ni3   Ni    Ni4+2 0.618740 0.500000 0.629830 0.250153
Ni4   Ni    Ni4+2 0.118740 1.000000 0.629830 0.250182
Ni5   Ni    Ni4+2 0.514090 0.500000 0.370170 0.270473
Ni6   Ni    Ni4+2 0.014090 1.000000 0.370170 0.270451
Ni7   Ni    Ni4+2 0.487550 0.500000 0.629830 0.321310
Ni8   Ni    Ni4+2 0.987550 1.000000 0.629830 0.321493
C49   C     C_3   0.349461 0.213877 0.600245 -0.421955
C50   C     C_3   0.315354 0.698333 0.623489 -0.490658
C51   C     C_3   0.849448 0.713856 0.600184 -0.421985
C52   C     C_3   0.815456 0.198498 0.623522 -0.490930
H29   H     H_    0.374798 0.244996 0.678447 0.228939
H30   H     H_    0.316034 0.651502 0.672039 0.219244
H31   H     H_    0.874817 0.744941 0.678419 0.228985
H32   H     H_    0.816190 0.151732 0.672198 0.219344
H33   H     H_    0.391529 0.182813 0.608427 0.265318
H34   H     H_    0.371026 0.710882 0.667520 0.237559
H35   H     H_    0.891496 0.682790 0.608311 0.265308
H36   H     H_    0.871112 0.211062 0.667453 0.237484
C53   C     C_3   0.798299 0.662295 0.595024 0.144083
C54   C     C_3   0.777805 0.265071 0.627218 0.175087
C55   C     C_3   0.298314 0.162309 0.595083 0.144048
C56   C     C_3   0.277708 0.764899 0.627217 0.174996
H37   H     H_    0.304800 0.175409 0.671369 0.135718
H38   H     H_    0.256383 0.743541 0.668011 0.139374
H39   H     H_    0.804807 0.675374 0.671336 0.135711
H40   H     H_    0.756532 0.243745 0.668106 0.139325
H41   H     H_    0.294476 0.346819 0.588206 0.181902
H42   H     H_    0.211110 0.609679 0.515391 0.167579
H43   H     H_    0.794514 0.846792 0.588290 0.181890
H44   H     H_    0.711245 0.109776 0.515681 0.167604
C57   C     C_3   0.260157 0.318211 0.506143 0.095004
C58   C     C_3   0.203580 0.650283 0.453180 0.168269
C59   C     C_3   0.760174 0.818220 0.506202 0.094963
C60   C     C_3   0.703657 0.150332 0.453377 0.168267
C61   C     C_3   0.268609 0.219240 0.390733 -0.021302
C62   C     C_3   0.278360 0.745858 0.437507 -0.087093
C63   C     C_3   0.768557 0.719288 0.390675 -0.021308
C64   C     C_3   0.778331 0.245863 0.437404 -0.087146
C65   C     C_3   0.309386 0.268495 0.498428 -0.078296
C66   C     C_3   0.278089 0.674943 0.500813 -0.074401
C67   C     C_3   0.809369 0.768507 0.498408 -0.078211
C68   C     C_3   0.778135 0.175002 0.500867 -0.074246
H45   H     H_    0.743833 0.755895 0.316461 0.148237
H46   H     H_    0.753954 0.229535 0.350782 0.170053
H47   H     H_    0.243889 0.255825 0.316498 0.148228
H48   H     H_    0.254023 0.729589 0.350880 0.170069
C69   C     C_3   0.720547 0.683533 0.490514 -0.192447
C70   C     C_3   0.712188 0.289963 0.503068 -0.223097
C71   C     C_3   0.220564 0.183516 0.490533 -0.192452
C72   C     C_3   0.212142 0.789876 0.503072 -0.223098
C73   C     C_3   0.709892 0.768698 0.506603 -0.118748
C74   C     C_3   0.663213 0.219056 0.447402 -0.141746
C75   C     C_3   0.209880 0.268686 0.506555 -0.118751
C76   C     C_3   0.163139 0.718999 0.447243 -0.141684
C77   C     C_3   0.708334 0.674739 0.374664 0.376883
C78   C     C_3   0.735729 0.314773 0.431742 0.422700
C79   C     C_3   0.208387 0.174681 0.374719 0.376938
C80   C     C_3   0.235755 0.814755 0.431871 0.422691
H49   H     H_    0.655929 0.788826 0.442280 0.241434
H50   H     H_    0.617746 0.231622 0.359349 0.220123
H51   H     H_    0.155912 0.288792 0.442207 0.241429
H52   H     H_    0.117708 0.731622 0.359187 0.220112
H53   H     H_    0.288978 0.777098 0.177545 0.152468
H54   H     H_    0.279610 0.243106 0.153770 0.150636
H55   H     H_    0.788963 0.277085 0.177520 0.152462
H56   H     H_    0.779581 0.743140 0.153713 0.150649
H57   H     H_    0.789804 0.378046 0.012088 0.167720
H58   H     H_    0.779461 0.633320 0.000718 0.160479
H59   H     H_    0.289803 0.878035 0.012078 0.167699
H60   H     H_    0.279494 0.133302 0.000751 0.160479
C81   C     C_2   0.697156 0.353084 0.984854 -0.137779
C82   C     C_2   0.685121 0.676160 0.957441 -0.137805
C83   C     C_2   0.197156 0.853072 0.984849 -0.137791
C84   C     C_2   0.185151 0.176061 0.957545 -0.137835
C85   C     C_2   0.766093 0.349762 0.042807 -0.016740
C86   C     C_2   0.754358 0.670628 0.021423 0.005731
C87   C     C_2   0.266094 0.849755 0.042803 -0.016737
C88   C     C_2   0.254389 0.170579 0.021485 0.005733
C89   C     C_2   0.357445 0.752749 0.143179 0.325854
C90   C     C_2   0.345646 0.264877 0.113532 0.344226
C91   C     C_2   0.857448 0.252755 0.143186 0.325871
C92   C     C_2   0.845639 0.764892 0.113512 0.344248
C93   C     C_2   0.307057 0.793078 0.131877 -0.231227
C94   C     C_2   0.296021 0.226790 0.105967 -0.253703
C95   C     C_2   0.807052 0.293076 0.131869 -0.231157
C96   C     C_2   0.796001 0.726819 0.105925 -0.253706
H61   H     H_    0.673647 0.325401 0.016574 0.188542
H62   H     H_    0.660585 0.712896 0.980031 0.178527
H63   H     H_    0.173650 0.825391 0.016573 0.188539
H64   H     H_    0.160614 0.212764 0.980165 0.178548
N33   N     N_R   0.818099 0.582540 0.606116 0.295084
O1    O     O_R   0.843848 0.557380 0.559933 -0.232022
O2    O     O_R   0.828165 0.542523 0.686186 -0.299573
N34   N     N_R   0.829218 0.323508 0.701279 0.276014
O3    O     O_R   0.876849 0.343186 0.694092 -0.263759
O4    O     O_R   0.841905 0.336647 0.795308 -0.305481
N35   N     N_R   0.318140 0.082557 0.606239 0.295075
O5    O     O_R   0.343901 0.057377 0.560083 -0.232043
O6    O     O_R   0.328204 0.042563 0.686324 -0.299581
N36   N     N_R   0.329140 0.823286 0.701401 0.275925
O7    O     O_R   0.376797 0.842996 0.694292 -0.263805
O8    O     O_R   0.341810 0.836330 0.795438 -0.305438
I1    I     I_    0.719059 0.795338 0.652836 -0.200126
I2    I     I_    0.612044 0.187947 0.516022 -0.250505
I3    I     I_    0.219016 0.295365 0.652750 -0.200130
I4    I     I_    0.111874 0.687826 0.515679 -0.250444
I5    I     I_    0.341000 0.156472 0.381107 -0.157904
I6    I     I_    0.384647 0.771259 0.500795 -0.227142
I7    I     I_    0.840907 0.656516 0.380955 -0.157940
I8    I     I_    0.884578 0.271273 0.500509 -0.227344
N37   N     N_R   0.709722 0.594962 0.347659 0.268891
O9    O     O_R   0.704433 0.539703 0.397133 -0.313644
O10   O     O_R   0.699859 0.579273 0.256439 -0.266824
N38   N     N_R   0.778462 0.383675 0.476720 0.296990
O11   O     O_R   0.799937 0.412762 0.425765 -0.224163
O12   O     O_R   0.775198 0.428398 0.539396 -0.264142
N39   N     N_R   0.209810 0.094891 0.347798 0.268912
O13   O     O_R   0.204510 0.039657 0.397291 -0.313583
O14   O     O_R   0.199987 0.079160 0.256622 -0.266814
N40   N     N_R   0.278511 0.883641 0.476980 0.297001
O15   O     O_R   0.300038 0.912767 0.426125 -0.224083
O16   O     O_R   0.275225 0.928324 0.539672 -0.264231
N41   N     N_R   0.641003 0.707955 0.274144 0.234320
O17   O     O_R   0.592632 0.735256 0.275208 -0.368273
O18   O     O_R   0.627742 0.707327 0.178063 -0.305841
N42   N     N_R   0.674965 0.332479 0.312987 0.199622
O19   O     O_R   0.637617 0.280260 0.240223 -0.355139
O20   O     O_R   0.660965 0.401899 0.276027 -0.280425
N43   N     N_R   0.141056 0.207857 0.274146 0.234303
O21   O     O_R   0.092673 0.235193 0.275156 -0.368227
O22   O     O_R   0.127818 0.207176 0.178084 -0.306004
N44   N     N_R   0.175032 0.832529 0.313116 0.199644
O23   O     O_R   0.137708 0.780352 0.240252 -0.355178
O24   O     O_R   0.161051 0.901974 0.276264 -0.280388
N45   N     N_R   0.222911 0.378258 0.420658 0.255229
O25   O     O_R   0.174311 0.363313 0.315678 -0.304932
O26   O     O_R   0.239191 0.448178 0.450444 -0.336260
N46   N     N_R   0.163221 0.609901 0.346664 0.265399
O27   O     O_R   0.152284 0.637926 0.258953 -0.328919
O28   O     O_R   0.128715 0.550378 0.334742 -0.237393
N47   N     N_R   0.722943 0.878304 0.420778 0.255237
O29   O     O_R   0.674319 0.863406 0.315789 -0.304905
O30   O     O_R   0.739270 0.948208 0.450627 -0.336379
N48   N     N_R   0.663268 0.109878 0.346919 0.265439
O31   O     O_R   0.652284 0.137827 0.259136 -0.328872
O32   O     O_R   0.628769 0.050383 0.335120 -0.237404
N49   N     N_R   0.380910 0.772989 0.081872 0.242492
O33   O     O_R   0.444336 0.796062 0.134630 -0.273611
O34   O     O_R   0.341269 0.761166 0.974994 -0.345180
N50   N     N_R   0.367909 0.243661 0.050668 0.248579
O35   O     O_R   0.433666 0.231504 0.101322 -0.324139
O36   O     O_R   0.323046 0.240295 0.942265 -0.359042
N51   N     N_R   0.880935 0.273015 0.081915 0.242495
O37   O     O_R   0.944384 0.296023 0.134717 -0.273704
O38   O     O_R   0.841282 0.261278 0.975011 -0.345369
N52   N     N_R   0.867917 0.743662 0.050675 0.248590
O39   O     O_R   0.933677 0.731497 0.101353 -0.324189
O40   O     O_R   0.823067 0.740283 0.942272 -0.359029
N53   N     N_R   0.446723 0.342672 0.707973 0.194528
O41   O     O_R   0.430276 0.377554 0.762265 -0.310355
O42   O     O_R   0.488705 0.284396 0.753743 -0.405587
N54   N     N_R   0.397782 0.549987 0.684892 0.233031
O43   O     O_R   0.461203 0.529166 0.767886 -0.401672
O44   O     O_R   0.346915 0.521402 0.678035 -0.330768
N55   N     N_R   0.946724 0.842645 0.707960 0.194625
O45   O     O_R   0.930185 0.877390 0.762211 -0.310313
O46   O     O_R   0.988715 0.784374 0.753683 -0.405660
N56   N     N_R   0.897929 0.050122 0.685092 0.233065
O47   O     O_R   0.961244 0.028668 0.767395 -0.402177
O48   O     O_R   0.847089 0.021824 0.678545 -0.330885

loop_
_geom_bond_atom_site_label_1
_geom_bond_atom_site_label_2
_geom_bond_distance
_ccdc_geom_bond_type
C22   H18   1.077053 S    
C70   C74   1.582379 S    
C21   C45   1.383872 A    
C92   C96   1.345184 D    
C47   C67   1.474718 S    
C77   N41   1.496620 S    
N8    N28   1.416826 A    
C46   C66   1.482152 S    
N56   O48   1.301761 A    
N3    N31   1.416826 A    
N19   Ni4   1.874158 S    
C26   N26   1.343089 A    
C64   C78   1.575235 S    
N33   O1    1.301262 A    
C6    H6    1.080087 S    
C25   N25   1.347651 A    
N26   Ni7   1.883325 S    
C82   H62   1.087608 S    
C3    N3    1.329775 A    
C4    H4    1.079162 S    
C55   N35   1.467314 S    
N38   O11   1.303255 A    
N53   O41   1.300091 A    
N40   O16   1.297498 A    
C27   N27   1.347668 A    
C77   N37   1.484116 S    
N47   O29   1.300128 A    
C33   C90   1.464788 S    
C76   I4    2.177144 S    
N10   Ni5   1.905694 S    
C7    H7    1.079682 S    
N7    Ni4   1.851788 S    
C18   C42   1.389726 A    
C56   C72   1.597900 S    
C59   N47   1.469468 S    
C57   N45   1.469480 S    
N11   Ni6   1.880848 S    
C1    H1    1.076980 S    
C72   C76   1.582400 S    
C36   C91   1.470951 S    
C86   C96   1.444729 S    
N55   O46   1.302633 A    
N43   O21   1.299413 A    
C85   C95   1.462309 S    
C14   N14   1.330800 A    
C20   H16   1.078570 S    
C3    H3    1.076977 S    
C64   H46   1.107233 S    
C58   C76   1.537820 S    
C43   C72   1.473714 S    
N47   O30   1.300212 A    
C61   C79   1.568308 S    
C20   C44   1.389712 A    
C29   H25   1.076052 S    
H57   C85   1.084334 S    
N42   O19   1.298226 A    
N2    Ni1   1.885308 S    
C20   N20   1.317609 A    
N49   O33   1.300197 A    
C82   C86   1.333635 D    
N30   Ni5   1.891694 S    
H55   C95   1.085745 S    
C21   H17   1.071155 S    
C50   C66   1.555955 S    
C49   H29   1.101284 S    
N24   Ni2   1.883382 S    
N48   O32   1.300961 A    
C63   C77   1.568277 S    
C23   N23   1.313199 A    
C53   H39   1.111553 S    
C32   C36   1.392487 A    
C22   N22   1.320287 A    
C80   N44   1.491538 S    
N55   O45   1.300056 A    
C61   H47   1.099899 S    
N46   O28   1.300966 A    
N54   O43   1.298569 A    
C84   H64   1.087606 S    
N27   Ni8   1.858429 S    
N8    Ni4   1.861316 S    
C26   H22   1.077652 S    
C40   C84   1.452858 S    
N44   O24   1.302977 A    
C32   N32   1.340295 A    
N6    Ni3   1.861316 S    
C25   H21   1.079141 S    
C88   C94   1.444794 S    
C17   H13   1.069507 S    
C4    N4    1.335474 A    
C9    C41   1.385374 A    
C75   H51   1.100145 S    
N41   O17   1.299415 A    
C39   C83   1.464325 S    
C24   C48   1.369642 A    
C28   H24   1.077735 S    
C62   H48   1.107246 S    
C16   C48   1.382599 A    
C53   N33   1.467286 S    
N16   Ni8   1.871891 S    
N17   Ni3   1.874158 S    
C59   C67   1.565702 S    
C60   C68   1.559677 S    
C81   H61   1.087441 S    
C29   N29   1.339512 A    
C8    N8    1.324967 A    
N37   O10   1.302548 A    
C48   C68   1.482193 S    
N45   O25   1.300127 A    
C87   C93   1.462303 S    
H59   C87   1.084335 S    
C51   C67   1.547043 S    
N33   O2    1.301863 A    
C4    C36   1.395788 A    
C2    H2    1.079155 S    
C75   I3    2.180287 S    
N13   Ni7   1.896632 S    
C49   C55   1.527837 S    
C42   C69   1.472238 S    
H60   C88   1.084834 S    
N5    Ni3   1.851788 S    
C10   N10   1.309392 A    
C24   H20   1.077063 S    
C6    C38   1.384705 A    
C91   C95   1.345984 D    
C45   C65   1.474753 S    
N54   O44   1.301837 A    
N9    N17   1.355933 A    
N29   Ni5   1.916992 S    
C64   C68   1.591483 S    
C52   C68   1.555959 S    
C19   C43   1.378546 A    
C15   C47   1.390868 A    
H44   C60   1.114116 S    
N42   O20   1.302987 A    
C11   H11   1.073322 S    
N35   O5    1.301257 A    
C90   N50   1.439300 S    
C2    C34   1.395766 A    
C1    N1    1.329796 A    
N6    N26   1.416826 A    
N50   O36   1.301003 A    
H42   C58   1.114123 S    
N2    N30   1.416826 A    
C69   C77   1.625882 S    
N12   Ni6   1.905694 S    
N53   O42   1.302636 A    
C81   C85   1.335435 D    
C8    C40   1.384755 A    
C19   H15   1.069481 S    
C11   N11   1.320720 A    
C30   H26   1.078043 S    
C60   N48   1.471255 S    
C17   N17   1.312853 A    
N11   N19   1.355933 A    
C23   C47   1.383843 A    
C84   C88   1.333649 D    
C52   H32   1.108745 S    
N49   O34   1.300893 A    
N1    Ni1   1.894988 S    
C91   N51   1.435680 S    
C14   C46   1.382579 A    
C63   C67   1.567343 S    
C13   C45   1.390870 A    
N37   O9    1.296786 A    
N12   N20   1.355601 A    
H58   C86   1.084839 S    
C83   C87   1.335433 D    
N15   Ni8   1.896632 S    
C29   C33   1.387426 A    
C12   C44   1.372396 A    
N23   Ni2   1.874560 S    
C79   N39   1.484112 S    
N39   O13   1.296797 A    
C74   H50   1.106390 S    
C12   H12   1.076834 S    
C8    H8    1.080086 S    
C31   C35   1.387405 A    
C18   N18   1.317617 A    
C52   H36   1.109806 S    
N44   O23   1.298230 A    
H41   C57   1.112776 S    
C56   N36   1.480535 S    
H43   C59   1.112755 S    
N43   O22   1.303123 A    
C50   C56   1.524000 S    
C92   N52   1.439302 S    
H56   C96   1.084976 S    
C55   C71   1.583215 S    
N41   O18   1.303123 A    
N21   Ni1   1.874560 S    
N52   O40   1.301001 A    
C35   C92   1.464761 S    
C64   I8    2.202220 S    
C56   H38   1.114230 S    
C1    C33   1.389642 A    
C78   N38   1.480388 S    
N39   O14   1.302547 A    
N34   O4    1.301612 A    
C41   C70   1.473689 S    
C57   C75   1.531376 S    
N36   O8    1.301614 A    
N45   O26   1.300208 A    
H53   C93   1.085747 S    
C6    N6    1.324941 A    
C52   C54   1.523959 S    
N16   N24   1.355601 A    
N20   Ni4   1.865370 S    
C44   C71   1.472257 S    
C73   I1    2.180285 S    
C30   C34   1.392473 A    
C2    N2    1.335475 A    
C69   C73   1.579940 S    
C25   C37   1.378673 A    
C17   C41   1.378553 A    
C3    C35   1.389641 A    
C54   N34   1.480533 S    
N46   O27   1.297987 A    
C70   C78   1.600357 S    
C19   N19   1.312872 A    
C74   I2    2.177161 S    
C15   N55   1.424261 S    
N51   O38   1.300926 A    
C76   H52   1.106393 S    
C62   C80   1.575243 S    
C62   C66   1.591477 S    
H54   C94   1.084985 S    
C60   C74   1.537777 S    
C79   N43   1.496612 S    
C23   H19   1.071152 S    
N4    N32   1.416826 A    
C54   H40   1.114239 S    
C14   N54   1.436628 S    
C32   H28   1.078048 S    
C21   N21   1.313240 A    
N50   O35   1.300642 A    
C55   H37   1.111549 S    
N38   O12   1.297467 A    
C31   H27   1.076047 S    
C28   C40   1.385413 A    
N13   N21   1.355933 A    
N1    N29   1.416826 A    
C37   C81   1.464323 S    
C51   H31   1.101254 S    
C38   C82   1.452801 S    
C31   N31   1.339503 A    
C18   H14   1.078571 S    
C58   N46   1.471265 S    
C13   N53   1.424253 S    
C30   N30   1.340297 A    
N31   Ni6   1.916992 S    
C89   N49   1.435662 S    
C53   C69   1.583209 S    
C54   C70   1.597864 S    
C24   N24   1.320343 A    
N7    N27   1.416826 A    
C7    N7    1.333375 A    
C58   C66   1.559705 S    
N48   O31   1.297986 A    
N51   O37   1.300207 A    
C34   C89   1.470917 S    
C73   H49   1.100139 S    
N35   O6    1.301861 A    
C28   N28   1.343067 A    
C5    N5    1.333375 A    
C27   H23   1.079133 S    
N10   N18   1.355601 A    
C9    H9    1.073311 S    
C57   C65   1.565723 S    
C27   C39   1.378670 A    
N9    Ni5   1.880848 S    
C50   H30   1.108882 S    
N4    Ni2   1.885308 S    
C11   C43   1.385395 A    
C51   C53   1.527826 S    
C80   N40   1.480434 S    
C71   C79   1.625875 S    
N18   Ni3   1.865370 S    
C71   C75   1.579927 S    
C72   C80   1.600356 S    
N22   Ni1   1.883382 S    
C13   N13   1.329023 A    
N40   O15   1.303257 A    
C63   H45   1.099880 S    
C83   H63   1.087441 S    
C63   I7    2.189367 S    
N52   O39   1.300641 A    
C90   C94   1.345208 D    
C16   N56   1.436676 S    
C5    H5    1.079688 S    
C62   I6    2.202221 S    
C89   C93   1.345976 D    
N14   Ni7   1.871891 S    
C16   N16   1.330684 A    
C5    C37   1.378199 A    
C61   I5    2.189346 S    
N34   O3    1.302441 A    
C12   N12   1.309415 A    
N15   N23   1.355933 A    
N36   O7    1.302433 A    
C7    C39   1.378190 A    
C15   N15   1.329052 A    
N5    N25   1.416826 A    
N14   N22   1.355601 A    
C61   C65   1.567337 S    
N56   O47   1.297797 A    
C49   C65   1.547063 S    
C50   H34   1.109815 S    
N28   Ni8   1.883325 S    
C22   C46   1.369437 A    
C78   N42   1.491525 S    
N25   Ni7   1.858429 S    
C49   H33   1.109432 S    
N32   Ni6   1.891694 S    
C59   C73   1.531368 S    
C10   C42   1.372372 A    
C26   C38   1.385386 A    
C9    N9    1.320702 A    
N3    Ni2   1.894988 S    
C10   H10   1.076838 S    
C51   H35   1.109427 S    
