data_mof_unit_10610.cif
_audit_creation_date              2012-12-10T19:00:48-0500
_audit_creation_method            fapswitch 2.2
_symmetry_space_group_name_H-M    P1
_symmetry_Int_Tables_number       1
_space_group_crystal_system       triclinic
_cell_length_a                    15.037656
_cell_length_b                    10.839491
_cell_length_c                    9.551761
_cell_angle_alpha                 90.339367
_cell_angle_beta                  89.838227
_cell_angle_gamma                 90.699903
_cell_volume                      1556.79280683

loop_
_atom_site_label
_atom_site_type_symbol
_atom_type_description
_atom_site_fract_x
_atom_site_fract_y
_atom_site_fract_z
_atom_type_partial_charge
C1    C     C_R   0.498796 0.262466 0.499815 0.862827
C2    C     C_R   0.906657 0.576999 0.583699 0.024047
C3    C     C_R   0.952713 0.311022 0.345154 -0.146032
C4    C     C_R   0.044707 0.311025 0.345688 -0.154931
C5    C     C_R   0.092995 0.398504 0.424023 0.098836
C6    C     C_R   0.046563 0.488265 0.503844 0.019855
C7    C     C_R   0.093832 0.577624 0.583798 0.016362
C8    C     C_R   0.047586 0.666245 0.664379 0.129479
C9    C     C_R   0.953816 0.666117 0.664083 0.138164
C10   C     C_R   0.186512 0.398234 0.424248 0.080616
C11   C     C_R   0.232427 0.489729 0.500634 -0.102804
C12   C     C_R   0.328964 0.496077 0.500124 0.837726
C13   C     C_R   0.186824 0.576591 0.580332 -0.210318
C14   C     C_R   0.495980 0.063864 0.624314 0.070380
C15   C     C_R   0.489764 0.129600 0.499979 -0.135162
C16   C     C_R   0.465323 0.065487 0.377606 -0.155205
C17   C     C_R   0.459996 0.936540 0.376343 0.165163
C18   C     C_R   0.483329 0.870587 0.498981 -0.133826
C19   C     C_R   0.492690 0.937442 0.623598 0.038722
C20   C     C_3   0.556145 0.928041 0.742615 -0.478349
C21   C     C_3   0.560436 0.068386 0.743613 0.295886
C22   C     C_R   0.577225 0.522231 0.073303 0.263394
C23   C     C_R   0.495409 0.737573 0.499768 0.826156
C24   C     C_R   0.425859 0.468386 0.074248 -0.013722
C25   C     C_R   0.425824 0.468476 0.925868 -0.021397
C26   C     C_R   0.576738 0.521593 0.925612 0.254055
C27   C     C_3   0.632178 0.634956 0.915861 -0.505972
C28   C     C_3   0.632491 0.638853 0.074331 -0.042068
C29   C     C_R   0.670860 0.495369 0.499834 0.850582
C30   C     C_R   0.813769 0.575144 0.580572 -0.205373
C31   C     C_R   0.767151 0.488650 0.500128 -0.091529
C32   C     C_R   0.811832 0.398532 0.421638 0.124997
C33   C     C_R   0.905379 0.398384 0.423081 0.093922
C34   C     C_R   0.952861 0.487970 0.503731 0.019530
Cu1   Cu    Cu3+1 0.500000 0.499980 0.640670 0.988696
Cu2   Cu    Cu3+1 0.500000 0.500020 0.359330 1.016402
H1    H     H_    0.522966 0.889300 0.836876 0.218935
H2    H     H_    0.365356 0.443597 0.871271 0.162364
H3    H     H_    0.076839 0.241783 0.282350 0.194674
N1    N     N_R   0.500570 0.500930 0.147930 -0.207170
N2    N     N_R   0.500570 0.500890 0.852020 -0.193134
O1    O     O_R   0.500000 0.319640 0.618810 -0.560392
O2    O     O_R   0.500010 0.319680 0.381230 -0.561377
O3    O     O_R   0.370250 0.499950 0.618800 -0.595265
O4    O     O_R   0.370260 0.499990 0.381220 -0.570106
O5    O     O_R   0.499990 0.680320 0.618770 -0.583795
O6    O     O_R   0.500000 0.680360 0.381190 -0.564207
O7    O     O_R   0.629740 0.500010 0.618780 -0.581986
O8    O     O_R   0.629750 0.500050 0.381200 -0.550406
H4    H     H_    0.775589 0.642354 0.637984 0.166288
I1    I     I_    0.414576 0.855960 0.184865 -0.299605
H5    H     H_    0.619420 0.883376 0.711461 0.204920
I2    I     I_    0.505201 0.148206 0.929598 -0.280783
I3    I     I_    0.690314 0.140839 0.695308 -0.252193
H6    H     H_    0.365326 0.443990 0.128822 0.176143
H7    H     H_    0.697751 0.616133 0.867029 0.231531
H8    H     H_    0.595696 0.711655 0.868457 0.197190
I4    I     I_    0.765294 0.620278 0.151251 -0.262122
I5    I     I_    0.736744 0.262055 0.305120 -0.256813
H9    H     H_    0.596280 0.718993 0.118378 0.182338
H10   H     H_    0.919858 0.241504 0.281872 0.193220
I6    I     I_    0.259467 0.254439 0.320957 -0.357884
H11   H     H_    0.225863 0.644061 0.637666 0.181073
I7    I     I_    0.118825 0.801225 0.788133 -0.232620
I8    I     I_    0.883922 0.802307 0.785430 -0.232890
H12   H     H_    0.451811 0.115053 0.282053 0.214963

loop_
_geom_bond_atom_site_label_1
_geom_bond_atom_site_label_2
_ccdc_geom_bond_type
C2    C9    A    
C11   C12   S    
Cu2   O8    S    
C24   C25   A    
C6    C7    A    
C1    C15   S    
C28   I4    S    
C25   H2    S    
C27   H7    S    
C19   C20   S    
C13   H11   S    
C4    H3    S    
C7    C13   A    
C2    C30   A    
C22   N1    A    
C32   C33   A    
C17   I1    S    
C23   O6    A    
C28   H9    S    
C17   C18   A    
C30   H4    S    
Cu2   O4    S    
C12   O3    A    
C23   O5    A    
C22   C28   S    
C4    C5    A    
C10   I6    S    
C24   H6    S    
C21   I2    S    
C20   H1    S    
C11   C13   A    
Cu1   O3    S    
C26   C27   S    
C30   C31   A    
C8    I7    S    
C5    C6    A    
Cu1   O7    S    
C14   C21   S    
C24   N1    A    
C33   C34   A    
C3    H10   S    
C22   C26   A    
C21   I3    S    
Cu1   N2    S    
C9    I8    S    
C7    C8    A    
C10   C11   A    
C3    C33   A    
C29   O7    A    
C18   C23   S    
C6    C34   A    
C1    O1    A    
C5    C10   A    
C16   H12   S    
C20   C21   S    
Cu2   O6    S    
C20   H5    S    
C18   C19   A    
C27   H8    S    
C25   N2    A    
C27   C28   S    
C12   O4    A    
Cu1   O1    S    
C14   C15   A    
C16   C17   A    
Cu2   N1    S    
C29   O8    A    
C32   I5    S    
C2    C34   A    
C29   C31   S    
Cu1   O5    S    
C14   C19   A    
C1    O2    A    
C31   C32   A    
C3    C4    A    
C15   C16   A    
C26   N2    A    
C8    C9    A    
Cu2   O2    S    
Cu1   Cu2   S    
