data_mof_unit_37617.cif
_audit_creation_date              2012-12-10T18:05:52-0500
_audit_creation_method            fapswitch 2.2
_symmetry_space_group_name_H-M    P1
_symmetry_Int_Tables_number       1
_space_group_crystal_system       triclinic
_cell_length_a                    12.76893
_cell_length_b                    13.096857
_cell_length_c                    14.905572
_cell_angle_alpha                 93.411094
_cell_angle_beta                  102.455115
_cell_angle_gamma                 82.537714
_cell_volume                      2412.14452924

loop_
_atom_site_label
_atom_site_type_symbol
_atom_type_description
_atom_site_fract_x
_atom_site_fract_y
_atom_site_fract_z
_atom_type_partial_charge
C1    C     C_R   0.440217 0.691674 0.485756 0.946702
C2    C     C_R   0.513605 0.413569 0.090515 0.109132
C3    C     C_R   0.467893 0.695152 0.050684 -0.182379
C4    C     C_R   0.475089 0.697467 0.959324 0.307605
C5    C     C_R   0.484772 0.603919 0.907082 -0.022336
C6    C     C_R   0.503577 0.508649 0.953100 -0.013465
C7    C     C_R   0.526028 0.413412 0.906163 0.097618
C8    C     C_R   0.543037 0.319526 0.952202 -0.017119
C9    C     C_R   0.535671 0.320461 0.043830 -0.200053
C10   C     C_R   0.475567 0.600176 0.811199 0.239580
C11   C     C_R   0.502951 0.505885 0.767964 -0.120105
C12   C     C_R   0.501105 0.500733 0.672248 0.929756
C13   C     C_R   0.529945 0.414515 0.814073 -0.265363
C14   C     C_R   0.733510 0.048032 0.522101 0.262269
C15   C     C_R   0.598070 0.199048 0.499948 -0.246657
C16   C     C_R   0.303311 0.850619 0.479034 0.279625
C17   C     C_R   0.280610 0.958222 0.476811 -0.042898
C18   C     C_R   0.357822 0.017828 0.463657 -0.228873
C19   C     C_R   0.460003 0.972347 0.451837 0.144809
C20   C     C_R   0.483662 0.864512 0.449534 0.074131
C21   C     C_R   0.544797 0.032468 0.456142 0.021683
C22   C     C_R   0.652610 0.987020 0.478884 -0.007273
C23   C     C_R   0.560551 0.308671 0.508553 0.947769
C24   C     C_R   0.673517 0.882247 0.457981 -0.155894
C25   C     C_R   0.587474 0.823899 0.433902 -0.128997
C26   C     C_R   0.525674 0.137536 0.446431 0.153900
C27   C     C_R   0.703305 0.153349 0.541277 0.185170
C28   C     C_R   0.406577 0.802483 0.467795 -0.158646
C29   C     C_R   0.102025 0.326594 0.384284 -0.111413
C30   C     C_R   0.801303 0.634253 0.608615 -0.017326
C31   C     C_R   0.906854 0.659214 0.634081 0.228261
C32   C     C_R   0.987395 0.603971 0.595739 -0.180372
C33   C     C_R   0.965827 0.520494 0.533350 -0.034703
C34   C     C_R   0.497174 0.502813 0.327171 0.932965
C35   C     C_R   0.857781 0.493872 0.510571 0.163152
C36   C     C_R   0.048058 0.464410 0.491297 -0.004055
C37   C     C_R   0.027292 0.373006 0.437598 0.050122
C38   C     C_R   0.931163 0.333500 0.436553 -0.107279
C39   C     C_R   0.842868 0.400079 0.455453 -0.038498
C40   C     C_R   0.151537 0.495297 0.500283 0.012167
C41   C     C_R   0.198408 0.366221 0.392568 0.006014
C42   C     C_R   0.508155 0.413305 0.182152 -0.249743
C43   C     C_R   0.491171 0.505913 0.230300 -0.100817
C44   C     C_R   0.469167 0.600039 0.186257 0.195188
C45   C     C_R   0.476912 0.601837 0.094202 0.019444
C46   C     C_R   0.498697 0.508143 0.045994 0.036751
H1    H     H_    0.517752 0.340881 0.216267 0.196579
H2    H     H_    0.754716 0.845099 0.459795 0.191655
H3    H     H_    0.339975 0.100776 0.470103 0.180670
H4    H     H_    0.605862 0.746316 0.408298 0.199453
H5    H     H_    0.256511 0.334035 0.352755 0.189391
H6    H     H_    0.179067 0.558344 0.544702 0.168821
H7    H     H_    0.067220 0.626400 0.618925 0.197977
H8    H     H_    0.460241 0.767899 0.088371 0.228273
H9    H     H_    0.549306 0.343870 0.776056 0.158830
H10   H     H_    0.547816 0.248325 0.079093 0.176877
N1    N     N_R   0.222190 0.444670 0.452360 -0.121576
N2    N     N_R   0.776970 0.554790 0.547140 -0.162535
O1    O     O_R   0.366740 0.627160 0.477250 -0.555203
O2    O     O_R   0.544830 0.662520 0.507680 -0.654020
O3    O     O_R   0.410940 0.482340 0.616930 -0.603592
O4    O     O_R   0.589030 0.517700 0.647360 -0.604156
O5    O     O_R   0.455170 0.337480 0.492320 -0.598799
O6    O     O_R   0.633260 0.372840 0.522750 -0.594590
O7    O     O_R   0.410970 0.482300 0.352640 -0.587055
O8    O     O_R   0.589060 0.517660 0.383070 -0.637712
Zn1   Zn    Zn3+2 0.381090 0.476390 0.479680 1.021058
Zn2   Zn    Zn3+2 0.618910 0.523610 0.520320 0.978455
Br1   Br    Br    0.879618 0.986026 0.565748 -0.348145
Br2   Br    Br    0.425609 0.187239 0.337050 -0.523944
Br3   Br    Br    0.192683 0.775530 0.504706 -0.420061
C47   C     C_1   0.182501 0.010829 0.498732 0.308745
N3    N     N_1   0.104700 0.053557 0.517537 -0.094626
C48   C     C_1   0.918989 0.225371 0.411185 0.247901
N4    N     N_1   0.907372 0.140328 0.390517 -0.129912
C49   C     C_1   0.081012 0.245370 0.315002 0.195131
N5    N     N_1   0.064977 0.180543 0.259303 -0.123429
Br4   Br    Br    0.417764 0.722742 0.249188 -0.528027
C50   C     C_1   0.719584 0.690431 0.651494 0.349483
N6    N     N_1   0.654950 0.736426 0.686709 -0.112384
Br5   Br    Br    0.945950 0.766477 0.724156 -0.347058
C51   C     C_1   0.745764 0.368790 0.399323 0.317659
N7    N     N_1   0.674950 0.333404 0.351109 -0.224994
Br6   Br    Br    0.492593 0.831078 0.921106 -0.355733
Br7   Br    Br    0.405089 0.712840 0.732784 -0.393055
C52   C     C_1   0.566376 0.220871 0.907067 0.216313
N8    N     N_1   0.585024 0.141944 0.870989 -0.110044
Br8   Br    Br    0.804688 0.229931 0.624854 -0.402174

loop_
_geom_bond_atom_site_label_1
_geom_bond_atom_site_label_2
_ccdc_geom_bond_type
C16   C28   A    
O8    Zn2   S    
C21   C26   A    
C10   Br7   S    
C19   C20   A    
C34   O8    A    
C7    C8    A    
C29   C49   S    
C45   C46   A    
C2    C46   A    
C35   N2    A    
O6    Zn2   S    
C36   C37   A    
C19   C21   A    
C1    O1    A    
C38   C39   A    
C3    H8    S    
C16   C17   A    
C20   C25   A    
C33   C36   A    
C18   C19   A    
C25   H4    S    
O1    Zn1   S    
C8    C9    A    
O7    Zn1   S    
C1    C28   S    
C14   C27   A    
C15   C23   S    
C21   C22   A    
C16   Br3   S    
N1    Zn1   S    
C34   O7    A    
O5    Zn1   S    
C48   N4    T    
C24   H2    S    
C36   C40   A    
C24   C25   A    
C1    O2    A    
C52   N8    T    
C47   N3    T    
C15   C26   A    
C20   C28   A    
C40   H6    S    
C3    C45   A    
C35   C39   A    
C43   C44   A    
C37   C38   A    
C12   O4    A    
O3    Zn1   S    
C15   C27   A    
C31   C32   A    
C4    Br6   S    
C30   C31   A    
C17   C18   A    
C9    H10   S    
C49   N5    T    
C30   C50   S    
N2    Zn2   S    
C23   O6    A    
C26   Br2   S    
C14   Br1   S    
C22   C24   A    
C42   C43   A    
C3    C4    A    
C32   H7    S    
C44   C45   A    
C38   C48   S    
C40   N1    A    
C6    C46   A    
C29   C41   A    
C34   C43   S    
C39   C51   S    
C4    C5    A    
C11   C12   S    
C6    C7    A    
C31   Br5   S    
O4    Zn2   S    
C32   C33   A    
C14   C22   A    
C44   Br4   S    
C41   N1    A    
C5    C10   A    
C12   O3    A    
C11   C13   A    
C5    C6    A    
C2    C42   A    
C30   N2    A    
C23   O5    A    
C33   C35   A    
C8    C52   S    
C42   H1    S    
C27   Br8   S    
C10   C11   A    
C50   N6    T    
C7    C13   A    
O2    Zn2   S    
C17   C47   S    
C51   N7    T    
C29   C37   A    
C2    C9    A    
C41   H5    S    
C18   H3    S    
C13   H9    S    
