data_mof_unit_40126.cif
_audit_creation_date              2012-12-10T20:06:59-0500
_audit_creation_method            fapswitch 2.2
_symmetry_space_group_name_H-M    P1
_symmetry_Int_Tables_number       1
_space_group_crystal_system       triclinic
_cell_length_a                    19.320871
_cell_length_b                    18.341033
_cell_length_c                    10.58044
_cell_angle_alpha                 90.426086
_cell_angle_beta                  89.945444
_cell_angle_gamma                 89.963422
_cell_volume                      3749.22863627

loop_
_atom_site_label
_atom_site_type_symbol
_atom_type_description
_atom_site_fract_x
_atom_site_fract_y
_atom_site_fract_z
_atom_type_partial_charge
C1    C     C_R   0.365489 0.500016 0.499748 0.923674
C2    C     C_R   0.634508 0.499994 0.500632 0.914587
C3    C     C_R   0.709691 0.500042 0.502333 -0.117997
C4    C     C_R   0.290288 0.500048 0.499996 -0.121621
C5    C     C_R   0.963799 0.530205 0.402052 -0.122995
C6    C     C_R   0.036182 0.470356 0.605673 -0.122503
C7    C     C_R   0.035486 0.530110 0.401062 -0.122374
C8    C     C_R   0.964471 0.470457 0.606669 -0.122042
C9    C     C_R   0.071516 0.500177 0.502855 0.207512
C10   C     C_R   0.928450 0.500378 0.504838 0.207339
C11   C     C_R   0.544749 0.725149 0.577517 -0.050586
C12   C     C_R   0.459184 0.273638 0.417262 -0.051903
C13   C     C_R   0.454712 0.726148 0.425886 -0.059020
C14   C     C_R   0.540664 0.275400 0.584381 -0.045332
C15   C     C_R   0.545969 0.802121 0.583500 0.032266
C16   C     C_R   0.457702 0.196693 0.415817 0.046226
C17   C     C_R   0.452505 0.802723 0.427384 0.050376
C18   C     C_R   0.541962 0.198573 0.589405 0.046699
C19   C     C_R   0.499107 0.841499 0.506482 0.243345
C20   C     C_R   0.499854 0.158775 0.503415 0.220363
C21   C     C_R   0.455795 0.962059 0.589195 0.249636
C22   C     C_R   0.542017 0.038031 0.419381 0.249612
C23   C     C_R   0.544234 0.960514 0.424310 0.254493
C24   C     C_R   0.458050 0.039664 0.591909 0.248731
C25   C     C_R   0.499978 0.077111 0.504973 -0.103732
C26   C     C_R   0.499880 0.923068 0.507037 -0.095119
C27   C     C_R   0.512778 0.499572 0.261256 0.901045
C28   C     C_R   0.490247 0.500363 0.740673 0.897501
C29   C     C_R   0.552590 0.630084 0.114081 -0.355142
C30   C     C_R   0.459305 0.367789 0.890090 -0.367611
C31   C     C_R   0.474216 0.636688 0.894791 -0.360915
C32   C     C_R   0.537600 0.363876 0.109662 -0.365304
C33   C     C_R   0.540001 0.698090 0.058350 0.448198
C34   C     C_R   0.475222 0.300123 0.944573 0.444617
C35   C     C_R   0.497870 0.701686 0.951351 0.434863
C36   C     C_R   0.516987 0.298075 0.052152 0.438659
C37   C     C_R   0.493155 0.567753 0.943433 0.044082
C38   C     C_R   0.517178 0.431943 0.059778 0.047338
C39   C     C_R   0.524787 0.565337 0.061602 0.041301
C40   C     C_R   0.485526 0.433690 0.941580 0.042272
C41   C     C_R   0.481807 0.501166 0.877672 -0.165357
C42   C     C_R   0.526443 0.498382 0.125831 -0.168700
C43   C     C_R   0.745802 0.433850 0.501179 -0.318242
C44   C     C_R   0.254284 0.566299 0.502796 -0.315809
C45   C     C_R   0.254294 0.433828 0.497742 -0.317457
C46   C     C_R   0.745555 0.566328 0.505713 -0.319043
C47   C     C_R   0.818018 0.433415 0.502545 0.399277
C48   C     C_R   0.182072 0.566867 0.503841 0.399537
C49   C     C_R   0.182077 0.433332 0.498513 0.399670
C50   C     C_R   0.817754 0.566960 0.507368 0.399370
C51   C     C_R   0.853437 0.500242 0.505372 -0.007299
C52   C     C_R   0.146526 0.500117 0.501766 -0.007627
H1    H     H_    0.584613 0.627763 0.197950 0.169919
H2    H     H_    0.425814 0.368626 0.808152 0.176153
H3    H     H_    0.439960 0.640559 0.814289 0.179333
H4    H     H_    0.570418 0.361641 0.192444 0.176347
H5    H     H_    0.718004 0.382567 0.498616 0.164359
H6    H     H_    0.282168 0.617534 0.504761 0.164430
H7    H     H_    0.282186 0.382564 0.495030 0.163976
H8    H     H_    0.717574 0.617551 0.507402 0.161679
H9    H     H_    0.935819 0.553009 0.322913 0.150871
H10   H     H_    0.064181 0.447492 0.684733 0.151063
H11   H     H_    0.062930 0.552879 0.321209 0.150970
H12   H     H_    0.937011 0.447637 0.686455 0.151081
H13   H     H_    0.578954 0.692543 0.634574 0.144280
H14   H     H_    0.428091 0.305244 0.353053 0.143954
H15   H     H_    0.419627 0.695490 0.366086 0.145057
H16   H     H_    0.571676 0.308381 0.647368 0.144675
N1    N     N_R   0.500000 0.689440 0.500000 -0.120987
N2    N     N_R   0.500000 0.310560 0.500000 -0.125858
O1    O     O_R   0.398180 0.560840 0.499970 -0.626928
O2    O     O_R   0.601820 0.439160 0.500030 -0.629476
O3    O     O_R   0.601820 0.560840 0.500030 -0.632648
O4    O     O_R   0.398180 0.439160 0.499970 -0.627490
O5    O     O_R   0.499990 0.560810 0.316770 -0.613870
O6    O     O_R   0.500010 0.439190 0.683230 -0.620027
O7    O     O_R   0.500010 0.560810 0.683230 -0.620810
O8    O     O_R   0.499990 0.439190 0.316770 -0.620319
Zn1   Zn    Zn3+2 0.500000 0.581210 0.500000 0.930448
Zn2   Zn    Zn3+2 0.500000 0.418790 0.500000 0.928329
O9    O     O_3   0.535591 0.231186 0.100611 -0.726719
H17   H     H_    0.563855 0.238993 0.177717 0.338172
O10   O     O_3   0.481525 0.769227 0.902916 -0.736934
H18   H     H_    0.452441 0.762529 0.826538 0.338377
O11   O     O_3   0.452085 0.235228 0.892955 -0.719418
H19   H     H_    0.424787 0.245754 0.815882 0.338354
O12   O     O_3   0.566653 0.761872 0.108324 -0.735537
H20   H     H_    0.593758 0.750295 0.185163 0.336322
O13   O     O_3   0.855064 0.368920 0.499014 -0.757064
H21   H     H_    0.822303 0.327318 0.497265 0.337647
O14   O     O_3   0.145161 0.631425 0.508759 -0.757193
H22   H     H_    0.177996 0.672967 0.509757 0.337128
O15   O     O_3   0.145157 0.368819 0.494368 -0.756759
H23   H     H_    0.177999 0.327248 0.492136 0.337444
O16   O     O_3   0.854522 0.631553 0.512436 -0.757297
H24   H     H_    0.821596 0.673062 0.513589 0.336463
C53   C     C_3   0.595115 0.843555 0.670815 -0.390206
C54   C     C_3   0.645067 0.796514 0.748579 -0.358894
C55   C     C_3   0.690668 0.843794 0.833623 -0.787920
H25   H     H_    0.722016 0.881892 0.775919 0.248785
H26   H     H_    0.658270 0.875573 0.901147 0.282867
H27   H     H_    0.726271 0.808484 0.888299 0.253101
H28   H     H_    0.615439 0.758628 0.809511 0.256441
H29   H     H_    0.678923 0.764298 0.684007 0.211541
H30   H     H_    0.626574 0.881303 0.612486 0.213198
H31   H     H_    0.563455 0.877007 0.737228 0.246467
C56   C     C_3   0.412515 0.153701 0.323627 -0.391251
C57   C     C_3   0.365357 0.199180 0.237781 -0.359426
C58   C     C_3   0.323185 0.150268 0.149575 -0.793304
H32   H     H_    0.358119 0.117572 0.087838 0.279629
H33   H     H_    0.289864 0.112943 0.205097 0.249024
H34   H     H_    0.289620 0.184453 0.088833 0.255022
H35   H     H_    0.329120 0.232186 0.296545 0.213416
H36   H     H_    0.397032 0.236239 0.178786 0.257047
H37   H     H_    0.446852 0.119861 0.262593 0.250316
H38   H     H_    0.379172 0.116284 0.379139 0.207449
C59   C     C_3   0.399782 0.840831 0.345042 -0.472994
C60   C     C_3   0.423986 0.842682 0.207228 -0.258726
C61   C     C_3   0.373816 0.885645 0.125036 -0.834349
H39   H     H_    0.321539 0.860538 0.127801 0.257327
H40   H     H_    0.370448 0.943100 0.158561 0.250851
H41   H     H_    0.392486 0.885334 0.025731 0.290831
H42   H     H_    0.475883 0.868580 0.201657 0.290707
H43   H     H_    0.427730 0.786100 0.169663 0.244117
H44   H     H_    0.349477 0.811615 0.351213 0.202354
H45   H     H_    0.389800 0.897303 0.378722 0.222043
C62   C     C_3   0.586861 0.157719 0.683951 -0.386698
C63   C     C_3   0.632775 0.205278 0.769780 -0.364438
C64   C     C_3   0.674310 0.158569 0.861329 -0.792227
H46   H     H_    0.638933 0.127054 0.923159 0.283367
H47   H     H_    0.708428 0.120255 0.808470 0.250198
H48   H     H_    0.707026 0.194271 0.921818 0.251999
H49   H     H_    0.669444 0.237274 0.711149 0.213877
H50   H     H_    0.600160 0.243333 0.826163 0.250647
H51   H     H_    0.552374 0.124735 0.745157 0.253147
H52   H     H_    0.620974 0.119597 0.630439 0.206646
O17   O     O_3   0.410824 0.922692 0.663854 -0.765080
H53   H     H_    0.369624 0.953039 0.682475 0.348885
O18   O     O_3   0.579751 0.077185 0.332171 -0.763287
H54   H     H_    0.586201 0.046753 0.255373 0.354670
O19   O     O_3   0.589223 0.919774 0.350783 -0.765898
H55   H     H_    0.630534 0.949654 0.331757 0.350325
O20   O     O_3   0.420300 0.080470 0.677900 -0.757483
H56   H     H_    0.413908 0.051508 0.755634 0.355532

loop_
_geom_bond_atom_site_label_1
_geom_bond_atom_site_label_2
_ccdc_geom_bond_type
O12   H20   S    
O15   H23   S    
C47   O13   S    
C14   C18   A    
O16   H24   S    
C21   O17   S    
C21   C26   A    
C27   O8    A    
C63   C64   S    
C6    C9    A    
O1    Zn1   S    
C53   C54   S    
O11   H19   S    
C15   C19   A    
C30   H2    S    
C3    C43   A    
C1    O1    A    
C29   H1    S    
C1    O4    A    
C32   C36   A    
C62   H51   S    
C38   C42   A    
C58   H33   S    
C27   O5    A    
C50   O16   S    
C20   C25   S    
C24   O20   S    
C54   H28   S    
C29   C33   A    
C28   C41   S    
C57   C58   S    
C23   C26   A    
C57   H36   S    
C19   C26   S    
C60   C61   S    
C16   C56   S    
C17   C19   A    
C11   C15   A    
C12   C16   A    
C44   H6    S    
C22   C25   A    
C56   C57   S    
C32   C38   A    
C43   C47   A    
C59   H45   S    
C18   C20   A    
C17   C59   S    
C64   H48   S    
C53   H30   S    
C61   H40   S    
O4    Zn2   S    
C14   N2    A    
C9    C52   S    
C15   C53   S    
C2    O2    A    
C10   C51   S    
O9    H17   S    
C39   C42   A    
C4    C45   A    
O7    Zn1   S    
O18   H54   S    
C30   C34   A    
N2    Zn2   S    
C62   H52   S    
C58   H34   S    
O14   H22   S    
C5    C7    A    
C35   O10   S    
C6    C8    A    
C4    C44   A    
C12   H14   S    
C22   O18   S    
C48   O14   S    
C31   C37   A    
C34   O11   S    
C57   H35   S    
C63   H50   S    
C18   C62   S    
O10   H18   S    
C45   C49   A    
C36   O9    S    
C16   C20   A    
C49   C52   A    
C7    H11   S    
C29   C39   A    
C50   C51   A    
O3    Zn1   S    
O8    Zn2   S    
C30   C40   A    
C60   H43   S    
C24   C25   A    
C28   O7    A    
C56   H37   S    
C2    O3    A    
C8    H12   S    
C53   H31   S    
C8    C10   A    
C40   C41   A    
C55   H26   S    
C31   C35   A    
N1    Zn1   S    
C62   C63   S    
C28   O6    A    
C59   H44   S    
C64   H46   S    
C13   H15   S    
C61   H41   S    
C7    C9    A    
C12   N2    A    
C45   H7    S    
C46   H8    S    
C11   H13   S    
O6    Zn2   S    
C47   C51   A    
C61   H39   S    
C11   N1    A    
O17   H53   S    
C46   C50   A    
C3    C46   A    
C59   C60   S    
C55   H25   S    
C13   C17   A    
C1    C4    S    
C49   O15   S    
C6    H10   S    
C2    C3    S    
C33   O12   S    
C5    C10   A    
C37   C39   A    
C63   H49   S    
C38   C40   A    
C5    H9    S    
C27   C42   S    
C13   N1    A    
C54   H29   S    
C33   C35   A    
C34   C36   A    
C60   H42   S    
C37   C41   A    
C56   H38   S    
C43   H5    S    
C44   C48   A    
C48   C52   A    
C55   H27   S    
O2    Zn2   S    
C54   C55   S    
C21   C24   A    
C58   H32   S    
C14   H16   S    
C22   C23   A    
C23   O19   S    
C31   H3    S    
O13   H21   S    
O19   H55   S    
O5    Zn1   S    
C32   H4    S    
O20   H56   S    
C64   H47   S    
