data_mof_unit_56324.cif
_audit_creation_date              2012-12-10T17:40:52-0500
_audit_creation_method            fapswitch 2.2
_symmetry_space_group_name_H-M    P1
_symmetry_Int_Tables_number       1
_space_group_crystal_system       triclinic
_cell_length_a                    14.55424
_cell_length_b                    15.725882
_cell_length_c                    9.985202
_cell_angle_alpha                 90.609953
_cell_angle_beta                  89.709468
_cell_angle_gamma                 89.524256
_cell_volume                      2285.15697077

loop_
_atom_site_label
_atom_site_type_symbol
_atom_type_description
_atom_site_fract_x
_atom_site_fract_y
_atom_site_fract_z
_atom_type_partial_charge
C1    C     C_R   0.392590 0.871693 0.498676 0.897831
C2    C     C_R   0.735127 0.206593 0.373551 -0.057433
C3    C     C_R   0.245843 0.298366 0.379556 -0.060372
C4    C     C_R   0.235138 0.706583 0.373551 -0.057426
C5    C     C_R   0.691637 0.811721 0.497838 -0.207910
C6    C     C_R   0.694069 0.184427 0.498771 -0.190593
C7    C     C_R   0.191636 0.311721 0.497838 -0.207907
C8    C     C_R   0.194077 0.684421 0.498771 -0.190574
C9    C     C_R   0.336679 0.018840 0.148308 -0.069302
C10   C     C_R   0.836679 0.518841 0.148307 -0.069307
C11   C     C_R   0.257769 0.052451 0.092077 -0.052262
C12   C     C_R   0.395227 0.129550 0.501442 0.952862
C13   C     C_R   0.757769 0.552453 0.092077 -0.052226
C14   C     C_R   0.255140 0.060919 0.954638 -0.278256
C15   C     C_R   0.755142 0.560924 0.954638 -0.278240
C16   C     C_R   0.326742 0.029190 0.872953 -0.030779
C17   C     C_R   0.826743 0.529193 0.872953 -0.030784
C18   C     C_R   0.416044 0.009927 0.930205 0.050298
C19   C     C_R   0.916044 0.509928 0.930205 0.050309
C20   C     C_R   0.418287 0.008813 0.074591 0.198139
C21   C     C_R   0.918287 0.508814 0.074591 0.198135
C22   C     C_R   0.578068 0.994232 0.072834 -0.096184
C23   C     C_R   0.892589 0.371693 0.498676 0.897832
C24   C     C_R   0.078068 0.494231 0.072834 -0.096231
C25   C     C_R   0.620126 0.121361 0.500149 0.870861
C26   C     C_R   0.618868 0.877143 0.499058 0.866922
C27   C     C_R   0.120129 0.621359 0.500149 0.870882
C28   C     C_R   0.118868 0.377143 0.499058 0.866923
C29   C     C_R   0.580247 0.996884 0.930724 -0.054179
C30   C     C_R   0.080247 0.496883 0.930724 -0.054176
C31   C     C_R   0.353593 0.231529 0.751793 -0.117742
C32   C     C_R   0.379008 0.753451 0.727311 -0.112167
C33   C     C_R   0.853594 0.731531 0.751793 -0.117748
C34   C     C_R   0.895226 0.629549 0.501443 0.952857
C35   C     C_R   0.879000 0.253453 0.727313 -0.112169
C36   C     C_R   0.304737 0.245848 0.869932 -0.142226
C37   C     C_R   0.344460 0.732135 0.852234 -0.035143
C38   C     C_R   0.804740 0.745856 0.869931 -0.142234
C39   C     C_R   0.844449 0.232141 0.852236 -0.035136
C40   C     C_R   0.711371 0.764153 0.864524 -0.177196
C41   C     C_R   0.752361 0.211224 0.864506 -0.042971
C42   C     C_R   0.211368 0.264144 0.864522 -0.177208
C43   C     C_R   0.252374 0.711215 0.864506 -0.042980
C44   C     C_R   0.670114 0.779279 0.741730 -0.093652
C45   C     C_R   0.328099 0.252595 0.387422 -0.106053
C46   C     C_R   0.698251 0.201268 0.750593 -0.149665
C47   C     C_R   0.170113 0.279276 0.741728 -0.093649
C48   C     C_R   0.198262 0.701260 0.750595 -0.149648
C49   C     C_R   0.722418 0.777894 0.621750 0.129418
C50   C     C_R   0.736735 0.210612 0.620703 0.093706
C51   C     C_R   0.222419 0.277894 0.621749 0.129422
C52   C     C_R   0.236743 0.710607 0.620703 0.093699
C53   C     C_R   0.309866 0.240841 0.626862 0.138939
C54   C     C_R   0.322622 0.749665 0.613040 0.114055
C55   C     C_R   0.809865 0.740841 0.626863 0.138944
C56   C     C_R   0.311297 0.759504 0.371295 -0.196847
C57   C     C_R   0.822616 0.249668 0.613040 0.114057
C58   C     C_R   0.350159 0.212611 0.506695 -0.234759
C59   C     C_R   0.346682 0.789505 0.493530 -0.247327
C60   C     C_R   0.850157 0.712610 0.506697 -0.234730
C61   C     C_R   0.846678 0.289507 0.493530 -0.247327
C62   C     C_2   0.397170 0.256132 0.278287 0.992609
C63   C     C_2   0.354984 0.781398 0.240295 0.980510
C64   C     C_2   0.897171 0.756124 0.278294 0.992620
C65   C     C_2   0.854978 0.281402 0.240295 0.980517
C66   C     C_2   0.284341 0.988767 0.755773 1.031840
C67   C     C_R   0.828099 0.752593 0.387426 -0.106049
C68   C     C_2   0.784341 0.488770 0.755773 1.031833
C69   C     C_2   0.674769 0.003146 0.871509 0.870613
C70   C     C_2   0.174769 0.503142 0.871509 0.870598
C71   C     C_2   0.716593 0.825232 0.244532 0.912408
C72   C     C_2   0.702190 0.174288 0.242622 0.973109
C73   C     C_2   0.216583 0.325222 0.244530 0.912387
C74   C     C_2   0.202210 0.674269 0.242623 0.973108
C75   C     C_2   0.175893 0.073735 0.175823 0.967121
C76   C     C_2   0.675892 0.573736 0.175822 0.967125
C77   C     C_R   0.811290 0.259509 0.371295 -0.196847
C78   C     C_R   0.745845 0.798367 0.379557 -0.060401
H1    H     H_    0.640571 0.990326 0.130038 0.229750
H2    H     H_    0.714868 0.386578 0.691823 0.338785
H3    H     H_    0.810181 0.022803 0.903872 0.364572
H4    H     H_    0.310182 0.522792 0.903873 0.364575
H5    H     H_    0.425394 0.213487 0.758370 0.142391
H6    H     H_    0.448846 0.774924 0.720303 0.128344
H7    H     H_    0.925395 0.713489 0.758369 0.142399
H8    H     H_    0.948839 0.274923 0.720307 0.128345
H9    H     H_    0.337924 0.237646 0.965058 0.208937
H10   H     H_    0.387566 0.736857 0.939862 0.198627
H11   H     H_    0.837929 0.737659 0.965056 0.208980
H12   H     H_    0.140571 0.490325 0.130039 0.229759
H13   H     H_    0.887553 0.236862 0.939866 0.198630
H14   H     H_    0.670685 0.767199 0.955017 0.205821
H15   H     H_    0.722781 0.202447 0.962153 0.189610
H16   H     H_    0.170680 0.267186 0.955014 0.205810
H17   H     H_    0.222796 0.702434 0.962155 0.189609
H18   H     H_    0.597366 0.790882 0.743071 0.141066
H19   H     H_    0.626227 0.190158 0.767949 0.152170
H20   H     H_    0.097365 0.290878 0.743066 0.141064
H21   H     H_    0.126238 0.690147 0.767955 0.152177
H22   H     H_    0.751522 0.882260 0.072856 0.347784
H23   H     H_    0.498569 0.323799 0.193057 0.380037
H24   H     H_    0.601397 0.175004 0.104257 0.326166
H25   H     H_    0.251498 0.382248 0.072845 0.347777
H26   H     H_    0.101423 0.674972 0.104247 0.326152
H27   H     H_    0.333170 0.002401 0.251059 0.223982
H28   H     H_    0.833169 0.502401 0.251058 0.223982
H29   H     H_    0.042424 0.109326 0.182566 0.372617
H30   H     H_    0.542426 0.609335 0.182565 0.372618
H31   H     H_    0.480012 0.739732 0.297096 0.315784
H32   H     H_    0.998613 0.823762 0.193111 0.380053
H33   H     H_    0.980002 0.239724 0.297092 0.315788
H34   H     H_    0.190564 0.080395 0.909730 0.211665
H35   H     H_    0.690566 0.580401 0.909731 0.211661
H36   H     H_    0.214870 0.886573 0.691822 0.338786
N1    N     N_R   0.498810 1.000000 0.142780 -0.120063
N2    N     N_R   0.998810 0.500000 0.142780 -0.120069
N3    N     N_R   0.498740 1.000000 0.857170 -0.160485
N4    N     N_R   0.998740 0.500000 0.857170 -0.160482
O1    O     O_R   0.408390 0.908380 0.614690 -0.617780
O2    O     O_R   0.591620 0.908390 0.614640 -0.589454
O3    O     O_R   0.091620 0.591610 0.614640 -0.608129
O4    O     O_R   0.091620 0.408390 0.614640 -0.589454
O5    O     O_R   0.591610 0.091610 0.385310 -0.604757
O6    O     O_R   0.591610 0.908390 0.385310 -0.588446
O7    O     O_R   0.091610 0.591610 0.385310 -0.604758
O8    O     O_R   0.091610 0.408390 0.385310 -0.588448
O9    O     O_2   0.396777 0.203783 0.187257 -0.659498
O10   O     O_R   0.460027 0.322784 0.277786 -0.736402
O11   O     O_2   0.309028 0.814145 0.152497 -0.611909
O12   O     O_R   0.408390 0.091620 0.614690 -0.627954
O13   O     O_R   0.448623 0.766958 0.217781 -0.727777
O14   O     O_2   0.896739 0.703798 0.187227 -0.659532
O15   O     O_R   0.960081 0.822740 0.277849 -0.736437
O16   O     O_2   0.809025 0.314153 0.152499 -0.611918
O17   O     O_R   0.948615 0.266954 0.217779 -0.727776
O18   O     O_2   0.252140 0.032201 0.666289 -0.610114
O19   O     O_R   0.258307 0.904065 0.766033 -0.790238
O20   O     O_2   0.752139 0.532205 0.666290 -0.610119
O21   O     O_R   0.758306 0.404069 0.766033 -0.790243
O22   O     O_2   0.689286 0.994949 0.752530 -0.562391
O23   O     O_R   0.908390 0.408380 0.614690 -0.617779
O24   O     O_R   0.749712 0.020042 0.954526 -0.786856
O25   O     O_2   0.189285 0.494950 0.752529 -0.562393
O26   O     O_R   0.249714 0.520031 0.954527 -0.786849
O27   O     O_2   0.644556 0.798923 0.198209 -0.603583
O28   O     O_R   0.773938 0.876485 0.167921 -0.767688
O29   O     O_2   0.747673 0.120810 0.181730 -0.604929
O30   O     O_R   0.619567 0.204873 0.190384 -0.779192
O31   O     O_2   0.144547 0.298906 0.198217 -0.603586
O32   O     O_R   0.273919 0.376478 0.167909 -0.767653
O33   O     O_2   0.247699 0.620789 0.181743 -0.604910
O34   O     O_R   0.908390 0.591620 0.614690 -0.627953
O35   O     O_R   0.119587 0.704847 0.190370 -0.779201
O36   O     O_2   0.180075 0.070013 0.297987 -0.606595
O37   O     O_R   0.093559 0.098308 0.115185 -0.777054
O38   O     O_2   0.680071 0.570005 0.297985 -0.606596
O39   O     O_R   0.593562 0.598319 0.115185 -0.777058
O40   O     O_R   0.408370 0.908380 0.385360 -0.624999
O41   O     O_R   0.408370 0.091620 0.385360 -0.607009
O42   O     O_R   0.908370 0.408380 0.385360 -0.624997
O43   O     O_R   0.908370 0.591620 0.385360 -0.607042
O44   O     O_R   0.591620 0.091610 0.614640 -0.608125
Zn1   Zn    Zn3+2 0.500010 1.000000 0.653130 0.977141
Zn2   Zn    Zn3+2 0.000010 0.500000 0.653130 0.977143
Zn3   Zn    Zn3+2 0.499980 0.000000 0.346870 1.029826
Zn4   Zn    Zn3+2 0.999980 0.500000 0.346870 1.029818

loop_
_geom_bond_atom_site_label_1
_geom_bond_atom_site_label_2
_ccdc_geom_bond_type
C44   C49   A    
C33   C55   A    
C38   C40   A    
C22   C29   A    
C73   O32   S    
C37   H10   S    
C36   C42   A    
C4    C8    A    
C34   O43   A    
C5    C49   A    
C27   O3    A    
O4    Zn2   S    
C39   C41   A    
N3    Zn1   S    
C14   H34   S    
C38   H11   S    
N4    Zn2   S    
C70   O25   D    
C47   H20   S    
C12   O12   A    
C1    O40   A    
C19   C21   A    
C26   O2    A    
C22   H1    S    
C3    C7    A    
C1    C59   S    
C62   O9    D    
C35   H8    S    
C28   O4    A    
C6    C25   S    
C9    H27   S    
C45   C62   S    
H23   O10   S    
C31   H5    S    
C1    O1    A    
H36   O19   S    
C39   H13   S    
C33   H7    S    
H25   O32   S    
H24   O30   S    
C68   O20   D    
C41   H15   S    
C64   O14   D    
C19   N4    A    
H22   O28   S    
H31   O13   S    
C43   H17   S    
C41   C46   A    
C15   H35   S    
O42   Zn4   S    
H26   O35   S    
N1    Zn3   S    
C43   C48   A    
C8    C52   A    
C40   C44   A    
C4    C74   S    
C65   O16   D    
O2    Zn1   S    
C12   C58   S    
C69   O22   D    
C10   C21   A    
C55   C60   A    
C4    C56   A    
C34   C60   S    
N2    Zn4   S    
C2    C6    A    
C67   C78   A    
C26   O6    A    
C21   N2    A    
C2    C72   S    
C32   C54   A    
C30   C70   S    
C52   C54   A    
C29   C69   S    
C54   C59   A    
C36   H9    S    
C32   H6    S    
C76   O39   S    
C65   C77   S    
C64   C67   S    
C60   C67   A    
H4    O26   S    
C61   C77   A    
C34   O34   A    
C17   C19   A    
C47   C51   A    
H30   O39   S    
C30   N4    A    
C69   O24   S    
C49   C55   A    
O3    Zn2   S    
C29   N3    A    
C76   O38   D    
C31   C53   A    
C7    C28   S    
O41   Zn3   S    
C74   O35   S    
C51   C53   A    
C37   C43   A    
C35   C39   A    
C44   H18   S    
C9    C11   A    
C9    C20   A    
C13   C76   S    
C23   C61   S    
C25   O44   A    
C23   O42   A    
C56   C63   S    
O34   Zn2   S    
C32   C37   A    
C6    C50   A    
C25   O5    A    
C18   N3    A    
C65   O17   S    
C66   O18   D    
H3    O24   S    
C71   O27   D    
C46   H19   S    
C24   N2    A    
C63   O13   S    
C13   C15   A    
C14   C16   A    
C74   O33   D    
C10   H28   S    
C16   C66   S    
O1    Zn1   S    
C45   C58   A    
H2    O21   S    
O44   Zn1   S    
C15   C17   A    
C48   H21   S    
C64   O15   S    
C22   N1    A    
C17   C68   S    
C73   O31   D    
C42   H16   S    
C50   C57   A    
O43   Zn4   S    
O8    Zn4   S    
C10   C13   A    
C24   H12   S    
C20   N1    A    
C53   C58   A    
C57   C61   A    
C28   O8    A    
C72   O29   D    
C46   C50   A    
C70   O26   S    
C33   C38   A    
C56   C59   A    
C35   C57   A    
O7    Zn4   S    
C7    C51   A    
C2    C77   A    
C72   O30   S    
C62   O10   S    
C27   O7    A    
C75   O36   D    
H33   O17   S    
C66   O19   S    
O12   Zn1   S    
O6    Zn3   S    
C11   C14   A    
C3    C45   A    
C18   C20   A    
C42   C47   A    
C63   O11   D    
C12   O41   A    
C3    C73   S    
C24   C30   A    
C40   H14   S    
C5    C26   S    
O5    Zn3   S    
C75   O37   S    
C48   C52   A    
C71   O28   S    
O23   Zn2   S    
C16   C18   A    
C8    C27   S    
C31   C36   A    
C23   O23   A    
C68   O21   S    
C11   C75   S    
C5    C78   A    
H32   O15   S    
C71   C78   S    
H29   O37   S    
O40   Zn3   S    
