data_mof_unit_61151.cif
_audit_creation_date              2012-12-10T19:31:12-0500
_audit_creation_method            fapswitch 2.2
_symmetry_space_group_name_H-M    P1
_symmetry_Int_Tables_number       1
_space_group_crystal_system       triclinic
_cell_length_a                    30.65883
_cell_length_b                    29.151554
_cell_length_c                    30.632881
_cell_angle_alpha                 89.977589
_cell_angle_beta                  89.998045
_cell_angle_gamma                 89.745578
_cell_volume                      27377.943119

loop_
_atom_site_label
_atom_site_type_symbol
_atom_type_description
_atom_site_fract_x
_atom_site_fract_y
_atom_site_fract_z
_atom_type_partial_charge
C1    C     C_R   0.309850 0.000430 0.690010 0.875070
C2    C     C_R   0.690080 0.000485 0.689938 0.875374
C3    C     C_R   0.809910 0.499499 0.689958 0.875287
C4    C     C_R   0.190088 0.500498 0.689955 0.875294
C5    C     C_R   0.809912 0.999501 0.189957 0.875308
C6    C     C_R   0.190090 0.000496 0.189958 0.875289
C7    C     C_R   0.309904 0.500535 0.189964 0.875361
C8    C     C_R   0.690094 0.499462 0.189962 0.875377
C9    C     C_R   0.375737 0.037031 0.594962 -0.214875
C10   C     C_R   0.629878 0.029029 0.588345 -0.222882
C11   C     C_R   0.871210 0.469098 0.589593 -0.222343
C12   C     C_R   0.128920 0.530677 0.589421 -0.222352
C13   C     C_R   0.871095 0.969294 0.089460 -0.222340
C14   C     C_R   0.128751 0.030951 0.089613 -0.222179
C15   C     C_R   0.371229 0.531437 0.089874 -0.222476
C16   C     C_R   0.628887 0.468735 0.089766 -0.222569
C17   C     C_R   0.404333 0.999490 0.591637 -0.118632
C18   C     C_R   0.594682 0.998852 0.592239 -0.101110
C19   C     C_R   0.905092 0.501078 0.592088 -0.105107
C20   C     C_R   0.094891 0.498887 0.592095 -0.104709
C21   C     C_R   0.905123 0.001083 0.092108 -0.104807
C22   C     C_R   0.094928 0.998896 0.092070 -0.105275
C23   C     C_R   0.405222 0.499258 0.092224 -0.105395
C24   C     C_R   0.594740 0.500717 0.092252 -0.105083
C25   C     C_R   0.397356 0.960473 0.616980 0.146704
C26   C     C_R   0.594446 0.965687 0.624945 0.143560
C27   C     C_R   0.903848 0.535735 0.623338 0.142785
C28   C     C_R   0.095972 0.464387 0.623532 0.142373
C29   C     C_R   0.904040 0.035588 0.123515 0.142316
C30   C     C_R   0.096234 0.964183 0.123289 0.142564
C31   C     C_R   0.404083 0.464400 0.123290 0.143210
C32   C     C_R   0.595711 0.535419 0.123455 0.142993
C33   C     C_3   0.428857 0.933745 0.644283 -0.488178
C34   C     C_3   0.559022 0.954061 0.656488 -0.521759
C35   C     C_3   0.938698 0.550894 0.654136 -0.503695
C36   C     C_3   0.061047 0.449582 0.654415 -0.504347
C37   C     C_3   0.938962 0.050395 0.154387 -0.504164
C38   C     C_3   0.061408 0.948886 0.154066 -0.503340
C39   C     C_3   0.438963 0.448899 0.154060 -0.503260
C40   C     C_3   0.560760 0.550549 0.154299 -0.503858
C41   C     C_3   0.394651 0.934414 0.680118 -0.484605
C42   C     C_3   0.593502 0.954863 0.692019 -0.456906
C43   C     C_3   0.904376 0.549846 0.689845 -0.467181
C44   C     C_3   0.095371 0.450643 0.690118 -0.466596
C45   C     C_3   0.904632 0.049343 0.190088 -0.466724
C46   C     C_3   0.095721 0.949941 0.189782 -0.467442
C47   C     C_3   0.404581 0.449841 0.189719 -0.467513
C48   C     C_3   0.595155 0.549614 0.189944 -0.466914
C49   C     C_R   0.162648 0.018683 0.882274 0.133866
C50   C     C_R   0.837342 0.981356 0.882301 0.133988
C51   C     C_R   0.662698 0.480837 0.882144 0.133923
C52   C     C_R   0.337305 0.519192 0.882124 0.133890
C53   C     C_R   0.662710 0.018547 0.382335 0.134484
C54   C     C_R   0.337428 0.981189 0.382199 0.133143
C55   C     C_R   0.162654 0.518669 0.382280 0.134222
C56   C     C_R   0.837347 0.481346 0.382297 0.134239
C57   C     C_R   0.156837 0.998186 0.842131 -0.208372
C58   C     C_R   0.843160 0.001830 0.842133 -0.208410
C59   C     C_R   0.656791 0.501613 0.842104 -0.208204
C60   C     C_R   0.343213 0.498408 0.842102 -0.208311
C61   C     C_R   0.656832 0.998198 0.342133 -0.208662
C62   C     C_R   0.343158 0.001866 0.342120 -0.207281
C63   C     C_R   0.156836 0.498188 0.342131 -0.208487
C64   C     C_R   0.843160 0.501832 0.342133 -0.208464
C65   C     C_R   0.116557 0.977160 0.833061 -0.195163
C66   C     C_R   0.883439 0.022859 0.833046 -0.195117
C67   C     C_R   0.616350 0.522692 0.833068 -0.195384
C68   C     C_R   0.383663 0.477347 0.833078 -0.195290
C69   C     C_R   0.616489 0.977324 0.333014 -0.195086
C70   C     C_R   0.383357 0.023090 0.333101 -0.195337
C71   C     C_R   0.116550 0.477178 0.333056 -0.195143
C72   C     C_R   0.883434 0.522872 0.333050 -0.195065
C73   C     C_R   0.083178 0.977360 0.864269 0.432290
C74   C     C_R   0.916815 0.022673 0.864258 0.432232
C75   C     C_R   0.582968 0.522423 0.864267 0.432752
C76   C     C_R   0.417045 0.477627 0.864274 0.432841
C77   C     C_R   0.583121 0.977522 0.364232 0.432188
C78   C     C_R   0.416747 0.022890 0.364300 0.432535
C79   C     C_R   0.083172 0.477377 0.364265 0.432329
C80   C     C_R   0.916810 0.522686 0.364260 0.432328
C81   C     C_R   0.090894 0.999538 0.904881 -0.229105
C82   C     C_R   0.909096 0.000502 0.904890 -0.229089
C83   C     C_R   0.590835 0.500090 0.904825 -0.229057
C84   C     C_R   0.409171 0.499951 0.904819 -0.229207
C85   C     C_R   0.590913 0.999542 0.404906 -0.229020
C86   C     C_R   0.409123 0.000508 0.404849 -0.229314
C87   C     C_R   0.090896 0.499539 0.404883 -0.229152
C88   C     C_R   0.909098 0.500502 0.404888 -0.229167
C89   C     C_R   0.250069 0.914252 0.750027 0.878941
C90   C     C_R   0.749957 0.085749 0.750036 0.877029
C91   C     C_R   0.750028 0.914252 0.749954 0.881637
C92   C     C_R   0.249956 0.085748 0.749953 0.877052
C93   C     C_R   0.750044 0.414252 0.750050 0.877994
C94   C     C_R   0.249965 0.585748 0.750043 0.878033
C95   C     C_R   0.250019 0.414252 0.749945 0.880206
C96   C     C_R   0.749972 0.585748 0.749938 0.880098
C97   C     C_R   0.750050 0.914251 0.250042 0.876719
C98   C     C_R   0.249957 0.085749 0.250035 0.876505
C99   C     C_R   0.250026 0.914253 0.249953 0.881436
C100  C     C_R   0.749966 0.085747 0.249946 0.881417
C101  C     C_R   0.250063 0.414252 0.250032 0.880119
C102  C     C_R   0.749945 0.585748 0.250025 0.880172
C103  C     C_R   0.750038 0.414251 0.249963 0.877876
C104  C     C_R   0.249954 0.585748 0.249956 0.877850
C105  C     C_R   0.130759 0.020007 0.911980 0.088412
C106  C     C_R   0.869226 0.980046 0.912012 0.088557
C107  C     C_R   0.630798 0.479416 0.911830 0.088106
C108  C     C_R   0.369206 0.520623 0.911807 0.088033
C109  C     C_R   0.630836 0.019863 0.412057 0.088823
C110  C     C_R   0.369328 0.979858 0.411890 0.084291
C111  C     C_R   0.130767 0.519992 0.411988 0.088662
C112  C     C_R   0.869232 0.480035 0.412006 0.088711
C113  C     C_3   0.157166 0.045781 0.944470 -0.485193
C114  C     C_3   0.842826 0.954257 0.944517 -0.485287
C115  C     C_3   0.657473 0.453722 0.944355 -0.485577
C116  C     C_3   0.342514 0.546282 0.944326 -0.485567
C117  C     C_3   0.657328 0.045431 0.444625 -0.486738
C118  C     C_3   0.343019 0.953803 0.444277 -0.475013
C119  C     C_3   0.157183 0.545743 0.444487 -0.485637
C120  C     C_3   0.842839 0.454229 0.444504 -0.485517
C121  C     C_3   0.193770 0.044798 0.910013 -0.445522
C122  C     C_3   0.806225 0.955228 0.910057 -0.445832
C123  C     C_3   0.694084 0.454797 0.909915 -0.445319
C124  C     C_3   0.305903 0.545197 0.909889 -0.445364
C125  C     C_3   0.693918 0.044458 0.410152 -0.445724
C126  C     C_3   0.306409 0.954796 0.409830 -0.449167
C127  C     C_3   0.193786 0.544761 0.410029 -0.446062
C128  C     C_3   0.806237 0.455201 0.410045 -0.446188
C129  C     C_R   0.940018 0.000103 0.938944 0.898208
C130  C     C_R   0.059983 0.999909 0.938945 0.898233
C131  C     C_R   0.439952 0.500040 0.939004 0.898354
C132  C     C_R   0.560042 0.499973 0.938999 0.898336
C133  C     C_R   0.440051 0.000104 0.438907 0.897803
C134  C     C_R   0.560011 0.999909 0.438973 0.898366
C135  C     C_R   0.940020 0.500103 0.438942 0.898246
C136  C     C_R   0.059986 0.499909 0.438948 0.898258
C137  C     C_R   0.439449 0.999996 0.561003 0.902942
C138  C     C_R   0.560192 0.999850 0.561204 0.905049
C139  C     C_R   0.939730 0.500135 0.561158 0.903004
C140  C     C_R   0.060261 0.499853 0.561163 0.902991
C141  C     C_R   0.939741 0.000135 0.061166 0.903056
C142  C     C_R   0.060275 0.999854 0.061155 0.902942
C143  C     C_R   0.439746 0.499978 0.061172 0.902769
C144  C     C_R   0.560243 0.500011 0.061178 0.902816
C145  C     C_R   0.190017 0.999584 0.809915 0.913040
C146  C     C_R   0.809983 0.000415 0.809916 0.913145
C147  C     C_R   0.690011 0.500396 0.809912 0.913057
C148  C     C_R   0.309990 0.499605 0.809913 0.913088
C149  C     C_R   0.690015 0.999585 0.309916 0.913211
C150  C     C_R   0.309982 0.000432 0.309912 0.913016
C151  C     C_R   0.190017 0.499585 0.309915 0.913169
C152  C     C_R   0.809983 0.500416 0.309915 0.913175
C153  C     C_1   0.250140 0.863429 0.750122 -0.201107
C154  C     C_1   0.749923 0.136573 0.750133 -0.199138
C155  C     C_1   0.750065 0.863429 0.749849 -0.202751
C156  C     C_1   0.249895 0.136572 0.749839 -0.202050
C157  C     C_1   0.750097 0.363429 0.750160 -0.202084
C158  C     C_1   0.249938 0.636573 0.750144 -0.202297
C159  C     C_1   0.250049 0.363428 0.749834 -0.200073
C160  C     C_1   0.749920 0.636572 0.749819 -0.200154
C161  C     C_1   0.750100 0.863427 0.250144 -0.198880
C162  C     C_1   0.249926 0.136573 0.250129 -0.199053
C163  C     C_1   0.250057 0.863429 0.249850 -0.203277
C164  C     C_1   0.749916 0.136570 0.249835 -0.203280
C165  C     C_1   0.250126 0.363429 0.250131 -0.199896
C166  C     C_1   0.749900 0.636571 0.250116 -0.199815
C167  C     C_1   0.750084 0.363427 0.249863 -0.202412
C168  C     C_1   0.249890 0.636572 0.249848 -0.202398
C169  C     C_1   0.250137 0.821124 0.750165 0.002381
C170  C     C_1   0.749942 0.178878 0.750181 0.003550
C171  C     C_1   0.750049 0.821124 0.749800 0.002359
C172  C     C_1   0.249898 0.178877 0.749791 0.002350
C173  C     C_1   0.750085 0.321124 0.750204 0.002165
C174  C     C_1   0.249968 0.678878 0.750183 0.001876
C175  C     C_1   0.250027 0.321123 0.749786 0.003552
C176  C     C_1   0.749930 0.678877 0.749774 0.003435
C177  C     C_1   0.750081 0.821122 0.250181 0.004015
C178  C     C_1   0.249953 0.178878 0.250168 0.003837
C179  C     C_1   0.250033 0.821124 0.249808 0.001631
C180  C     C_1   0.749932 0.178875 0.249795 0.001591
C181  C     C_1   0.250119 0.321124 0.250171 0.003867
C182  C     C_1   0.749916 0.678876 0.250159 0.003981
C183  C     C_1   0.750071 0.321122 0.249818 0.001624
C184  C     C_1   0.249894 0.678878 0.249805 0.001643
C185  C     C_1   0.250089 0.771153 0.750191 0.006776
C186  C     C_1   0.749992 0.228849 0.750211 0.007394
C187  C     C_1   0.750008 0.771153 0.749768 0.007100
C188  C     C_1   0.249936 0.228848 0.749766 0.007177
C189  C     C_1   0.750039 0.271153 0.750218 0.006993
C190  C     C_1   0.250033 0.728849 0.750197 0.006522
C191  C     C_1   0.249979 0.271153 0.749765 0.007577
C192  C     C_1   0.749969 0.728848 0.749760 0.007416
C193  C     C_1   0.750025 0.771151 0.250192 0.008251
C194  C     C_1   0.250014 0.228849 0.250188 0.008096
C195  C     C_1   0.249981 0.771154 0.249787 0.006126
C196  C     C_1   0.749981 0.228846 0.249783 0.006077
C197  C     C_1   0.250069 0.271153 0.250189 0.008183
C198  C     C_1   0.749970 0.728847 0.250185 0.008314
C199  C     C_1   0.750026 0.271151 0.249790 0.006017
C200  C     C_1   0.249935 0.728849 0.249786 0.006052
C201  C     C_R   0.366452 0.960989 0.649389 0.102203
C202  C     C_R   0.625622 0.966415 0.657113 0.111758
C203  C     C_R   0.872804 0.534949 0.655616 0.109406
C204  C     C_R   0.127019 0.465185 0.655806 0.109556
C205  C     C_R   0.872988 0.034800 0.155786 0.109495
C206  C     C_R   0.127270 0.964976 0.155574 0.109138
C207  C     C_R   0.372991 0.465090 0.155518 0.108686
C208  C     C_R   0.626815 0.534735 0.155670 0.108893
C209  C     C_R   0.341812 0.000331 0.656609 -0.074045
C210  C     C_R   0.657999 0.999664 0.656414 -0.088578
C211  C     C_R   0.841982 0.500130 0.656473 -0.084959
C212  C     C_R   0.158013 0.499843 0.656467 -0.085315
C213  C     C_R   0.841990 0.000146 0.156472 -0.085319
C214  C     C_R   0.158020 0.999864 0.156473 -0.084869
C215  C     C_R   0.342002 0.500020 0.156508 -0.084657
C216  C     C_R   0.657990 0.499983 0.156506 -0.085033
C217  C     C_R   0.343868 0.037127 0.627290 -0.212616
C218  C     C_R   0.662107 0.028909 0.620283 -0.206795
C219  C     C_R   0.839053 0.469131 0.621615 -0.208472
C220  C     C_R   0.161080 0.530644 0.621437 -0.208320
C221  C     C_R   0.838928 0.969335 0.121473 -0.208233
C222  C     C_R   0.160899 0.030930 0.121642 -0.208368
C223  C     C_R   0.339014 0.531317 0.121848 -0.208342
C224  C     C_R   0.661115 0.468874 0.121725 -0.208193
H1    H     H_    0.322452 0.066569 0.630804 0.149447
H2    H     H_    0.688777 0.053065 0.618036 0.157253
H3    H     H_    0.813414 0.443691 0.620480 0.155323
H4    H     H_    0.186835 0.555948 0.620157 0.155552
H5    H     H_    0.813172 0.944033 0.120214 0.155692
H6    H     H_    0.186490 0.056426 0.120536 0.155426
H7    H     H_    0.313263 0.556878 0.120828 0.155301
H8    H     H_    0.686990 0.443458 0.120592 0.155536
H9    H     H_    0.378916 0.066543 0.573715 0.166922
H10   H     H_    0.631773 0.053147 0.561491 0.155923
H11   H     H_    0.870314 0.443685 0.563806 0.157889
H12   H     H_    0.129929 0.555950 0.563496 0.157717
H13   H     H_    0.870086 0.944018 0.063555 0.157833
H14   H     H_    0.129604 0.056418 0.063853 0.158132
H15   H     H_    0.370250 0.557010 0.064207 0.158033
H16   H     H_    0.629983 0.443304 0.063995 0.157851
H17   H     H_    0.435050 0.898906 0.630850 0.208208
H18   H     H_    0.534392 0.981973 0.659731 0.194618
H19   H     H_    0.545422 0.919332 0.650561 0.209997
H20   H     H_    0.458563 0.953627 0.652552 0.194815
H21   H     H_    0.964840 0.524724 0.658475 0.191514
H22   H     H_    0.035029 0.475912 0.658604 0.191580
H23   H     H_    0.049192 0.414443 0.647068 0.211674
H24   H     H_    0.950386 0.586055 0.646589 0.211762
H25   H     H_    0.964979 0.024065 0.158603 0.191623
H26   H     H_    0.035210 0.974987 0.158427 0.191567
H27   H     H_    0.049795 0.913713 0.146480 0.211628
H28   H     H_    0.950819 0.085532 0.147009 0.211672
H29   H     H_    0.450832 0.413742 0.146343 0.211661
H30   H     H_    0.548701 0.585678 0.146733 0.211659
H31   H     H_    0.534889 0.524335 0.158715 0.191686
H32   H     H_    0.464973 0.474936 0.158577 0.191636
H33   H     H_    0.381043 0.899960 0.687356 0.203349
H34   H     H_    0.588762 0.983146 0.715932 0.217308
H35   H     H_    0.599912 0.920558 0.706580 0.203019
H36   H     H_    0.404519 0.954689 0.709209 0.219035
H37   H     H_    0.910544 0.522975 0.714905 0.217668
H38   H     H_    0.089328 0.477684 0.715024 0.217623
H39   H     H_    0.103275 0.416123 0.703442 0.203584
H40   H     H_    0.896304 0.584398 0.702971 0.203690
H41   H     H_    0.910670 0.022307 0.215019 0.217650
H42   H     H_    0.089493 0.976749 0.214869 0.217720
H43   H     H_    0.103860 0.915381 0.202873 0.203524
H44   H     H_    0.896729 0.083868 0.203379 0.203487
H45   H     H_    0.396658 0.415233 0.202647 0.203631
H46   H     H_    0.602896 0.584198 0.203015 0.203608
H47   H     H_    0.589303 0.522762 0.215045 0.217751
H48   H     H_    0.410579 0.476520 0.214931 0.217799
H49   H     H_    0.110920 0.960646 0.801884 0.190977
H50   H     H_    0.889080 0.039362 0.801851 0.190933
H51   H     H_    0.610614 0.539370 0.801950 0.190720
H52   H     H_    0.389403 0.460670 0.801972 0.190860
H53   H     H_    0.610795 0.960925 0.301792 0.191076
H54   H     H_    0.388925 0.039746 0.301966 0.190689
H55   H     H_    0.110907 0.460676 0.301874 0.190993
H56   H     H_    0.889070 0.539384 0.301859 0.190982
H57   H     H_    0.143810 0.080667 0.950752 0.210616
H58   H     H_    0.856194 0.919376 0.950823 0.210599
H59   H     H_    0.835458 0.975047 0.974053 0.200430
H60   H     H_    0.164522 0.024985 0.974020 0.200507
H61   H     H_    0.664598 0.474547 0.973885 0.200434
H62   H     H_    0.335403 0.525437 0.973862 0.200556
H63   H     H_    0.355472 0.581207 0.950631 0.210486
H64   H     H_    0.644492 0.418804 0.950671 0.210638
H65   H     H_    0.644075 0.080335 0.451030 0.210523
H66   H     H_    0.356511 0.918942 0.450420 0.212202
H67   H     H_    0.335579 0.974424 0.473900 0.201467
H68   H     H_    0.664636 0.024501 0.474100 0.199963
H69   H     H_    0.143839 0.580631 0.450784 0.210421
H70   H     H_    0.856215 0.419349 0.450800 0.210333
H71   H     H_    0.835466 0.475007 0.474047 0.200621
H72   H     H_    0.164534 0.524932 0.474029 0.200497
H73   H     H_    0.201359 0.079085 0.896130 0.200063
H74   H     H_    0.798652 0.920938 0.896197 0.199891
H75   H     H_    0.777521 0.976258 0.919838 0.208983
H76   H     H_    0.222466 0.023754 0.919812 0.208981
H77   H     H_    0.722546 0.475913 0.919720 0.208895
H78   H     H_    0.277456 0.524056 0.919704 0.208951
H79   H     H_    0.297912 0.579459 0.896015 0.200053
H80   H     H_    0.702052 0.420535 0.896052 0.200168
H81   H     H_    0.701602 0.078771 0.396381 0.199572
H82   H     H_    0.298962 0.920547 0.395811 0.200163
H83   H     H_    0.277630 0.975663 0.419707 0.209101
H84   H     H_    0.722556 0.023287 0.419871 0.208979
H85   H     H_    0.201385 0.579051 0.396158 0.199712
H86   H     H_    0.798672 0.420913 0.396176 0.199643
H87   H     H_    0.777528 0.476221 0.419833 0.209085
H88   H     H_    0.222475 0.523704 0.419818 0.209010
O1    O     O_R   0.321670 0.000000 0.730060 -0.617515
O2    O     O_R   0.678330 0.000000 0.730060 -0.618682
O3    O     O_R   0.821670 0.500000 0.730060 -0.618454
O4    O     O_R   0.178330 0.500000 0.730060 -0.618440
O5    O     O_R   0.821670 0.000000 0.230060 -0.618429
O6    O     O_R   0.178330 0.000000 0.230060 -0.618395
O7    O     O_R   0.321670 0.500000 0.230060 -0.618455
O8    O     O_R   0.678330 0.500000 0.230060 -0.618474
O9    O     O_R   0.269940 0.000000 0.678340 -0.614207
O10   O     O_R   0.730060 0.000000 0.678340 -0.615801
O11   O     O_R   0.769940 0.500000 0.678340 -0.615268
O12   O     O_R   0.230060 0.500000 0.678340 -0.615376
O13   O     O_R   0.769940 0.000000 0.178340 -0.615364
O14   O     O_R   0.230060 0.000000 0.178340 -0.615286
O15   O     O_R   0.269940 0.500000 0.178340 -0.615261
O16   O     O_R   0.730060 0.500000 0.178340 -0.615327
O17   O     O_R   0.275870 0.936860 0.775860 -0.601055
O18   O     O_R   0.724130 0.063140 0.775860 -0.599124
O19   O     O_R   0.724130 0.936860 0.775860 -0.603149
O20   O     O_R   0.275870 0.063140 0.775860 -0.600895
O21   O     O_R   0.775870 0.436860 0.775860 -0.601324
O22   O     O_R   0.224130 0.563140 0.775860 -0.601257
O23   O     O_R   0.224130 0.436860 0.775860 -0.601031
O24   O     O_R   0.775870 0.563140 0.775860 -0.601017
O25   O     O_R   0.775870 0.936860 0.275860 -0.598935
O26   O     O_R   0.224130 0.063140 0.275860 -0.599063
O27   O     O_R   0.224130 0.936860 0.275860 -0.603241
O28   O     O_R   0.775870 0.063140 0.275860 -0.603362
O29   O     O_R   0.275870 0.436860 0.275860 -0.600827
O30   O     O_R   0.724130 0.563140 0.275860 -0.600763
O31   O     O_R   0.724130 0.436860 0.275860 -0.601503
O32   O     O_R   0.275870 0.563140 0.275860 -0.601473
O33   O     O_R   0.224140 0.936870 0.724140 -0.598400
O34   O     O_R   0.775860 0.063130 0.724140 -0.601718
O35   O     O_R   0.775860 0.936870 0.724140 -0.594407
O36   O     O_R   0.224140 0.063130 0.724140 -0.597918
O37   O     O_R   0.724140 0.436870 0.724140 -0.598208
O38   O     O_R   0.275860 0.563130 0.724140 -0.598410
O39   O     O_R   0.275860 0.436870 0.724140 -0.597802
O40   O     O_R   0.724140 0.563130 0.724140 -0.597880
O41   O     O_R   0.724140 0.936870 0.224140 -0.601654
O42   O     O_R   0.275860 0.063130 0.224140 -0.601640
O43   O     O_R   0.275860 0.936870 0.224140 -0.594527
O44   O     O_R   0.724140 0.063130 0.224140 -0.594491
O45   O     O_R   0.224140 0.436870 0.224140 -0.597935
O46   O     O_R   0.775860 0.563130 0.224140 -0.597964
O47   O     O_R   0.775860 0.436870 0.224140 -0.598259
O48   O     O_R   0.224140 0.563130 0.224140 -0.598259
O49   O     O_R   0.230060 0.000000 0.821670 -0.614823
O50   O     O_R   0.769940 0.000000 0.821670 -0.614766
O51   O     O_R   0.730060 0.500000 0.821670 -0.614838
O52   O     O_R   0.269940 0.500000 0.821670 -0.614794
O53   O     O_R   0.730060 0.000000 0.321670 -0.614759
O54   O     O_R   0.269940 0.000000 0.321670 -0.614745
O55   O     O_R   0.230060 0.500000 0.321670 -0.614763
O56   O     O_R   0.769940 0.500000 0.321670 -0.614724
O57   O     O_R   0.178330 0.000000 0.769950 -0.617044
O58   O     O_R   0.821670 0.000000 0.769950 -0.617020
O59   O     O_R   0.678330 0.500000 0.769950 -0.616930
O60   O     O_R   0.321670 0.500000 0.769950 -0.616999
O61   O     O_R   0.678330 0.000000 0.269950 -0.617095
O62   O     O_R   0.321670 0.000000 0.269950 -0.616977
O63   O     O_R   0.178330 0.500000 0.269950 -0.617038
O64   O     O_R   0.821670 0.500000 0.269950 -0.617043
O65   O     O_R   0.954170 0.964330 0.954180 -0.620821
O66   O     O_R   0.045830 0.035670 0.954180 -0.620860
O67   O     O_R   0.045830 0.964330 0.954180 -0.618925
O68   O     O_R   0.954170 0.035670 0.954180 -0.618962
O69   O     O_R   0.454170 0.464330 0.954180 -0.618488
O70   O     O_R   0.545830 0.535670 0.954180 -0.618687
O71   O     O_R   0.545830 0.464330 0.954180 -0.620788
O72   O     O_R   0.454170 0.535670 0.954180 -0.620974
O73   O     O_R   0.454170 0.964330 0.454180 -0.619280
O74   O     O_R   0.545830 0.035670 0.454180 -0.620770
O75   O     O_R   0.545830 0.964330 0.454180 -0.618937
O76   O     O_R   0.454170 0.035670 0.454180 -0.620857
O77   O     O_R   0.954170 0.464330 0.454180 -0.620948
O78   O     O_R   0.045830 0.535670 0.454180 -0.620916
O79   O     O_R   0.045830 0.464330 0.454180 -0.618862
O80   O     O_R   0.954170 0.535670 0.454180 -0.618812
O81   O     O_R   0.454180 0.964360 0.545790 -0.623358
O82   O     O_R   0.545820 0.035640 0.545790 -0.624187
O83   O     O_R   0.545820 0.964360 0.545790 -0.620759
O84   O     O_R   0.454180 0.035640 0.545790 -0.624381
O85   O     O_R   0.954180 0.464360 0.545790 -0.626881
O86   O     O_R   0.045820 0.535640 0.545790 -0.626767
O87   O     O_R   0.045820 0.464360 0.545790 -0.619181
O88   O     O_R   0.954180 0.535640 0.545790 -0.619104
O89   O     O_R   0.954180 0.964360 0.045790 -0.626738
O90   O     O_R   0.045820 0.035640 0.045790 -0.626776
O91   O     O_R   0.045820 0.964360 0.045790 -0.619243
O92   O     O_R   0.954180 0.035640 0.045790 -0.619202
O93   O     O_R   0.454180 0.464360 0.045790 -0.619300
O94   O     O_R   0.545820 0.535640 0.045790 -0.619319
O95   O     O_R   0.545820 0.464360 0.045790 -0.626795
O96   O     O_R   0.454180 0.535640 0.045790 -0.626876
Zn1   Zn    Zn3+2 0.284540 0.000000 0.784540 0.957751
Zn2   Zn    Zn3+2 0.715460 0.000000 0.784540 0.955921
Zn3   Zn    Zn3+2 0.784540 0.500000 0.784540 0.956041
Zn4   Zn    Zn3+2 0.215460 0.500000 0.784540 0.956060
Zn5   Zn    Zn3+2 0.784540 0.000000 0.284540 0.956071
Zn6   Zn    Zn3+2 0.215460 0.000000 0.284540 0.956135
Zn7   Zn    Zn3+2 0.284540 0.500000 0.284540 0.956033
Zn8   Zn    Zn3+2 0.715460 0.500000 0.284540 0.956102
Zn9   Zn    Zn3+2 0.215460 0.000000 0.715470 0.972960
Zn10  Zn    Zn3+2 0.784540 0.000000 0.715470 0.971840
Zn11  Zn    Zn3+2 0.715460 0.500000 0.715470 0.972205
Zn12  Zn    Zn3+2 0.284540 0.500000 0.715470 0.971947
Zn13  Zn    Zn3+2 0.715460 0.000000 0.215470 0.972087
Zn14  Zn    Zn3+2 0.284540 0.000000 0.215470 0.972193
Zn15  Zn    Zn3+2 0.215460 0.500000 0.215470 0.972147
Zn16  Zn    Zn3+2 0.784540 0.500000 0.215470 0.972111
Zn17  Zn    Zn3+2 1.000000 0.952400 0.999990 0.968583
Zn18  Zn    Zn3+2 1.000000 0.047600 0.999990 0.968576
Zn19  Zn    Zn3+2 0.500000 0.452400 0.999990 0.968948
Zn20  Zn    Zn3+2 0.500000 0.547600 0.999990 0.968517
Zn21  Zn    Zn3+2 0.500000 0.952400 0.499990 0.968127
Zn22  Zn    Zn3+2 0.500000 0.047600 0.499990 0.967330
Zn23  Zn    Zn3+2 1.000000 0.452400 0.499990 0.968480
Zn24  Zn    Zn3+2 1.000000 0.547600 0.499990 0.968785
O97   O     O_3   0.044267 0.956582 0.853272 -0.744156
H89   H     H_    0.021962 0.963262 0.875703 0.331712
O98   O     O_3   0.955726 0.043448 0.853240 -0.744268
H90   H     H_    0.978021 0.036807 0.875695 0.331680
O99   O     O_3   0.543940 0.543377 0.853352 -0.744357
H91   H     H_    0.521671 0.536631 0.875750 0.331677
O100  O     O_3   0.456078 0.456684 0.853372 -0.743962
H92   H     H_    0.478350 0.463453 0.875754 0.331728
O101  O     O_3   0.544150 0.956895 0.353190 -0.744280
H93   H     H_    0.521883 0.963525 0.375673 0.331556
O102  O     O_3   0.455585 0.043852 0.353349 -0.744354
H94   H     H_    0.477935 0.037111 0.375723 0.331912
O103  O     O_3   0.044255 0.456614 0.353264 -0.744187
H95   H     H_    0.021955 0.463284 0.375702 0.331677
O104  O     O_3   0.955717 0.543472 0.353247 -0.744165
H96   H     H_    0.978015 0.536826 0.375697 0.331675

loop_
_geom_bond_atom_site_label_1
_geom_bond_atom_site_label_2
_ccdc_geom_bond_type
O65   Zn17  S    
C57   C145  S    
O29   Zn7   S    
C51   C123  S    
O88   Zn24  S    
C34   C42   S    
O73   Zn21  S    
C4    O4    A    
C79   C87   A    
C5    O5    A    
C185  C190  T    
C179  C195  S    
O99   H91   S    
C7    O7    A    
C177  C193  S    
C64   C152  S    
C188  C191  T    
C86   C110  A    
C43   H40   S    
C194  C197  T    
C15   H15   S    
O31   Zn8   S    
C154  C170  T    
C94   O38   A    
O32   Zn7   S    
C24   C32   A    
O55   Zn7   S    
C132  O71   A    
C214  C222  A    
O23   Zn4   S    
C47   H48   S    
C114  H58   S    
C36   H22   S    
C48   H47   S    
O61   Zn13  S    
C46   H43   S    
C148  O52   A    
C50   C122  S    
C160  C176  T    
C45   C205  S    
C2    O2    A    
C16   H16   S    
C116  C124  S    
O54   Zn6   S    
C36   C44   S    
O43   Zn14  S    
C40   H30   S    
C206  C214  A    
C45   H41   S    
C3    C211  S    
C23   C143  S    
C97   O25   A    
C73   C81   A    
C98   C162  S    
C11   H11   S    
C127  H85   S    
C3    O11   A    
C35   H21   S    
C115  C123  S    
C138  O83   A    
C9    H9    S    
O25   Zn5   S    
C112  C120  S    
C13   H13   S    
C212  C220  A    
C27   C35   S    
C65   H49   S    
O79   Zn23  S    
C41   H36   S    
C216  C224  A    
C31   C207  A    
O5    Zn5   S    
C178  C194  S    
C92   O20   A    
C5    C213  S    
C204  C212  A    
C13   C21   A    
C135  O80   A    
O67   Zn17  S    
C176  C192  S    
C63   C71   A    
O52   Zn4   S    
O90   Zn18  S    
C117  H68   S    
C118  H67   S    
C152  O64   A    
C37   C45   S    
O38   Zn12  S    
C32   C40   S    
C39   C47   S    
C53   C109  A    
C40   C48   S    
C131  O72   A    
C5    O13   A    
C62   C150  S    
C141  O92   A    
C55   C111  A    
C34   H19   S    
C87   C136  S    
O60   Zn12  S    
C91   O19   A    
C74   O98   S    
C88   C135  S    
C8    C216  S    
O86   Zn24  S    
O22   Zn4   S    
C39   H29   S    
C70   H54   S    
O40   Zn11  S    
C17   C25   A    
C125  H84   S    
C120  H70   S    
C126  H83   S    
C80   C88   A    
O39   Zn12  S    
C44   H38   S    
C98   O26   A    
C108  C116  S    
C115  H61   S    
O26   Zn6   S    
O75   Zn21  S    
C56   C128  S    
O103  H95   S    
O68   Zn18  S    
C19   C139  S    
O17   Zn1   S    
C150  O62   A    
C17   C137  S    
C60   C148  S    
O30   Zn8   S    
C218  H2    S    
C209  C217  A    
C59   C147  S    
C96   O24   A    
C149  O53   A    
C103  C167  S    
C52   C124  S    
C139  O88   A    
C69   C77   A    
C166  C182  T    
C132  O70   A    
C181  C197  S    
C44   H39   S    
C71   C79   A    
C129  O68   A    
C157  C173  T    
C220  H4    S    
O78   Zn24  S    
C48   H46   S    
C95   C159  S    
C105  C113  S    
C143  O96   A    
C10   C18   A    
C25   C201  A    
O14   Zn14  S    
C80   O104  S    
C75   O99   S    
C121  H76   S    
C29   C205  A    
C54   C110  A    
C111  C119  S    
C122  H75   S    
O45   Zn15  S    
C101  O45   A    
C52   C60   A    
C59   C67   A    
C53   C61   A    
O94   Zn20  S    
C184  C200  S    
C147  O51   A    
O92   Zn18  S    
C56   C64   A    
C32   C208  A    
O2    Zn2   S    
C152  O56   A    
C85   C134  S    
C93   O21   A    
C6    O6    A    
C77   C85   A    
O47   Zn16  S    
C102  C166  S    
C15   C223  A    
C203  C211  A    
C196  C199  T    
C142  O91   A    
C201  C209  A    
C158  C174  T    
C151  O63   A    
C81   C105  A    
C1    C209  S    
O70   Zn20  S    
C92   O36   A    
O3    Zn3   S    
C156  C172  T    
C71   H55   S    
C89   C153  S    
C134  O75   A    
C72   H56   S    
C3    O3    A    
O81   Zn21  S    
C121  H73   S    
C49   C121  S    
C22   C142  S    
C82   C129  S    
C41   H33   S    
C28   C36   S    
C187  C192  T    
C53   C125  S    
C99   C163  S    
C51   C107  A    
C55   C127  S    
O72   Zn20  S    
C97   C161  S    
C130  O66   A    
C7    O15   A    
O83   Zn21  S    
C67   C75   A    
C221  H5    S    
C11   C219  A    
C128  H86   S    
C9    C217  A    
O4    Zn4   S    
C46   C206  S    
C22   C30   A    
C117  H65   S    
C100  O28   A    
C13   C221  A    
C98   O42   A    
C180  C196  S    
O28   Zn5   S    
C146  O50   A    
C68   C76   A    
C211  C219  A    
C94   O22   A    
C141  O89   A    
C73   O97   S    
C14   C22   A    
C123  H80   S    
C42   H34   S    
C124  H79   S    
C91   O35   A    
O19   Zn2   S    
C38   H26   S    
C61   C149  S    
C12   C220  A    
C82   C106  A    
C125  H81   S    
C144  O94   A    
C162  C178  T    
C42   C202  S    
C113  H60   S    
O57   Zn9   S    
C114  H59   S    
C113  C121  S    
C222  H6    S    
O84   Zn22  S    
O9    Zn9   S    
O85   Zn23  S    
C36   H23   S    
C117  C125  S    
C133  O76   A    
O51   Zn3   S    
O91   Zn17  S    
C25   C33   S    
C119  C127  S    
O49   Zn1   S    
O80   Zn24  S    
C151  O55   A    
C33   H17   S    
C119  H69   S    
C18   C26   A    
O7    Zn7   S    
C76   C84   A    
C109  C117  S    
O74   Zn22  S    
C136  O79   A    
C127  H88   S    
C54   C126  S    
C11   C19   A    
C35   H24   S    
C128  H87   S    
C48   C208  S    
O34   Zn10  S    
C85   C109  A    
C103  O47   A    
O96   Zn20  S    
C129  O65   A    
C87   C111  A    
O62   Zn14  S    
C193  C198  T    
O20   Zn1   S    
O95   Zn19  S    
O18   Zn2   S    
C116  H63   S    
C102  O46   A    
C18   C138  S    
C93   O37   A    
C213  C221  A    
C95   O39   A    
O82   Zn22  S    
C89   O17   A    
O35   Zn10  S    
O87   Zn23  S    
C90   C154  S    
O56   Zn8   S    
C164  C180  T    
C205  C213  A    
C94   C158  S    
O15   Zn15  S    
O16   Zn16  S    
C74   C82   A    
C223  H7    S    
O12   Zn12  S    
C10   H10   S    
C104  O48   A    
O104  H96   S    
C50   C58   A    
C14   H14   S    
C49   C105  A    
C39   H32   S    
C54   C62   A    
C101  O29   A    
C96   O40   A    
O100  H92   S    
C142  O90   A    
C86   C133  S    
C6    C214  S    
C140  O87   A    
C115  H64   S    
C46   H42   S    
C170  C186  S    
C207  C215  A    
C100  C164  S    
C101  C165  S    
C63   C151  S    
O42   Zn14  S    
C174  C190  S    
C8    O8    A    
C144  O95   A    
C27   C203  A    
C66   H50   S    
C41   C201  S    
O63   Zn15  S    
O64   Zn16  S    
O24   Zn3   S    
C100  O44   A    
C148  O60   A    
O46   Zn16  S    
C138  O82   A    
C57   C65   A    
C90   O18   A    
C210  C218  A    
C1    O9    A    
C120  C128  S    
C47   C207  S    
C37   H28   S    
C20   C28   A    
C147  O59   A    
C33   C41   S    
C20   C140  S    
C186  C189  T    
C21   C141  S    
C83   C132  S    
C99   O27   A    
O48   Zn15  S    
C175  C191  S    
C75   C83   A    
C81   C130  S    
C89   O33   A    
C21   C29   A    
C24   C144  S    
C84   C108  A    
O50   Zn2   S    
C135  O77   A    
C67   H51   S    
O69   Zn19  S    
C137  O84   A    
C124  H78   S    
C88   C112  A    
C60   C68   A    
C72   C80   A    
C29   C37   S    
C50   C106  A    
C118  H66   S    
C123  H77   S    
C150  O54   A    
C163  C179  T    
C136  O78   A    
C102  O30   A    
C7    C215  S    
C23   C31   A    
C66   C74   A    
O36   Zn9   S    
C131  O69   A    
C1    O1    A    
C70   C78   A    
C153  C169  T    
C113  H57   S    
C182  C198  S    
O53   Zn5   S    
C133  O73   A    
C49   C57   A    
C106  C114  S    
C34   H18   S    
C26   C202  A    
C126  H82   S    
C224  H8    S    
C95   O23   A    
C37   H25   S    
O58   Zn10  S    
O37   Zn11  S    
O71   Zn19  S    
C30   C206  A    
C65   C73   A    
O10   Zn10  S    
C6    O14   A    
C173  C189  S    
C10   C218  A    
C47   H45   S    
C40   H31   S    
C58   C66   A    
C45   H44   S    
C219  H3    S    
C31   C39   S    
C168  C184  T    
O6    Zn6   S    
C116  H62   S    
C19   C27   A    
C78   C86   A    
C2    O10   A    
C208  C216  A    
C159  C175  T    
C130  O67   A    
O59   Zn11  S    
C139  O85   A    
C62   C70   A    
C12   C20   A    
C202  C210  A    
O33   Zn9   S    
C26   C34   S    
O89   Zn17  S    
C2    C210  S    
C38   C46   S    
C28   C204  A    
C103  O31   A    
C143  O93   A    
C79   O103  S    
C149  O61   A    
C78   O102  S    
O66   Zn18  S    
O1    Zn1   S    
C183  C199  S    
C55   C63   A    
O44   Zn13  S    
C122  H74   S    
C91   C155  S    
C42   H35   S    
C155  C171  T    
C104  C168  S    
C97   O41   A    
C38   H27   S    
C68   H52   S    
C69   H53   S    
O8    Zn8   S    
C92   C156  S    
O76   Zn22  S    
C93   C157  S    
C110  C118  S    
O77   Zn23  S    
C107  C115  S    
C9    C17   A    
C96   C160  S    
C140  O86   A    
C43   C203  S    
C90   O34   A    
C51   C59   A    
C35   C43   S    
C104  O32   A    
C44   C204  S    
C195  C200  T    
C61   C69   A    
C12   H12   S    
C167  C183  T    
O93   Zn19  S    
C119  H72   S    
C14   C222  A    
C99   O43   A    
C120  H71   S    
C215  C223  A    
C58   C146  S    
C145  O49   A    
C76   O100  S    
C84   C131  S    
C4    C212  S    
C171  C187  S    
C134  O74   A    
C165  C181  T    
C169  C185  S    
O102  H94   S    
O21   Zn3   S    
C146  O58   A    
O101  H93   S    
O27   Zn6   S    
C137  O81   A    
C172  C188  S    
O41   Zn13  S    
C15   C23   A    
C83   C107  A    
C43   H37   S    
C64   C72   A    
O13   Zn13  S    
C8    O16   A    
C16   C224  A    
C77   O101  S    
C145  O57   A    
O98   H90   S    
C114  C122  S    
O11   Zn11  S    
C52   C108  A    
C16   C24   A    
O97   H89   S    
C217  H1    S    
C4    O12   A    
C33   H20   S    
C118  C126  S    
C30   C38   S    
C161  C177  T    
C56   C112  A    
