data_mof_unit_16989.cif
_audit_creation_date              2012-12-11T15:08:48-0500
_audit_creation_method            fapswitch 2.2
_symmetry_space_group_name_H-M    P1
_symmetry_Int_Tables_number       1
_space_group_crystal_system       triclinic
_cell_length_a                    19.526938
_cell_length_b                    11.229839
_cell_length_c                    18.69541
_cell_angle_alpha                 89.970933
_cell_angle_beta                  91.012028
_cell_angle_gamma                 90.016931
_cell_volume                      4098.9710052

loop_
_atom_site_label
_atom_site_type_symbol
_atom_type_description
_atom_site_fract_x
_atom_site_fract_y
_atom_site_fract_z
_atom_type_partial_charge
C1    C     C_R   0.271834 0.045348 0.853247 0.531429
C2    C     C_3   0.683717 0.539754 0.952684 -0.234591
C3    C     C_R   0.225027 0.539930 0.355776 0.535540
C4    C     C_R   0.446888 0.820269 0.637852 0.531540
C5    C     C_R   0.553215 0.820222 0.362152 0.531661
C6    C     C_R   0.946888 0.320269 0.637852 0.531540
C7    C     C_R   0.053214 0.320222 0.362152 0.531661
C8    C     C_R   0.258340 0.633654 0.646484 0.531659
C9    C     C_R   0.741659 0.633610 0.353517 0.533152
C10   C     C_R   0.758340 0.133654 0.646484 0.531659
C11   C     C_R   0.241658 0.133610 0.353517 0.533153
C12   C     C_3   0.490028 0.924487 0.032698 -0.112339
C13   C     C_3   0.808971 0.016103 0.042222 -0.231253
C14   C     C_3   0.527630 0.911015 0.960879 -0.109679
C15   C     C_3   0.990027 0.424487 0.032698 -0.112339
C16   C     C_3   0.027630 0.411015 0.960879 -0.109679
C17   C     C_3   0.435341 0.834248 0.007505 -0.164566
C18   C     C_3   0.570392 0.807126 0.992597 -0.162293
C19   C     C_3   0.935341 0.334248 0.007505 -0.164566
C20   C     C_3   0.070391 0.307126 0.992597 -0.162293
C21   C     C_3   0.473079 0.821569 0.936219 0.059702
C22   C     C_3   0.532193 0.821347 0.063426 0.053389
C23   C     C_3   0.973079 0.321569 0.936219 0.059702
C24   C     C_3   0.183717 0.039754 0.952684 -0.234591
C25   C     C_3   0.032193 0.321347 0.063426 0.053389
C26   C     C_3   0.313768 0.523954 0.959899 -0.242385
C27   C     C_3   0.676371 0.556842 0.034291 -0.233965
C28   C     C_3   0.813768 0.023955 0.959899 -0.242385
C29   C     C_3   0.176371 0.056842 0.034291 -0.233966
C30   C     C_3   0.176897 0.531085 0.024861 -0.210440
C31   C     C_3   0.813592 0.514462 0.974291 -0.212594
C32   C     C_3   0.676897 0.031085 0.024861 -0.210440
C33   C     C_R   0.726910 0.042494 0.145210 0.531687
C34   C     C_3   0.313592 0.014462 0.974291 -0.212594
C35   C     C_3   0.247305 0.705137 0.055369 -0.253878
C36   C     C_3   0.763919 0.709020 0.943951 -0.257269
C37   C     C_3   0.747305 0.205137 0.055369 -0.253878
C38   C     C_3   0.263919 0.209020 0.943951 -0.257269
C39   C     C_3   0.240838 0.572433 0.069129 0.062981
C40   C     C_3   0.756904 0.576627 0.928747 0.065392
C41   C     C_3   0.740838 0.072433 0.069129 0.062981
C42   C     C_3   0.256904 0.076627 0.928747 0.065392
C43   C     C_3   0.255341 0.604524 0.930690 0.058406
C44   C     C_R   0.771834 0.545348 0.853247 0.531429
C45   C     C_3   0.743216 0.610186 0.067231 0.054916
C46   C     C_3   0.755341 0.104524 0.930690 0.058406
C47   C     C_3   0.243216 0.110186 0.067231 0.054916
C48   C     C_3   0.186667 0.543504 0.944086 -0.244831
C49   C     C_3   0.800511 0.520555 0.055246 -0.256145
C50   C     C_3   0.686667 0.043504 0.944086 -0.244831
C51   C     C_3   0.300511 0.020555 0.055246 -0.256145
C52   C     C_3   0.259227 0.721549 0.974370 -0.221221
C53   C     C_3   0.763091 0.725327 0.025820 -0.221895
C54   C     C_3   0.759227 0.221549 0.974370 -0.221221
C55   C     C_R   0.226910 0.542494 0.145210 0.531687
C56   C     C_3   0.263091 0.225327 0.025820 -0.221895
C57   C     C_3   0.508244 0.695033 0.460720 0.040209
C58   C     C_3   0.491807 0.695060 0.539357 0.040422
C59   C     C_3   0.008244 0.195033 0.460720 0.040209
C60   C     C_3   0.991807 0.195060 0.539357 0.040421
C61   C     C_R   0.444343 0.817286 0.862557 0.544385
C62   C     C_R   0.558324 0.816984 0.137878 0.543793
C63   C     C_R   0.944344 0.317286 0.862557 0.544385
C64   C     C_R   0.058324 0.316984 0.137878 0.543793
C65   C     C_3   0.574106 0.881818 0.491516 -0.290799
C66   C     C_3   0.515597 0.717943 0.966975 -0.110645
C67   C     C_3   0.426074 0.881974 0.508469 -0.290854
C68   C     C_3   0.074106 0.381818 0.491516 -0.290799
C69   C     C_3   0.926074 0.381974 0.508469 -0.290853
C70   C     C_3   0.460071 0.903947 0.436570 -0.223846
C71   C     C_3   0.540114 0.903909 0.563400 -0.223996
C72   C     C_3   0.960071 0.403946 0.436570 -0.223845
C73   C     C_3   0.040114 0.403909 0.563400 -0.223997
C74   C     C_3   0.524174 0.825492 0.435151 0.058173
C75   C     C_3   0.475956 0.825558 0.564859 0.058322
C76   C     C_3   0.024174 0.325492 0.435151 0.058173
C77   C     C_3   0.478231 0.731258 0.038030 -0.109208
C78   C     C_3   0.975956 0.325558 0.564859 0.058321
C79   C     C_3   0.177730 0.650127 0.459904 -0.227715
C80   C     C_3   0.822238 0.650268 0.540089 -0.227834
C81   C     C_3   0.677731 0.150127 0.459904 -0.227715
C82   C     C_3   0.322238 0.150268 0.540089 -0.227834
C83   C     C_3   0.178912 0.653739 0.540063 -0.221432
C84   C     C_3   0.821049 0.653894 0.459935 -0.221474
C85   C     C_3   0.678912 0.153739 0.540063 -0.221433
C86   C     C_3   0.321049 0.153894 0.459935 -0.221474
C87   C     C_3   0.237357 0.445144 0.475213 -0.215517
C88   C     C_3   0.015597 0.217943 0.966975 -0.110645
C89   C     C_3   0.762787 0.445173 0.524904 -0.215353
C90   C     C_3   0.737357 0.945145 0.475213 -0.215517
C91   C     C_3   0.262787 0.945173 0.524904 -0.215353
C92   C     C_3   0.302030 0.627092 0.448655 -0.260911
C93   C     C_3   0.697921 0.626883 0.551310 -0.260877
C94   C     C_3   0.802030 0.127092 0.448655 -0.260911
C95   C     C_3   0.197920 0.126882 0.551310 -0.260877
C96   C     C_3   0.234933 0.565411 0.432829 0.054068
C97   C     C_3   0.765068 0.565447 0.567190 0.054508
C98   C     C_3   0.734933 0.065412 0.432829 0.054068
C99   C     C_3   0.978231 0.231258 0.038030 -0.109208
C100  C     C_3   0.265068 0.065447 0.567190 0.054508
C101  C     C_3   0.246079 0.595174 0.571238 0.066707
C102  C     C_3   0.753914 0.595144 0.428779 0.066357
C103  C     C_3   0.746079 0.095174 0.571238 0.066707
C104  C     C_3   0.253914 0.095144 0.428779 0.066357
C105  C     C_3   0.236437 0.462415 0.558122 -0.266013
C106  C     C_3   0.763643 0.462424 0.441980 -0.266045
C107  C     C_3   0.736437 0.962415 0.558122 -0.266013
C108  C     C_3   0.263643 0.962424 0.441980 -0.266045
C109  C     C_R   0.261805 0.638357 0.853784 0.531094
C110  C     C_3   0.308971 0.516103 0.042222 -0.231253
C111  C     C_R   0.737232 0.642073 0.144746 0.532875
C112  C     C_R   0.761805 0.138357 0.853784 0.531094
C113  C     C_R   0.237232 0.142073 0.144746 0.532875
C114  C     C_3   0.311733 0.629145 0.530350 -0.205438
C115  C     C_3   0.688228 0.628925 0.469622 -0.205623
C116  C     C_3   0.811733 0.129145 0.530350 -0.205438
C117  C     C_3   0.188228 0.128925 0.469621 -0.205623
C118  C     C_R   0.274960 0.039996 0.644240 0.534420
C119  C     C_R   0.725027 0.039930 0.355776 0.535540
C120  C     C_R   0.774960 0.539996 0.644240 0.534420
Cr1   Cr    Cr6+3 0.229620 0.836040 0.749110 0.987802
Cr2   Cr    Cr6+3 0.613980 0.676590 0.250790 0.987007
Cr3   Cr    Cr6+3 0.886020 0.176590 0.749210 0.986613
Cr4   Cr    Cr6+3 0.113980 0.176590 0.250790 0.987007
Cr5   Cr    Cr6+3 0.770380 0.836040 0.250890 0.987803
Cr6   Cr    Cr6+3 0.729620 0.336040 0.749110 0.987802
Cr7   Cr    Cr6+3 0.270380 0.336040 0.250890 0.987803
Cr8   Cr    Cr6+3 0.387630 0.990680 0.750730 0.996359
Cr9   Cr    Cr6+3 0.612370 0.990680 0.249270 0.996033
Cr10  Cr    Cr6+3 0.887630 0.490680 0.750730 0.996359
Cr11  Cr    Cr6+3 0.112370 0.490680 0.249270 0.996033
Cr12  Cr    Cr6+3 0.386020 0.676590 0.749210 0.986614
H1    H     H_    0.384130 0.839039 0.029493 0.097854
H2    H     H_    0.722141 0.759715 0.916979 0.103615
H3    H     H_    0.221492 0.913500 0.414851 0.106144
H4    H     H_    0.316840 0.425754 0.061111 0.134145
H5    H     H_    0.670361 0.447600 0.937961 0.128876
H6    H     H_    0.816840 0.925754 0.061111 0.134145
H7    H     H_    0.170361 0.947600 0.937961 0.128876
H8    H     H_    0.352901 0.564979 0.066688 0.108234
H9    H     H_    0.645241 0.595540 0.923830 0.112725
H10   H     H_    0.852901 0.064979 0.066688 0.108234
H11   H     H_    0.145241 0.095540 0.923830 0.112725
H12   H     H_    0.364854 0.560604 0.946132 0.136693
H13   H     H_    0.791132 0.240418 0.087522 0.101248
H14   H     H_    0.632068 0.614732 0.045531 0.135553
H15   H     H_    0.864854 0.060604 0.946132 0.136693
H16   H     H_    0.132068 0.114732 0.045531 0.135553
H17   H     H_    0.309964 0.435178 0.935252 0.113254
H18   H     H_    0.665211 0.469477 0.059622 0.115988
H19   H     H_    0.809963 0.935178 0.935252 0.113254
H20   H     H_    0.165211 0.969477 0.059622 0.115988
H21   H     H_    0.663306 0.940988 0.040316 0.100244
H22   H     H_    0.318236 0.924925 0.954564 0.100377
H23   H     H_    0.163306 0.440988 0.040316 0.100244
H24   H     H_    0.222141 0.259715 0.916979 0.103615
H25   H     H_    0.818236 0.424925 0.954564 0.100377
H26   H     H_    0.684769 0.955094 0.917710 0.105614
H27   H     H_    0.285369 0.933225 0.076545 0.109296
H28   H     H_    0.184769 0.455094 0.917710 0.105614
H29   H     H_    0.785369 0.433225 0.076545 0.109296
H30   H     H_    0.631377 0.085345 0.039229 0.137101
H31   H     H_    0.364274 0.056523 0.964375 0.138480
H32   H     H_    0.131377 0.585345 0.039229 0.137101
H33   H     H_    0.864274 0.556523 0.964375 0.138480
H34   H     H_    0.470060 0.556387 0.398310 0.236647
H35   H     H_    0.311957 0.749540 0.966734 0.101619
H36   H     H_    0.432328 0.688198 0.378735 0.258537
H37   H     H_    0.529921 0.556344 0.601815 0.236503
H38   H     H_    0.567701 0.688125 0.621375 0.258334
H39   H     H_    0.970060 0.056387 0.398311 0.236646
H40   H     H_    0.932328 0.188197 0.378735 0.258537
H41   H     H_    0.029920 0.056346 0.601816 0.236504
H42   H     H_    0.067701 0.188125 0.621375 0.258333
H43   H     H_    0.729110 0.798026 0.040471 0.111005
H44   H     H_    0.811957 0.249540 0.966734 0.101619
H45   H     H_    0.229110 0.298026 0.040471 0.111005
H46   H     H_    0.223098 0.787951 0.953043 0.139914
H47   H     H_    0.816542 0.746647 0.042385 0.133168
H48   H     H_    0.723097 0.287951 0.953043 0.139914
H49   H     H_    0.624736 0.790278 0.982211 0.092853
H50   H     H_    0.316542 0.246647 0.042385 0.133168
H51   H     H_    0.144136 0.598024 0.921098 0.131918
H52   H     H_    0.848373 0.547614 0.084115 0.126261
H53   H     H_    0.644136 0.098024 0.921098 0.131918
H54   H     H_    0.348373 0.047614 0.084115 0.126261
H55   H     H_    0.554251 0.640971 0.453560 0.164677
H56   H     H_    0.445768 0.641047 0.546552 0.164744
H57   H     H_    0.054251 0.140971 0.453560 0.164677
H58   H     H_    0.945768 0.141047 0.546552 0.164745
H59   H     H_    0.614141 0.820455 0.506798 0.122093
H60   H     H_    0.884130 0.339039 0.029493 0.097854
H61   H     H_    0.385981 0.820675 0.493236 0.121991
H62   H     H_    0.114141 0.320455 0.506798 0.122092
H63   H     H_    0.885981 0.320675 0.493236 0.121991
H64   H     H_    0.575602 0.884624 0.609113 0.117935
H65   H     H_    0.424550 0.884701 0.390884 0.118450
H66   H     H_    0.075602 0.384624 0.609113 0.117934
H67   H     H_    0.924550 0.384700 0.390884 0.118450
H68   H     H_    0.479739 0.010518 0.059681 0.115402
H69   H     H_    0.545759 0.985727 0.927549 0.115774
H70   H     H_    0.979739 0.510518 0.059681 0.115402
H71   H     H_    0.124736 0.290278 0.982211 0.092853
H72   H     H_    0.045759 0.485727 0.927549 0.115774
H73   H     H_    0.474319 0.999647 0.431817 0.126561
H74   H     H_    0.525935 0.999626 0.568077 0.126349
H75   H     H_    0.974319 0.499646 0.431816 0.126561
H76   H     H_    0.025935 0.499626 0.568077 0.126349
H77   H     H_    0.405313 0.964401 0.529019 0.123553
H78   H     H_    0.594971 0.964133 0.470893 0.123703
H79   H     H_    0.905313 0.464401 0.529019 0.123553
H80   H     H_    0.094971 0.464133 0.470893 0.123703
H81   H     H_    0.125098 0.630448 0.440706 0.134029
H82   H     H_    0.200354 0.753598 0.071558 0.124550
H83   H     H_    0.874870 0.630554 0.559272 0.134125
H84   H     H_    0.625098 0.130448 0.440706 0.134029
H85   H     H_    0.374870 0.130554 0.559272 0.134125
H86   H     H_    0.186291 0.740368 0.438863 0.112779
H87   H     H_    0.813662 0.740483 0.561098 0.112648
H88   H     H_    0.686291 0.240368 0.438863 0.112779
H89   H     H_    0.313661 0.240483 0.561098 0.112648
H90   H     H_    0.168981 0.745374 0.556751 0.137114
H91   H     H_    0.830908 0.745563 0.443203 0.137217
H92   H     H_    0.668981 0.245374 0.556751 0.137114
H93   H     H_    0.813261 0.742125 0.922840 0.128522
H94   H     H_    0.330908 0.245563 0.443203 0.137217
H95   H     H_    0.133528 0.605697 0.560518 0.111935
H96   H     H_    0.866471 0.605992 0.439505 0.112072
H97   H     H_    0.633528 0.105698 0.560518 0.111935
H98   H     H_    0.366471 0.105992 0.439505 0.112071
H99   H     H_    0.698803 0.885741 0.453813 0.103593
H100  H     H_    0.301498 0.886122 0.546335 0.103668
H101  H     H_    0.198803 0.385740 0.453814 0.103592
H102  H     H_    0.801497 0.386122 0.546335 0.103669
H103  H     H_    0.688290 0.929807 0.581411 0.107385
H104  H     H_    0.700354 0.253598 0.071558 0.124550
H105  H     H_    0.311802 0.929962 0.418682 0.107605
H106  H     H_    0.188290 0.429807 0.581411 0.107384
H107  H     H_    0.811802 0.429962 0.418682 0.107605
H108  H     H_    0.341676 0.571377 0.424313 0.161747
H109  H     H_    0.658294 0.571027 0.575657 0.161759
H110  H     H_    0.841676 0.071377 0.424313 0.161747
H111  H     H_    0.158294 0.071026 0.575656 0.161759
H112  H     H_    0.303799 0.717625 0.425061 0.111538
H113  H     H_    0.696095 0.717402 0.574860 0.111367
H114  H     H_    0.803799 0.217625 0.425061 0.111538
H115  H     H_    0.313261 0.242125 0.922840 0.128522
H116  H     H_    0.196095 0.217402 0.574860 0.111367
H117  H     H_    0.525309 0.631088 0.940755 0.121202
H118  H     H_    0.458289 0.655528 0.069487 0.124294
H119  H     H_    0.025309 0.131088 0.940755 0.121202
H120  H     H_    0.958289 0.155528 0.069487 0.124294
H121  H     H_    0.331517 0.711641 0.551723 0.102924
H122  H     H_    0.668393 0.711387 0.448200 0.102787
H123  H     H_    0.831516 0.211641 0.551723 0.102924
H124  H     H_    0.168393 0.211386 0.448200 0.102787
H125  H     H_    0.350842 0.560666 0.543945 0.124847
H126  H     H_    0.291132 0.740418 0.087522 0.101248
H127  H     H_    0.649148 0.560357 0.456048 0.124752
H128  H     H_    0.850842 0.060666 0.543945 0.124848
H129  H     H_    0.149148 0.060356 0.456048 0.124752
H130  H     H_    0.286415 0.403452 0.463362 0.124456
H131  H     H_    0.713829 0.403153 0.536850 0.124700
H132  H     H_    0.786415 0.903452 0.463362 0.124456
H133  H     H_    0.213829 0.903152 0.536850 0.124700
H134  H     H_    0.278605 0.413609 0.585315 0.105946
H135  H     H_    0.721492 0.413500 0.414851 0.106144
H136  H     H_    0.778605 0.913609 0.585315 0.105946
N1    N     N_3   0.452686 0.636368 0.420285 -0.690716
N2    N     N_3   0.547333 0.636346 0.579830 -0.690721
N3    N     N_3   0.952686 0.136368 0.420285 -0.690716
N4    N     N_3   0.047333 0.136346 0.579830 -0.690721
O1    O     O_R   0.214130 0.708570 0.829890 -0.529621
O2    O     O_R   0.542830 0.717300 0.331620 -0.527340
O3    O     O_R   0.957170 0.217300 0.668380 -0.527595
O4    O     O_R   0.042830 0.217300 0.331620 -0.527340
O5    O     O_R   0.320870 0.624890 0.673130 -0.523115
O6    O     O_R   0.679130 0.624890 0.326870 -0.522445
O7    O     O_R   0.820870 0.124890 0.673130 -0.523115
O8    O     O_R   0.179130 0.124890 0.326870 -0.522445
O9    O     O_3   0.334430 0.834430 0.749680 -0.290460
O10   O     O_3   0.665570 0.834430 0.250320 -0.294694
O11   O     O_3   0.834430 0.334430 0.749680 -0.290460
O12   O     O_R   0.785870 0.708570 0.170110 -0.528453
O13   O     O_3   0.165570 0.334430 0.250320 -0.294694
O14   O     O_R   0.236050 0.959150 0.825270 -0.512218
O15   O     O_R   0.763950 0.959150 0.174730 -0.513621
O16   O     O_R   0.736050 0.459150 0.825270 -0.512218
O17   O     O_R   0.263950 0.459150 0.174730 -0.513621
O18   O     O_R   0.332100 0.076650 0.832310 -0.532836
O19   O     O_R   0.667900 0.076650 0.167690 -0.532332
O20   O     O_R   0.832100 0.576650 0.832310 -0.532836
O21   O     O_R   0.167900 0.576650 0.167690 -0.532332
O22   O     O_R   0.446500 0.918620 0.826240 -0.499754
O23   O     O_R   0.714130 0.208570 0.829890 -0.529621
O24   O     O_R   0.553500 0.918620 0.173760 -0.499808
O25   O     O_R   0.946500 0.418620 0.826240 -0.499754
O26   O     O_R   0.053500 0.418620 0.173760 -0.499808
O27   O     O_R   0.457310 0.715830 0.831280 -0.520667
O28   O     O_R   0.542690 0.715830 0.168720 -0.520946
O29   O     O_R   0.957310 0.215830 0.831280 -0.520667
O30   O     O_R   0.042690 0.215830 0.168720 -0.520946
O31   O     O_R   0.321000 0.623520 0.824130 -0.520203
O32   O     O_R   0.679000 0.623520 0.175870 -0.520324
O33   O     O_R   0.821000 0.123520 0.824130 -0.520203
O34   O     O_R   0.285870 0.208570 0.170110 -0.528453
O35   O     O_R   0.179000 0.123520 0.175870 -0.520324
O36   O     O_R   0.213990 0.710040 0.667000 -0.531046
O37   O     O_R   0.786010 0.710040 0.333000 -0.530344
O38   O     O_R   0.713990 0.210040 0.667000 -0.531046
O39   O     O_R   0.286010 0.210040 0.333000 -0.530344
O40   O     O_R   0.235920 0.960520 0.674260 -0.511586
O41   O     O_R   0.764080 0.960520 0.325740 -0.510702
O42   O     O_R   0.735920 0.460520 0.674260 -0.511586
O43   O     O_R   0.264080 0.460520 0.325740 -0.510702
O44   O     O_R   0.331960 0.078120 0.669410 -0.535862
O45   O     O_R   0.446360 0.919990 0.675230 -0.503265
O46   O     O_R   0.668040 0.078120 0.330590 -0.535014
O47   O     O_R   0.831960 0.578120 0.669410 -0.535862
O48   O     O_R   0.168040 0.578120 0.330590 -0.535014
O49   O     O_R   0.553640 0.919990 0.324770 -0.502780
O50   O     O_R   0.946360 0.419990 0.675230 -0.503265
O51   O     O_R   0.053640 0.419990 0.324770 -0.502781
O52   O     O_R   0.457170 0.717300 0.668380 -0.527595

loop_
_geom_bond_atom_site_label_1
_geom_bond_atom_site_label_2
_ccdc_geom_bond_type
Cr12  O27   S    
C46   C112  S    
C111  O12   A    
C34   C42   S    
C30   H32   S    
Cr7   O17   S    
Cr8   O22   S    
C106  H135  S    
Cr2   O32   S    
C14   C21   S    
Cr3   O29   S    
C90   C107  S    
Cr2   O2    S    
C117  H124  S    
Cr3   O7    S    
C81   H84   S    
C9    O37   A    
C14   H69   S    
C53   H47   S    
C11   O39   A    
Cr11  O21   S    
C54   H44   S    
C5    C74   S    
C36   C53   S    
C89   C106  S    
H38   N2    S    
C62   O24   A    
C69   H79   S    
C91   C100  S    
C85   C103  S    
Cr4   O13   S    
Cr12  O9    S    
C59   C60   S    
Cr11  O48   S    
H40   N3    S    
C1    O14   A    
C7    O51   A    
C85   H97   S    
Cr11  O13   S    
C19   C99   S    
C81   H88   S    
C17   C21   S    
C120  O42   A    
C19   C23   S    
C49   H52   S    
Cr5   O12   S    
C57   N1    S    
C16   C20   S    
Cr6   O11   S    
C13   H10   S    
C87   H130  S    
C31   H25   S    
C93   H113  S    
C73   H76   S    
C106  H107  S    
C17   H1    S    
C9    O6    A    
C59   H57   S    
Cr5   O37   S    
C11   O8    A    
Cr6   O42   S    
C55   O17   A    
C104  C117  S    
Cr12  O52   S    
C66   C77   S    
C18   C66   S    
C28   H15   S    
C112  O23   A    
C26   H17   S    
C20   H71   S    
C84   H91   S    
C45   C111  S    
C58   N2    S    
C87   H101  S    
C103  C116  S    
C68   C73   S    
C79   C96   S    
Cr8   O44   S    
H36   N1    S    
Cr1   O40   S    
C67   H77   S    
Cr1   O14   S    
C85   H92   S    
C57   H55   S    
C88   C99   S    
C2    C40   S    
C108  H105  S    
C60   H58   S    
C61   O22   A    
C81   C98   S    
C115  H127  S    
C77   H118  S    
C91   H133  S    
Cr10  O50   S    
C57   C74   S    
Cr7   O43   S    
Cr5   O15   S    
C36   H93   S    
Cr6   O16   S    
C21   C66   S    
C84   C102  S    
Cr7   O13   S    
C110  H4    S    
C86   C104  S    
C29   H16   S    
C8    O5    A    
Cr4   O8    S    
C50   H26   S    
C48   H28   S    
C28   C46   S    
C34   C51   S    
C29   C47   S    
C30   C48   S    
C43   C52   S    
C6    C78   S    
C24   H11   S    
C12   C22   S    
C92   C96   S    
C65   H59   S    
Cr12  O31   S    
C32   H30   S    
C32   C41   S    
Cr11  O26   S    
C89   H131  S    
C10   O7    A    
C90   H132  S    
C49   H29   S    
Cr9   O46   S    
Cr8   O18   S    
C45   C53   S    
H37   N2    S    
Cr1   O9    S    
Cr2   O6    S    
C35   H82   S    
Cr3   O3    S    
Cr1   O1    S    
C10   O38   A    
C108  H3    S    
C7    O4    A    
C112  O33   A    
H42   N4    S    
C18   H49   S    
Cr7   O34   S    
C65   C74   S    
C25   C64   S    
C3    O43   A    
C69   C72   S    
Cr9   O49   S    
C70   C74   S    
Cr10  O11   S    
C87   C105  S    
C73   H66   S    
C113  O34   A    
C12   H68   S    
Cr10  O47   S    
C65   H78   S    
C2    C27   S    
C27   H18   S    
C23   C88   S    
H34   N1    S    
C67   C75   S    
C68   H80   S    
C93   C97   S    
C53   H43   S    
C118  O44   A    
C92   H108  S    
C83   C101  S    
C18   C22   S    
C36   H2    S    
C103  C107  S    
C31   H33   S    
C7    C76   S    
C68   C76   S    
C67   C70   S    
C13   H6    S    
C51   H54   S    
C93   H109  S    
C72   H67   S    
C57   C58   S    
C82   H85   S    
Cr1   O36   S    
C30   C39   S    
C37   C41   S    
Cr9   O10   S    
C114  H125  S    
C109  O1    A    
Cr6   O38   S    
C55   O21   A    
C40   C44   S    
C38   C56   S    
C28   H19   S    
C5    O49   A    
C107  H136  S    
C68   H62   S    
C43   C109  S    
C59   C76   S    
C81   C85   S    
C47   C56   S    
C61   O27   A    
C118  O40   A    
C24   C42   S    
C16   H72   S    
C80   C84   S    
C80   H87   S    
C13   C41   S    
C70   H73   S    
C15   C19   S    
C10   C103  S    
C52   H35   S    
C80   C97   S    
C20   C25   S    
C94   C98   S    
C111  O32   A    
C31   C40   S    
C120  O47   A    
C24   C29   S    
C4    C75   S    
C102  C115  S    
C25   C99   S    
C39   C55   S    
C9    C102  S    
C12   C17   S    
C13   C28   S    
C11   C104  S    
C8    C101  S    
C21   C61   S    
C117  H129  S    
C16   C23   S    
C27   C45   S    
C23   C63   S    
C101  C114  S    
C35   H126  S    
C31   C49   S    
C80   H83   S    
C34   H22   S    
C24   H7    S    
C63   O25   A    
C64   O30   A    
C86   H98   S    
C6    O50   A    
C94   C116  S    
C95   C100  S    
C47   C51   S    
C82   C86   S    
C95   C117  S    
C35   C39   S    
C45   C49   S    
C60   C78   S    
C46   C54   S    
C17   C77   S    
C3    O48   A    
Cr2   O10   S    
C88   H119  S    
C30   H23   S    
C100  C118  S    
C104  C108  S    
Cr6   O23   S    
C47   C113  S    
C114  H121  S    
C2    H5    S    
C91   C108  S    
C22   C77   S    
C99   H120  S    
C48   H51   S    
C8    O36   A    
C119  O46   A    
C33   C41   S    
C79   C83   S    
C115  H122  S    
C27   H14   S    
C20   C88   S    
C1    O18   A    
Cr2   O28   S    
C52   H46   S    
Cr4   O30   S    
C32   H21   S    
C1    C42   S    
Cr10  O20   S    
C35   C52   S    
C5    O2    A    
C4    O45   A    
Cr11  O51   S    
C58   C75   S    
C116  H123  S    
C109  O31   A    
C62   O28   A    
C14   C18   S    
H39   N3    S    
C38   H24   S    
C72   C76   S    
C98   C119  S    
C82   H89   S    
C83   H95   S    
Cr12  O5    S    
C38   C42   S    
C15   C16   S    
C93   C115  S    
C83   H90   S    
C71   H74   S    
C73   C78   S    
C119  O41   A    
C3    C96   S    
C43   C48   S    
C26   C110  S    
C116  H128  S    
C19   H60   S    
C66   H117  S    
C69   C78   S    
Cr8   O9    S    
C26   H12   S    
C33   O19   A    
C26   C43   S    
C72   H75   S    
C56   H45   S    
C39   C110  S    
C101  C105  S    
C44   O16   A    
Cr10  O25   S    
C58   H56   S    
C33   O15   A    
C36   C40   S    
Cr5   O41   S    
C34   H31   S    
C79   H86   S    
Cr9   O24   S    
C105  H134  S    
C65   C71   S    
C89   C97   S    
C89   H102  S    
C95   H116  S    
C22   C62   S    
C94   H114  S    
C105  H106  S    
C87   C96   S    
C59   N3    S    
C60   N4    S    
C6    O3    A    
C32   C50   S    
C37   C54   S    
C12   C14   S    
C63   O29   A    
C70   H65   S    
C64   O26   A    
C86   H94   S    
C90   H99   S    
C84   H96   S    
C15   H70   S    
C37   H104  S    
C107  H103  S    
C44   O20   A    
C82   C100  S    
H41   N4    S    
C69   H63   S    
Cr7   O39   S    
C46   C50   S    
C91   H100  S    
Cr3   O33   S    
C97   C120  S    
C110  H8    S    
C94   H110  S    
Cr3   O11   S    
C29   H20   S    
C71   C75   S    
C92   H112  S    
C71   H64   S    
C56   H50   S    
C38   H115  S    
C51   H27   S    
C113  O35   A    
C54   H48   S    
C102  C106  S    
Cr4   O4    S    
C79   H81   S    
Cr5   O10   S    
Cr9   O19   S    
C15   C25   S    
Cr8   O45   S    
C4    O52   A    
C2    H9    S    
Cr4   O35   S    
C37   H13   S    
C67   H61   S    
C50   H53   S    
C92   C114  S    
C90   C98   S    
C95   H111  S    
