data_mof_unit_11564.cif
_audit_creation_date              2012-12-10T17:15:56-0500
_audit_creation_method            fapswitch 2.2
_symmetry_space_group_name_H-M    P1
_symmetry_Int_Tables_number       1
_space_group_crystal_system       triclinic
_cell_length_a                    10.200983
_cell_length_b                    10.652151
_cell_length_c                    10.683507
_cell_angle_alpha                 91.418131
_cell_angle_beta                  95.393203
_cell_angle_gamma                 80.735057
_cell_volume                      1140.62433677

loop_
_atom_site_label
_atom_site_type_symbol
_atom_type_description
_atom_site_fract_x
_atom_site_fract_y
_atom_site_fract_z
_atom_type_partial_charge
C1    C     C_R   0.444253 0.502872 0.266702 0.931804
C2    C     C_2   0.489854 0.432959 0.931112 -0.209536
C3    C     C_2   0.072441 0.496422 0.479188 0.670886
C4    C     C_R   0.501151 0.260396 0.501228 0.840442
C5    C     C_2   0.923744 0.523601 0.493678 -0.209845
C6    C     C_R   0.555794 0.482476 0.732403 1.000115
C7    C     C_R   0.500873 0.739435 0.507004 0.953973
C8    C     C_R   0.677830 0.110543 0.689760 -0.256831
C9    C     C_R   0.755828 0.038171 0.784059 -0.360834
C10   C     C_R   0.741095 0.910384 0.800911 0.535151
C11   C     C_R   0.645587 0.858989 0.720049 0.441447
C12   C     C_R   0.589989 0.055780 0.602672 0.037418
C13   C     C_R   0.580761 0.926672 0.612460 -0.105825
C14   C     C_3   0.081170 0.447522 0.270788 -0.333456
C15   C     C_3   0.180054 0.668389 0.725502 -0.135759
C16   C     C_3   0.915237 0.880696 0.963908 -0.342056
C17   C     C_3   0.504615 0.787360 0.841348 -0.327715
C18   C     C_R   0.505408 0.127673 0.509092 -0.038173
C19   C     C_R   0.418461 0.073971 0.423804 -0.186508
C20   C     C_R   0.417758 0.945849 0.426405 -0.221924
C21   C     C_R   0.499695 0.872537 0.517786 -0.063741
C22   C     C_2   0.413178 0.485891 0.133301 -0.394674
C23   C     C_2   0.511173 0.432612 0.065516 -0.123956
C24   C     C_2   0.587728 0.454504 0.864280 -0.349814
H1    H     H_    0.353861 0.131058 0.352950 0.160746
H2    H     H_    0.688173 0.456732 0.907573 0.169849
H3    H     H_    0.096764 0.547377 0.257649 0.165758
H4    H     H_    0.975335 0.439127 0.243186 0.152094
H5    H     H_    0.142263 0.386527 0.205198 0.190582
H6    H     H_    0.269015 0.709448 0.707092 0.195972
H7    H     H_    0.206149 0.577212 0.777352 0.138183
H8    H     H_    0.122009 0.736796 0.787208 0.137310
H9    H     H_    0.879808 0.963356 0.024262 0.169239
H10   H     H_    0.971194 0.805264 0.026846 0.189661
H11   H     H_    0.985641 0.905080 0.898373 0.154111
H12   H     H_    0.312751 0.517804 0.090366 0.135481
H13   H     H_    0.463036 0.703182 0.867840 0.186010
H14   H     H_    0.419945 0.856516 0.797822 0.135301
H15   H     H_    0.547748 0.828016 0.929854 0.196753
H16   H     H_    0.882641 0.607106 0.545796 0.212822
H17   H     H_    0.883931 0.364622 0.408152 0.197988
H18   H     H_    0.687332 0.209875 0.687078 0.187542
H19   H     H_    0.822064 0.085737 0.846605 0.165801
H20   H     H_    0.354380 0.903226 0.355941 0.144388
H21   H     H_    0.389114 0.431427 0.888278 0.178451
H22   H     H_    0.612011 0.401258 0.107952 0.185937
N1    N     N_2   0.157290 0.551390 0.551110 0.041427
N2    N     N_2   0.842740 0.448550 0.448960 -0.221530
O1    O     O_R   0.568950 0.489660 0.307530 -0.609970
O2    O     O_3   0.100540 0.654976 0.613436 -0.601796
O3    O     O_3   0.806317 0.833218 0.899171 -0.579833
O4    O     O_3   0.602951 0.750122 0.756772 -0.597042
O5    O     O_R   0.348880 0.522640 0.340350 -0.597300
O6    O     O_R   0.610060 0.300270 0.483590 -0.631838
O7    O     O_R   0.389990 0.333260 0.516410 -0.580696
O8    O     O_R   0.651120 0.477360 0.659650 -0.587947
O9    O     O_R   0.431050 0.510340 0.692470 -0.651503
O10   O     O_R   0.610010 0.666740 0.483590 -0.600998
O11   O     O_R   0.389940 0.699730 0.516410 -0.616755
O12   O     O_3   0.121816 0.404216 0.394520 -0.616849
Zn1   Zn    Zn3+2 0.646940 0.477980 0.478090 0.956158
Zn2   Zn    Zn3+2 0.353060 0.522020 0.521910 0.995903

loop_
_geom_bond_atom_site_label_1
_geom_bond_atom_site_label_2
_ccdc_geom_bond_type
C15   H7    S    
C6    O8    A    
O6    Zn1   S    
C16   H9    S    
C14   O12   S    
C9    C10   A    
C7    O10   A    
C19   C20   A    
C16   O3    S    
C8    C12   A    
C6    C24   S    
C3    O12   S    
C2    C23   S    
O10   Zn1   S    
C13   C21   A    
C15   H8    S    
C16   H11   S    
C23   H22   S    
C17   H13   S    
C20   C21   A    
C7    C21   S    
C11   C13   A    
C6    O9    A    
N2    Zn1   S    
N1    Zn2   S    
O5    Zn2   S    
C19   H1    S    
C10   O3    S    
C17   O4    S    
C3    N1    D    
C20   H20   S    
H17   N2    S    
C8    H18   S    
N1    O2    S    
C4    O6    A    
C17   H14   S    
C22   C23   D    
C2    H21   S    
C2    C24   D    
C14   H3    S    
C5    N2    D    
C9    H19   S    
O1    Zn1   S    
C10   C11   A    
O9    Zn2   S    
C14   H5    S    
C12   C18   A    
O7    Zn2   S    
C1    C22   S    
C22   H12   S    
C12   C13   A    
C15   H6    S    
C18   C19   A    
C17   H15   S    
C15   O2    S    
C7    O11   A    
C4    O7    A    
C1    O5    A    
O8    Zn1   S    
O11   Zn2   S    
C11   O4    S    
C16   H10   S    
C5    H16   S    
C1    O1    A    
C4    C18   S    
C14   H4    S    
C24   H2    S    
C8    C9    A    
C3    C5    S    
