data_mof_unit_12322.cif
_audit_creation_date              2012-12-10T17:18:57-0500
_audit_creation_method            fapswitch 2.2
_symmetry_space_group_name_H-M    P1
_symmetry_Int_Tables_number       1
_space_group_crystal_system       triclinic
_cell_length_a                    9.60513
_cell_length_b                    10.85074
_cell_length_c                    13.434456
_cell_angle_alpha                 93.044664
_cell_angle_beta                  72.560114
_cell_angle_gamma                 90.72557
_cell_volume                      1333.91941083

loop_
_atom_site_label
_atom_site_type_symbol
_atom_type_description
_atom_site_fract_x
_atom_site_fract_y
_atom_site_fract_z
_atom_type_partial_charge
C1    C     C_R   0.503548 0.736740 0.492312 0.799439
C2    C     C_R   0.432719 0.513809 0.980760 0.076818
C3    C     C_R   0.467416 0.545096 0.874974 0.090396
C4    C     C_R   0.539956 0.532327 0.033757 0.079876
C5    C     C_R   0.673443 0.591641 0.983809 0.168425
C6    C     C_R   0.696630 0.635912 0.884770 -0.244731
C7    C     C_R   0.593787 0.615214 0.832087 -0.198397
C8    C     C_R   0.519181 0.492886 0.134770 -0.237663
C9    C     C_R   0.754736 0.573107 0.136717 -0.203884
C10   C     C_R   0.373255 0.507243 0.815489 -0.105773
C11   C     C_R   0.296812 0.871911 0.410412 -0.200549
C12   C     C_R   0.421445 0.505291 0.700286 0.788904
C13   C     C_R   0.167143 0.927700 0.409471 0.042306
C14   C     C_R   0.130264 0.043805 0.458632 -0.195198
C15   C     C_R   0.228989 0.108530 0.499288 -0.187815
C16   C     C_R   0.368247 0.058492 0.490771 0.099926
C17   C     C_R   0.390989 0.932207 0.460896 0.066388
C18   C     C_R   0.506068 0.870372 0.483682 -0.099764
C19   C     C_R   0.613499 0.938071 0.513112 -0.194090
C20   C     C_R   0.606150 0.065333 0.522658 -0.232246
C21   C     C_R   0.485938 0.127548 0.510464 -0.100504
C22   C     C_R   0.915910 0.344854 0.352704 -0.320496
C23   C     C_R   0.495457 0.262383 0.505426 0.791865
C24   C     C_R   0.020462 0.276457 0.272929 0.419159
C25   C     C_R   0.162741 0.274824 0.277220 -0.108211
C26   C     C_R   0.201921 0.342153 0.355553 -0.313332
C27   C     C_R   0.103370 0.422418 0.428805 0.202879
C28   C     C_R   0.954467 0.422963 0.428192 0.169760
C29   C     C_R   0.899576 0.575327 0.566404 -0.035839
C30   C     C_R   0.047207 0.575030 0.566657 -0.063984
C31   C     C_R   0.578283 0.501624 0.300280 0.769673
C32   C     C_R   0.780751 0.609152 0.034787 -0.196573
C33   C     C_R   0.621801 0.518103 0.187852 -0.063269
C34   C     C_R   0.235408 0.458988 0.866145 -0.198117
C35   C     C_R   0.193895 0.442157 0.972700 -0.130448
C36   C     C_R   0.291656 0.466804 0.029369 -0.154690
Cu1   Cu    Cu3+1 0.359340 0.500010 0.500010 0.924411
Cu2   Cu    Cu3+1 0.640660 0.499990 0.499990 0.939483
H1    H     H_    0.835517 0.592997 0.176852 0.174057
H2    H     H_    0.323803 0.782197 0.370381 0.167897
H3    H     H_    0.025905 0.085358 0.464361 0.139770
H4    H     H_    0.189729 0.194544 0.541467 0.181117
H5    H     H_    0.695121 0.115209 0.540196 0.165323
H6    H     H_    0.823443 0.638234 0.619959 0.118386
H7    H     H_    0.806058 0.334433 0.355211 0.214290
H8    H     H_    0.310942 0.327928 0.355655 0.221092
H9    H     H_    0.794581 0.687052 0.847844 0.137758
H10   H     H_    0.080383 0.636733 0.621250 0.135303
H11   H     H_    0.882976 0.654019 0.996880 0.144706
H12   H     H_    0.422589 0.443748 0.175087 0.146168
H13   H     H_    0.160337 0.431529 0.822902 0.158513
H14   H     H_    0.251860 0.451092 0.111502 0.134458
H15   H     H_    0.086615 0.406187 0.011194 0.155533
H16   H     H_    0.612551 0.657955 0.758560 0.154434
H17   H     H_    0.703598 0.892671 0.529304 0.167836
N1    N     N_R   0.852480 0.498790 0.499000 -0.178866
N2    N     N_R   0.148360 0.498710 0.498970 -0.189105
O1    O     O_R   0.381190 0.680360 0.500010 -0.585048
O2    O     O_R   0.618760 0.680340 0.500000 -0.576923
O3    O     O_R   0.323240 0.499990 0.650990 -0.580449
O4    O     O_R   0.560820 0.499960 0.650980 -0.576339
O5    O     O_R   0.381240 0.319660 0.500000 -0.611049
O6    O     O_R   0.618810 0.319640 0.499990 -0.596442
O7    O     O_R   0.439180 0.500040 0.349020 -0.596411
O8    O     O_R   0.676760 0.500010 0.349010 -0.594224
C37   C     C_1   0.068563 0.863129 0.362689 0.225551
N3    N     N_1   0.989220 0.811226 0.325263 -0.288969
O9    O     O_3   0.994038 0.205538 0.190279 -0.604476
C38   C     C_3   0.853194 0.213616 0.179506 0.044442
H18   H     H_    0.863995 0.192845 0.095647 0.175090
H19   H     H_    0.805710 0.307911 0.196373 0.127758
C39   C     C_3   0.755517 0.114887 0.242323 -0.361790
H20   H     H_    0.805774 0.022465 0.215951 0.246543
H21   H     H_    0.745508 0.130155 0.326220 0.221891
C40   C     C_3   0.605010 0.116541 0.227541 -0.867004
H22   H     H_    0.550128 0.206251 0.257955 0.236824
H23   H     H_    0.537930 0.041040 0.270049 0.268297
H24   H     H_    0.615243 0.101866 0.143254 0.273400
C41   C     C_1   0.270538 0.202440 0.198518 0.316578
N4    N     N_1   0.354339 0.144246 0.133849 -0.290057

loop_
_geom_bond_atom_site_label_1
_geom_bond_atom_site_label_2
_ccdc_geom_bond_type
C16   C21   A    
C35   H15   S    
C19   C20   A    
C4    C8    A    
C20   H5    S    
Cu1   O5    S    
C28   N1    A    
C1    C18   S    
Cu1   Cu2   S    
C30   H10   S    
C18   C19   A    
C3    C7    A    
C1    O2    A    
C5    C6    A    
C19   H17   S    
C15   C16   A    
C30   N2    A    
C9    H1    S    
C34   C35   A    
C38   H19   S    
C9    C32   A    
O9    C38   S    
C23   O5    A    
C35   C36   A    
C16   C17   A    
C31   C33   S    
Cu1   O1    S    
C36   H14   S    
Cu2   O4    S    
C23   O6    A    
C37   N3    T    
C22   C28   A    
C13   C14   A    
C9    C33   A    
C38   H18   S    
C39   C40   S    
C13   C37   S    
C6    H9    S    
C24   C25   A    
C39   H21   S    
C27   N2    A    
C26   H8    S    
C39   H20   S    
C25   C26   A    
C34   H13   S    
Cu2   O2    S    
C38   C39   S    
C2    C4    A    
C40   H22   S    
C29   C30   A    
Cu2   O8    S    
C17   C18   A    
C26   C27   A    
C10   C34   A    
C40   H23   S    
C10   C12   S    
C14   H3    S    
C21   C23   S    
C29   H6    S    
C22   C24   A    
C8    H12   S    
Cu1   O7    S    
Cu2   O6    S    
C2    C36   A    
C31   O8    A    
C11   C17   A    
C25   C41   S    
C31   O7    A    
C15   H4    S    
C4    C5    A    
C6    C7    A    
C29   N1    A    
C5    C32   A    
C2    C3    A    
C3    C10   A    
C1    O1    A    
C12   O4    A    
C11   C13   A    
C8    C33   A    
C11   H2    S    
C40   H24   S    
C32   H11   S    
Cu1   O3    S    
C24   O9    S    
C41   N4    T    
C12   O3    A    
C22   H7    S    
Cu2   N1    S    
C20   C21   A    
C27   C28   A    
C14   C15   A    
C7    H16   S    
Cu1   N2    S    
