data_mof_unit_64634.cif
_audit_creation_date              2013-03-05T15:42:49-0500
_audit_creation_method            fapswitch 2.2
_symmetry_space_group_name_H-M    P1
_symmetry_Int_Tables_number       1
_space_group_crystal_system       triclinic
_cell_length_a                    21.747762
_cell_length_b                    21.74866
_cell_length_c                    55.610714
_cell_angle_alpha                 89.590805
_cell_angle_beta                  90.055063
_cell_angle_gamma                 89.926399
_cell_volume                      26302.3109742

loop_
_atom_site_label
_atom_site_type_symbol
_atom_site_description
_atom_site_fract_x
_atom_site_fract_y
_atom_site_fract_z
_atom_type_partial_charge
O1    O     O_R   0.499960 0.590510 0.020150 -0.619432
O2    O     O_R   0.409490 0.499960 0.020150 -0.621013
O3    O     O_R   0.500040 0.409490 0.020150 -0.617367
O4    O     O_R   0.590510 0.500040 0.020150 -0.615871
O5    O     O_R   0.999960 0.090510 0.520150 -0.619148
O6    O     O_R   0.909490 0.999960 0.520150 -0.620853
O7    O     O_R   0.000040 0.909490 0.520150 -0.618134
O8    O     O_R   0.090510 0.000040 0.520150 -0.616260
O9    O     O_R   0.499990 0.590510 0.979930 -0.614815
O10   O     O_R   0.409490 0.499990 0.979930 -0.613271
O11   O     O_R   0.500010 0.409490 0.979930 -0.617695
O12   O     O_R   0.590510 0.500010 0.979930 -0.619342
O13   O     O_R   0.999990 0.090510 0.479930 -0.614597
O14   O     O_R   0.909490 0.999990 0.479930 -0.613222
O15   O     O_R   0.000010 0.909490 0.479930 -0.617521
O16   O     O_R   0.090510 0.000010 0.479930 -0.619102
C1    C     C_R   0.505358 0.618605 0.999912 0.957506
C2    C     C_R   0.381373 0.505317 0.999961 0.955970
C3    C     C_R   0.494652 0.381389 0.000170 0.957931
C4    C     C_R   0.618629 0.494683 0.000118 0.957563
C5    C     C_R   0.005366 0.118605 0.499913 0.957451
C6    C     C_R   0.881373 0.005320 0.499961 0.956009
C7    C     C_R   0.994651 0.881389 0.500170 0.957999
C8    C     C_R   0.118628 0.994675 0.500119 0.957668
C9    C     C_R   0.495895 0.999649 0.124251 0.315560
C10   C     C_R   0.997400 0.498129 0.123691 0.303729
C11   C     C_R   0.999273 0.502612 0.623704 0.302641
C12   C     C_R   0.497466 0.997920 0.623722 0.304075
Zn1   Zn    Zn3+2 0.500000 0.500000 0.026890 1.009637
Zn2   Zn    Zn3+2 0.000000 0.000000 0.526890 1.009191
Zn3   Zn    Zn3+2 0.500000 0.500000 0.973180 1.018326
Zn4   Zn    Zn3+2 0.000000 0.000000 0.473180 1.019139
C13   C     C_2   0.782539 0.465204 0.982732 0.124865
C14   C     C_2   0.535913 0.782120 0.017121 0.127261
C15   C     C_2   0.217467 0.534848 0.017325 0.127860
C16   C     C_2   0.463761 0.217904 0.982984 0.125472
C17   C     C_2   0.282539 0.965141 0.482744 0.126095
C18   C     C_2   0.035833 0.282130 0.517137 0.127385
C19   C     C_2   0.717464 0.034841 0.517326 0.127872
C20   C     C_2   0.963751 0.717904 0.482986 0.125332
C21   C     C_2   0.814732 0.504828 0.996435 -0.069471
C22   C     C_2   0.495480 0.814664 0.003668 -0.067660
C23   C     C_2   0.185269 0.495186 0.003639 -0.065328
C24   C     C_2   0.504537 0.185340 0.996271 -0.069261
C25   C     C_2   0.314730 0.004812 0.496429 -0.069495
C26   C     C_2   0.995484 0.314665 0.503642 -0.065339
C27   C     C_2   0.685270 0.995190 0.503634 -0.066115
C28   C     C_2   0.004535 0.685340 0.496270 -0.069764
C29   C     C_2   0.715975 0.471407 0.980858 -0.140276
C30   C     C_2   0.529726 0.715565 0.019025 -0.138719
C31   C     C_2   0.284024 0.528622 0.019211 -0.141540
C32   C     C_2   0.469920 0.284470 0.981082 -0.136090
C33   C     C_2   0.215974 0.971340 0.480866 -0.139503
C34   C     C_2   0.029653 0.215572 0.519036 -0.136638
C35   C     C_2   0.784022 0.028619 0.519212 -0.141328
C36   C     C_2   0.969908 0.784470 0.481083 -0.135559
C37   C     C_2   0.683169 0.479880 0.000801 -0.310476
C38   C     C_2   0.520235 0.683088 0.999127 -0.308951
C39   C     C_2   0.316838 0.520126 0.999275 -0.306050
C40   C     C_2   0.479838 0.316888 0.000966 -0.312668
C41   C     C_2   0.183166 0.979861 0.500804 -0.311254
C42   C     C_2   0.020261 0.183085 0.499133 -0.309210
C43   C     C_2   0.816839 0.020135 0.499275 -0.306470
C44   C     C_2   0.979835 0.816888 0.500966 -0.313741
H1    H     H_    0.694392 0.469414 0.963259 0.194293
H2    H     H_    0.532535 0.693717 0.036618 0.194046
H3    H     H_    0.305596 0.530625 0.036813 0.193035
H4    H     H_    0.466708 0.306377 0.963511 0.195261
H5    H     H_    0.194392 0.969312 0.463267 0.194592
H6    H     H_    0.032371 0.193731 0.536632 0.194272
H7    H     H_    0.805592 0.030608 0.536814 0.193565
H8    H     H_    0.966690 0.806377 0.463512 0.195342
H9    H     H_    0.705001 0.476559 0.018375 0.181323
H10   H     H_    0.522804 0.705142 0.981534 0.183170
H11   H     H_    0.295016 0.523443 0.981698 0.184512
H12   H     H_    0.477655 0.294767 0.018555 0.181026
H13   H     H_    0.204997 0.976571 0.518380 0.180992
H14   H     H_    0.022915 0.205129 0.481540 0.183034
H15   H     H_    0.795019 0.023465 0.481698 0.184413
H16   H     H_    0.977658 0.794767 0.518556 0.179817
O17   O     O_R   0.999980 0.448970 0.964420 -0.604493
O18   O     O_R   0.551030 0.999980 0.964420 -0.618235
O19   O     O_R   0.000020 0.551030 0.964420 -0.620997
O20   O     O_R   0.448970 0.000020 0.964420 -0.606570
O21   O     O_R   0.499980 0.948970 0.464420 -0.607185
O22   O     O_R   0.051030 0.499980 0.464420 -0.618756
O23   O     O_R   0.500020 0.051030 0.464420 -0.619789
O24   O     O_R   0.948970 0.500020 0.464420 -0.607074
C45   C     C_R   0.999576 0.500249 0.952934 0.910047
C46   C     C_R   0.499912 0.999839 0.952942 0.909293
C47   C     C_R   0.500246 0.000203 0.452820 0.914320
C48   C     C_R   0.999912 0.499859 0.452937 0.909709
O25   O     O_R   0.909490 0.448990 0.000040 -0.602517
O26   O     O_R   0.551010 0.909490 0.000040 -0.597970
O27   O     O_R   0.090510 0.551010 0.000040 -0.597734
O28   O     O_R   0.448990 0.090510 0.000040 -0.600469
O29   O     O_R   0.409490 0.948990 0.500040 -0.603038
O30   O     O_R   0.051010 0.409490 0.500040 -0.598736
O31   O     O_R   0.590510 0.051010 0.500040 -0.599806
O32   O     O_R   0.948990 0.590510 0.500040 -0.602838
O33   O     O_R   0.909510 0.551130 0.000040 -0.591298
O34   O     O_R   0.448870 0.909510 0.000040 -0.593742
O35   O     O_R   0.090490 0.448870 0.000040 -0.592669
O36   O     O_R   0.551130 0.090490 0.000040 -0.591829
O37   O     O_R   0.409510 0.051130 0.500040 -0.588968
O38   O     O_R   0.948870 0.409510 0.500040 -0.592081
O39   O     O_R   0.590490 0.948870 0.500040 -0.591556
O40   O     O_R   0.051130 0.590490 0.500040 -0.590292
C49   C     C_R   0.880735 0.500617 0.999004 0.912295
C50   C     C_R   0.499480 0.880714 0.001085 0.915683
C51   C     C_R   0.119266 0.499386 0.001073 0.917238
C52   C     C_R   0.500520 0.119290 0.998953 0.914233
C53   C     C_R   0.380734 0.000614 0.499002 0.915208
C54   C     C_R   0.999480 0.380715 0.501079 0.915349
C55   C     C_R   0.619266 0.999387 0.501070 0.916373
C56   C     C_R   0.000519 0.619290 0.498953 0.912245
Zn5   Zn    Zn3+2 0.999950 0.431840 0.000040 1.048774
Zn6   Zn    Zn3+2 0.568160 0.999950 0.000040 1.052742
Zn7   Zn    Zn3+2 0.000050 0.568160 0.000040 1.053799
Zn8   Zn    Zn3+2 0.431840 0.000050 0.000040 1.047293
Zn9   Zn    Zn3+2 0.499950 0.931840 0.500040 1.047914
Zn10  Zn    Zn3+2 0.068160 0.499950 0.500040 1.053656
Zn11  Zn    Zn3+2 0.500050 0.068160 0.500040 1.054585
Zn12  Zn    Zn3+2 0.931840 0.500050 0.500040 1.049414
O41   O     O_R   0.999930 0.448970 0.035660 -0.623716
O42   O     O_R   0.551030 0.999930 0.035660 -0.607641
O43   O     O_R   0.000070 0.551030 0.035660 -0.606654
O44   O     O_R   0.448970 0.000070 0.035660 -0.625263
O45   O     O_R   0.499930 0.948970 0.535660 -0.624139
O46   O     O_R   0.051030 0.499930 0.535660 -0.607766
O47   O     O_R   0.500070 0.051030 0.535660 -0.607142
O48   O     O_R   0.948970 0.500070 0.535660 -0.622340
C57   C     C_R   0.000122 0.499786 0.047147 0.880349
C58   C     C_R   0.499947 0.999798 0.047264 0.878481
C59   C     C_R   0.500116 0.999784 0.547154 0.880398
C60   C     C_R   0.000010 0.499898 0.547149 0.879585
C61   C     C_R   0.037840 0.541313 0.762974 0.028368
C62   C     C_R   0.457120 0.036043 0.762870 0.028185
C63   C     C_R   0.947745 0.474610 0.762734 0.029194
C64   C     C_R   0.529696 0.950403 0.762900 0.029652
C65   C     C_R   0.477105 0.060158 0.263114 0.029723
C66   C     C_R   0.959462 0.538802 0.262832 0.028129
C67   C     C_R   0.462116 0.948936 0.263568 0.029566
C68   C     C_R   0.027303 0.449383 0.262889 0.029688
C69   C     C_R   0.992064 0.508344 0.775559 0.084535
C70   C     C_R   0.493198 0.992721 0.775596 0.084618
C71   C     C_R   0.467438 0.004952 0.276013 0.085162
C72   C     C_R   0.993165 0.493642 0.275573 0.084147
C73   C     C_R   0.073303 0.583873 0.775749 -0.159883
C74   C     C_R   0.412406 0.068969 0.775605 -0.160939
C75   C     C_R   0.895305 0.454219 0.775046 -0.159376
C76   C     C_R   0.553808 0.899707 0.775450 -0.159303
C77   C     C_R   0.468160 0.116006 0.275183 -0.159720
C78   C     C_R   0.916663 0.574177 0.275557 -0.159105
C79   C     C_R   0.438961 0.897650 0.276108 -0.159377
C80   C     C_R   0.048592 0.397465 0.275449 -0.157697
C81   C     C_R   0.074184 0.585548 0.800924 0.160597
C82   C     C_R   0.410913 0.070247 0.800776 0.159130
C83   C     C_R   0.890887 0.455011 0.800191 0.158234
C84   C     C_R   0.553598 0.895751 0.800621 0.158989
C85   C     C_R   0.461926 0.119275 0.300282 0.156411
C86   C     C_R   0.915285 0.575623 0.300727 0.159160
C87   C     C_R   0.432485 0.896521 0.301240 0.155945
C88   C     C_R   0.048162 0.393568 0.300619 0.159402
C89   C     C_R   0.034347 0.544944 0.813764 -0.073245
C90   C     C_R   0.454199 0.033343 0.813683 -0.073343
C91   C     C_R   0.940698 0.480745 0.813529 -0.075612
C92   C     C_R   0.524351 0.943862 0.813768 -0.075300
C93   C     C_R   0.459990 0.063148 0.313673 -0.082736
C94   C     C_R   0.956424 0.536365 0.313656 -0.073257
C95   C     C_R   0.445400 0.951428 0.314167 -0.083323
C96   C     C_R   0.021719 0.443277 0.313751 -0.075251
C97   C     C_R   0.989105 0.511161 0.800979 -0.088168
C98   C     C_R   0.490777 0.990059 0.801042 -0.088231
C99   C     C_R   0.459342 0.006279 0.301284 -0.087455
C100  C     C_R   0.990634 0.491175 0.301021 -0.087879
C101  C     C_R   0.036151 0.538210 0.838988 0.557295
C102  C     C_R   0.460959 0.036050 0.838861 0.558351
C103  C     C_R   0.943504 0.479439 0.838952 0.560023
C104  C     C_R   0.525141 0.946909 0.839181 0.558933
C105  C     C_R   0.457127 0.060437 0.339115 0.562329
C106  C     C_R   0.963189 0.538598 0.338848 0.558212
C107  C     C_R   0.443868 0.955221 0.339602 0.563039
C108  C     C_R   0.022866 0.446381 0.339156 0.559076
N1    N     N_R   0.991057 0.506717 0.850716 -0.328844
N2    N     N_R   0.494967 0.992939 0.850759 -0.328759
N3    N     N_R   0.467532 0.005811 0.350801 -0.314953
N4    N     N_R   0.994998 0.493821 0.350736 -0.328677
H17   H     H_    0.098846 0.617671 0.765762 0.179073
H18   H     H_    0.376860 0.092078 0.765610 0.178582
H19   H     H_    0.856392 0.439770 0.764593 0.177009
H20   H     H_    0.570794 0.861619 0.765179 0.177536
H21   H     H_    0.463553 0.157342 0.264616 0.177392
H22   H     H_    0.882433 0.599164 0.265551 0.179052
H23   H     H_    0.423480 0.858856 0.265889 0.177376
H24   H     H_    0.063437 0.358491 0.265187 0.178512
O49   O     O_2   0.082916 0.561493 0.851972 -0.564591
O50   O     O_2   0.435099 0.081748 0.851628 -0.558742
O51   O     O_2   0.900312 0.450413 0.852146 -0.563519
O52   O     O_2   0.556333 0.905413 0.852552 -0.569496
O53   O     O_2   0.438307 0.109340 0.351841 -0.559397
O54   O     O_2   0.939523 0.585401 0.351647 -0.559555
O55   O     O_2   0.414488 0.912407 0.352849 -0.556365
O56   O     O_2   0.052200 0.403527 0.352517 -0.569873
C109  C     C_R   0.487431 0.058697 0.237885 -0.013125
C110  C     C_R   0.962905 0.541969 0.237371 -0.011065
C111  C     C_R   0.472159 0.947211 0.238319 -0.012984
C112  C     C_R   0.032533 0.453529 0.237518 -0.012745
C113  C     C_R   0.041595 0.537435 0.737551 -0.010920
C114  C     C_R   0.460466 0.039509 0.737412 -0.011710
C115  C     C_R   0.952447 0.468938 0.737418 -0.014684
C116  C     C_R   0.534716 0.954893 0.737529 -0.013599
C117  C     C_R   0.479155 0.002955 0.225344 0.029969
C118  C     C_R   0.995138 0.495815 0.224785 0.030513
C119  C     C_R   0.995440 0.505571 0.724799 0.030315
C120  C     C_R   0.495152 0.995182 0.724809 0.030031
C121  C     C_R   0.475567 0.891463 0.225480 0.117107
C122  C     C_R   0.073775 0.416467 0.224352 0.115136
C123  C     C_R   0.505894 0.111224 0.224652 0.116462
C124  C     C_R   0.934902 0.589722 0.223913 0.112941
C125  C     C_R   0.915291 0.427961 0.724196 0.115000
C126  C     C_R   0.577889 0.920116 0.724351 0.116405
C127  C     C_R   0.089963 0.564602 0.724294 0.114940
C128  C     C_R   0.429997 0.085774 0.723974 0.114378
C129  C     C_R   0.464250 0.891124 0.200667 0.148972
C130  C     C_R   0.063517 0.406349 0.199836 0.154015
C131  C     C_R   0.495407 0.114259 0.199798 0.148962
C132  C     C_R   0.919855 0.580170 0.199759 0.144667
C133  C     C_R   0.905901 0.437931 0.699560 0.149329
C134  C     C_R   0.568190 0.909484 0.699837 0.152378
C135  C     C_R   0.081180 0.579364 0.699997 0.147890
C136  C     C_R   0.415628 0.075586 0.699798 0.144456
C137  C     C_R   0.475172 0.946054 0.187310 -0.085136
C138  C     C_R   0.028720 0.450588 0.186695 -0.082291
C139  C     C_R   0.491015 0.058212 0.186872 -0.082252
C140  C     C_R   0.955578 0.537190 0.186587 -0.079703
C141  C     C_R   0.950815 0.471950 0.686559 -0.082480
C142  C     C_R   0.531135 0.951871 0.686703 -0.082844
C143  C     C_R   0.038149 0.543993 0.686696 -0.080469
C144  C     C_R   0.453636 0.034615 0.686619 -0.080356
C145  C     C_R   0.482230 0.002347 0.199818 -0.100397
C146  C     C_R   0.993453 0.494767 0.199314 -0.101698
C147  C     C_R   0.995045 0.506851 0.699313 -0.101413
C148  C     C_R   0.493602 0.994142 0.699336 -0.101459
C149  C     C_R   0.499694 0.054918 0.161705 0.518466
C150  C     C_R   0.959291 0.538270 0.161241 0.518724
C151  C     C_R   0.484192 0.946449 0.162128 0.520479
C152  C     C_R   0.032128 0.456146 0.161473 0.515757
C153  C     C_R   0.039680 0.539994 0.661367 0.518994
C154  C     C_R   0.457431 0.036048 0.661278 0.518495
C155  C     C_R   0.956865 0.468176 0.661390 0.516703
C156  C     C_R   0.534244 0.957628 0.661479 0.517233
N5    N     N_R   0.493259 0.000399 0.150038 -0.345223
N6    N     N_R   0.995728 0.497200 0.149466 -0.343737
N7    N     N_R   0.998404 0.504039 0.649482 -0.343589
N8    N     N_R   0.495864 0.996865 0.649492 -0.344014
O57   O     O_2   0.518310 0.104462 0.148981 -0.573347
O58   O     O_2   0.930203 0.582163 0.148315 -0.578311
O59   O     O_2   0.488547 0.893477 0.149807 -0.563359
O60   O     O_2   0.074813 0.424704 0.148974 -0.567754
O61   O     O_2   0.084123 0.568353 0.648594 -0.581409
O62   O     O_2   0.426340 0.078587 0.648372 -0.577996
O63   O     O_2   0.925336 0.425677 0.648874 -0.563795
O64   O     O_2   0.578393 0.928333 0.648955 -0.566439
C157  C     C_R   0.971802 0.555083 0.889675 0.186662
C158  C     C_R   0.446818 0.971534 0.889763 0.185335
C159  C     C_R   0.015182 0.451844 0.888384 0.203242
C160  C     C_R   0.548075 0.019207 0.888374 0.205505
C161  C     C_R   0.498481 0.946335 0.388346 0.231437
C162  C     C_R   0.048932 0.517875 0.388396 0.205434
C163  C     C_R   0.509249 0.056376 0.388469 0.234678
C164  C     C_R   0.945965 0.474009 0.389684 0.184253
C165  C     C_R   0.974724 0.553527 0.914651 -0.216060
C166  C     C_R   0.448016 0.973982 0.914733 -0.206185
C167  C     C_R   0.016892 0.450266 0.913438 -0.216041
C168  C     C_R   0.549386 0.020326 0.913428 -0.227877
C169  C     C_R   0.498949 0.945664 0.413471 -0.205286
C170  C     C_R   0.050195 0.518823 0.413451 -0.227612
C171  C     C_R   0.509255 0.055746 0.413591 -0.224581
C172  C     C_R   0.947199 0.476180 0.414657 -0.206094
H25   H     H_    0.958633 0.592927 0.924664 0.192319
H26   H     H_    0.409271 0.956080 0.924797 0.194515
H27   H     H_    0.034570 0.409727 0.922528 0.193263
H28   H     H_    0.589004 0.039475 0.922497 0.189977
H29   H     H_    0.501890 0.902000 0.422891 0.200759
H30   H     H_    0.090481 0.536437 0.422547 0.190689
H31   H     H_    0.520672 0.097467 0.423123 0.195516
H32   H     H_    0.907771 0.459650 0.424667 0.195210
C173  C     C_R   0.997190 0.501244 0.926656 -0.110876
C174  C     C_R   0.499247 0.998124 0.926682 -0.110574
C175  C     C_R   0.500306 0.000747 0.426309 -0.128610
C176  C     C_R   0.999247 0.498352 0.426664 -0.111407
C177  C     C_R   0.992501 0.504358 0.876437 0.220207
C178  C     C_R   0.496752 0.994539 0.876475 0.219592
C179  C     C_R   0.490673 0.002997 0.375691 0.128716
C180  C     C_R   0.996763 0.495217 0.376450 0.220164
C181  C     C_R   0.441305 0.995100 0.111086 -0.132683
C182  C     C_R   0.977865 0.446442 0.110918 -0.114106
C183  C     C_R   0.552350 0.003646 0.112211 -0.063213
C184  C     C_R   0.018852 0.550140 0.111276 -0.065763
C185  C     C_R   0.947595 0.522614 0.610789 -0.115695
C186  C     C_R   0.479859 0.945571 0.610942 -0.116503
C187  C     C_R   0.051102 0.480876 0.611418 -0.064050
C188  C     C_R   0.516935 0.050725 0.611321 -0.063901
H33   H     H_    0.397588 0.991932 0.120318 0.138375
H34   H     H_    0.961334 0.406097 0.120418 0.144054
H35   H     H_    0.594759 0.007001 0.122329 0.153497
H36   H     H_    0.034878 0.589938 0.121039 0.164035
H37   H     H_    0.907397 0.539398 0.620179 0.143190
H38   H     H_    0.464872 0.904613 0.620440 0.142957
H39   H     H_    0.090902 0.464494 0.621282 0.165594
H40   H     H_    0.531426 0.091085 0.621099 0.164583
C189  C     C_R   0.442822 0.995076 0.086054 -0.187073
C190  C     C_R   0.979404 0.446755 0.085922 -0.196313
C191  C     C_R   0.554030 0.003387 0.087076 -0.189529
C192  C     C_R   0.019448 0.550911 0.086242 -0.191695
C193  C     C_R   0.947664 0.521135 0.585801 -0.194697
C194  C     C_R   0.481320 0.946000 0.585946 -0.195910
C195  C     C_R   0.051638 0.480356 0.586376 -0.193971
C196  C     C_R   0.517555 0.051544 0.586285 -0.190962
H41   H     H_    0.399802 0.991719 0.076333 0.172869
H42   H     H_    0.963837 0.406423 0.076371 0.169341
H43   H     H_    0.598057 0.006648 0.078083 0.177169
H44   H     H_    0.035872 0.591579 0.076920 0.183599
H45   H     H_    0.907298 0.537003 0.576153 0.169185
H46   H     H_    0.467240 0.905116 0.576401 0.169846
H47   H     H_    0.092124 0.463647 0.577149 0.183153
H48   H     H_    0.532480 0.092820 0.576981 0.183744
C197  C     C_R   0.499160 0.999364 0.073778 -0.047717
C198  C     C_R   0.999742 0.499171 0.073435 -0.043880
C199  C     C_R   0.999839 0.500408 0.573441 -0.044058
C200  C     C_R   0.499744 0.999140 0.573457 -0.044806
I1    I     I_    0.823024 0.396585 0.960658 -0.256712
I2    I     I_    0.605983 0.821888 0.038767 -0.273673
I3    I     I_    0.177028 0.603638 0.039331 -0.305748
I4    I     I_    0.393034 0.178235 0.961641 -0.251028
I5    I     I_    0.323027 0.896431 0.460709 -0.261165
I6    I     I_    0.105688 0.321945 0.538878 -0.294790
I7    I     I_    0.677008 0.103592 0.539347 -0.298291
I8    I     I_    0.893015 0.678231 0.461647 -0.252006
I9    I     I_    0.776911 0.589743 0.009987 -0.294248
I10   I     I_    0.409870 0.777188 0.990538 -0.297908
I11   I     I_    0.223089 0.410267 0.990088 -0.294355
I12   I     I_    0.590568 0.222867 0.008962 -0.304306
I13   I     I_    0.276894 0.089750 0.509955 -0.292823
I14   I     I_    0.909974 0.277193 0.490414 -0.292420
I15   I     I_    0.723092 0.910287 0.490070 -0.293300
I16   I     I_    0.090571 0.722871 0.508952 -0.303343
C201  C     C_3   0.114814 0.632364 0.813877 -0.304650
C202  C     C_3   0.144381 0.682745 0.798372 -0.887439
H49   H     H_    0.178537 0.662704 0.785815 0.279002
H50   H     H_    0.108696 0.708792 0.788236 0.264868
H51   H     H_    0.169072 0.715501 0.810174 0.273827
H52   H     H_    0.086322 0.656528 0.827457 0.247825
H53   H     H_    0.152757 0.607483 0.823152 0.261386
C203  C     C_3   0.361532 0.107946 0.813682 -0.308442
C204  C     C_3   0.308955 0.133612 0.798228 -0.871582
H54   H     H_    0.326325 0.168802 0.785359 0.280014
H55   H     H_    0.285413 0.095991 0.788441 0.263133
H56   H     H_    0.274638 0.156231 0.810025 0.276597
H57   H     H_    0.339618 0.078239 0.827582 0.248363
H58   H     H_    0.383807 0.147715 0.822576 0.263064
C205  C     C_3   0.833002 0.429900 0.812491 -0.307960
C206  C     C_3   0.779723 0.410345 0.796216 -0.878057
H59   H     H_    0.763674 0.449674 0.784991 0.260121
H60   H     H_    0.793616 0.371263 0.784665 0.285125
H61   H     H_    0.740579 0.394824 0.807534 0.274531
H62   H     H_    0.845851 0.388806 0.823370 0.265412
H63   H     H_    0.814340 0.466034 0.824499 0.245560
C207  C     C_3   0.583222 0.840116 0.813152 -0.304251
C208  C     C_3   0.607662 0.788597 0.797107 -0.890959
H64   H     H_    0.570023 0.768949 0.786048 0.261697
H65   H     H_    0.645370 0.805775 0.785402 0.284475
H66   H     H_    0.626658 0.751120 0.808590 0.271890
H67   H     H_    0.622879 0.856315 0.823998 0.263519
H68   H     H_    0.548538 0.818580 0.825214 0.245807
C209  C     C_3   0.458387 0.181892 0.312606 -0.313344
C210  C     C_3   0.467205 0.238928 0.296674 -0.861885
H69   H     H_    0.512167 0.237023 0.287261 0.289455
H70   H     H_    0.429061 0.243369 0.283475 0.259240
H71   H     H_    0.466806 0.280632 0.308083 0.273476
H72   H     H_    0.412703 0.186421 0.321342 0.251383
H73   H     H_    0.494861 0.183861 0.326561 0.263646
C211  C     C_3   0.868190 0.616177 0.313608 -0.309997
C212  C     C_3   0.817478 0.645227 0.298111 -0.868944
H74   H     H_    0.837182 0.679209 0.285267 0.279999
H75   H     H_    0.791584 0.609236 0.288297 0.264510
H76   H     H_    0.784660 0.670013 0.309882 0.276257
H77   H     H_    0.844348 0.587762 0.327426 0.249029
H78   H     H_    0.892805 0.654412 0.322584 0.262656
C213  C     C_3   0.412842 0.837226 0.314074 -0.311728
C214  C     C_3   0.405579 0.779769 0.298567 -0.860418
H79   H     H_    0.367320 0.785729 0.285507 0.259425
H80   H     H_    0.449133 0.769297 0.289021 0.288487
H81   H     H_    0.394276 0.739835 0.310304 0.274686
H82   H     H_    0.447942 0.825625 0.327898 0.263703
H83   H     H_    0.367910 0.845213 0.323019 0.252838
C215  C     C_3   0.074454 0.336318 0.313169 -0.304747
C216  C     C_3   0.095364 0.283257 0.297139 -0.892950
H84   H     H_    0.056441 0.266094 0.286123 0.263897
H85   H     H_    0.134037 0.297883 0.285396 0.282838
H86   H     H_    0.111930 0.244679 0.308633 0.271649
H87   H     H_    0.115187 0.350104 0.323918 0.261807
H88   H     H_    0.038660 0.317088 0.325320 0.247189
I17   I     I_    0.522601 0.812491 0.240012 -0.363327
I18   I     I_    0.164285 0.395378 0.237758 -0.371575
I19   I     I_    0.572074 0.174809 0.238825 -0.363970
I20   I     I_    0.938771 0.683841 0.235400 -0.352912
I21   I     I_    0.892857 0.337986 0.737908 -0.339248
I22   I     I_    0.669437 0.904044 0.737724 -0.353557
I23   I     I_    0.183732 0.559803 0.736479 -0.357936
I24   I     I_    0.428561 0.179899 0.735564 -0.345291
C217  C     C_3   0.436287 0.833186 0.189836 -0.318492
C218  C     C_3   0.380277 0.810569 0.204065 -0.868771
H89   H     H_    0.393291 0.794845 0.222382 0.278087
H90   H     H_    0.345603 0.847929 0.205517 0.261821
H91   H     H_    0.358928 0.771145 0.194616 0.268047
H92   H     H_    0.417957 0.841400 0.171565 0.255147
H93   H     H_    0.471413 0.796173 0.188918 0.247988
C219  C     C_3   0.085650 0.345719 0.189169 -0.319287
C220  C     C_3   0.064222 0.290156 0.204033 -0.879023
H94   H     H_    0.085253 0.289672 0.222201 0.277826
H95   H     H_    0.013354 0.290759 0.205878 0.263871
H96   H     H_    0.077854 0.247082 0.194834 0.264774
H97   H     H_    0.066206 0.337452 0.171121 0.252041
H98   H     H_    0.136568 0.345551 0.187717 0.246001
C221  C     C_3   0.484340 0.177508 0.188478 -0.320279
C222  C     C_3   0.436260 0.214708 0.202335 -0.867520
H99   H     H_    0.392757 0.188229 0.203867 0.261790
H100  H     H_    0.452649 0.226486 0.220610 0.278118
H101  H     H_    0.426568 0.258373 0.192558 0.267680
H102  H     H_    0.528157 0.203553 0.187463 0.246576
H103  H     H_    0.464823 0.174416 0.170190 0.256550
C223  C     C_3   0.863640 0.613514 0.189575 -0.314915
C224  C     C_3   0.807537 0.607803 0.206108 -0.861141
H104  H     H_    0.797557 0.558596 0.209920 0.261975
H105  H     H_    0.814817 0.632049 0.223342 0.278091
H106  H     H_    0.766793 0.628638 0.197148 0.269654
H107  H     H_    0.874468 0.662783 0.186379 0.248063
H108  H     H_    0.847855 0.593136 0.172513 0.258756
C225  C     C_3   0.845290 0.416438 0.688583 -0.316334
C226  C     C_3   0.789612 0.438897 0.702947 -0.873698
H109  H     H_    0.788448 0.418212 0.721218 0.278486
H110  H     H_    0.790738 0.489786 0.704531 0.259864
H111  H     H_    0.746615 0.425686 0.693520 0.268537
H112  H     H_    0.837673 0.435657 0.670380 0.251832
H113  H     H_    0.844582 0.365501 0.687393 0.249691
C227  C     C_3   0.593547 0.850124 0.689161 -0.318128
C228  C     C_3   0.575248 0.793467 0.704044 -0.882384
H114  H     H_    0.596345 0.794131 0.722194 0.277722
H115  H     H_    0.524432 0.791280 0.705926 0.262776
H116  H     H_    0.591180 0.751187 0.694836 0.264970
H117  H     H_    0.574506 0.840791 0.671130 0.251846
H118  H     H_    0.644394 0.852720 0.687672 0.246822
C229  C     C_3   0.115336 0.635009 0.689788 -0.313981
C230  C     C_3   0.109725 0.691443 0.706006 -0.880690
H119  H     H_    0.060520 0.702079 0.709410 0.264207
H120  H     H_    0.133437 0.684150 0.723450 0.277604
H121  H     H_    0.131187 0.731790 0.697003 0.264395
H122  H     H_    0.164579 0.623535 0.687005 0.245443
H123  H     H_    0.095585 0.650786 0.672504 0.257878
C231  C     C_3   0.357747 0.105910 0.689601 -0.313171
C232  C     C_3   0.301907 0.096883 0.706052 -0.869825
H124  H     H_    0.294640 0.047145 0.709759 0.260670
H125  H     H_    0.307685 0.121275 0.723341 0.278308
H126  H     H_    0.260135 0.115538 0.697080 0.268751
H127  H     H_    0.365843 0.155754 0.686514 0.248288
H128  H     H_    0.343264 0.084939 0.672473 0.257851
I25   I     I_    0.935102 0.634628 0.872679 -0.294516
I26   I     I_    0.369152 0.931728 0.872879 -0.292652
I27   I     I_    0.048501 0.374765 0.869273 -0.232436
I28   I     I_    0.623719 0.056316 0.869198 -0.235786
I29   I     I_    0.534583 0.864913 0.372365 -0.269047
I30   I     I_    0.125996 0.552098 0.369279 -0.245447
I31   I     I_    0.563307 0.128360 0.372974 -0.276021
I32   I     I_    0.866871 0.437424 0.372698 -0.280727

loop_
_geom_bond_atom_site_label_1
_geom_bond_atom_site_label_2
_geom_bond_distance
_ccdc_geom_bond_type
C46   C174  1.461160 S    
C134  C227  1.527423 S    
C221  C222  1.532951 S    
C8    C41   1.440071 S    
C108  O56   1.347381 S    
O23   C47   1.283858 A    
C143  C153  1.412310 A    
C14   C22   1.350352 D    
C33   H5    1.086220 S    
C105  N3    1.368586 A    
O15   Zn4   2.001308 S    
C94   C100  1.422023 A    
C94   C106  1.409730 A    
C47   C175  1.474249 S    
C59   C200  1.462726 S    
O20   C46   1.279136 A    
O2    Zn1   2.003407 S    
C95   C107  1.417898 A    
C219  C220  1.532530 S    
O30   C54   1.285407 A    
C11   C187  1.401959 A    
O17   Zn5   2.012963 S    
C144  C148  1.420689 A    
O37   Zn11  2.004044 S    
C216  H85   1.110755 S    
O19   Zn7   2.018191 S    
C218  H91   1.110766 S    
C84   C207  1.532926 S    
C204  H54   1.110880 S    
C36   H8    1.086227 S    
C166  H26   1.083260 S    
O3    C3    1.277251 A    
C170  H30   1.083067 S    
C201  H53   1.110796 S    
C110  C118  1.413523 A    
C163  C171  1.397033 A    
C218  H90   1.111251 S    
O35   Zn5   2.004044 S    
C165  C173  1.401637 A    
C111  C121  1.413351 A    
C114  C128  1.413007 A    
C232  H124  1.111277 S    
C215  H88   1.111446 S    
C214  H80   1.110406 S    
C28   I16   2.162023 S    
Zn9   O45   2.018203 S    
C158  I26   2.120450 S    
C87   C95   1.426317 A    
O27   Zn7   2.001876 S    
C92   C104  1.415322 A    
C149  N5    1.362968 A    
C40   H12   1.088096 S    
C77   C85   1.404725 A    
O32   Zn12  2.002894 S    
C81   C201  1.532286 S    
C74   H18   1.073951 S    
C20   I8    2.129227 S    
C34   H6    1.086230 S    
C159  C167  1.393913 A    
O12   C4    1.282371 A    
O1    Zn1   2.001203 S    
C196  C200  1.403598 A    
O13   C5    1.277318 A    
C5    C42   1.440049 S    
C24   C52   1.445930 S    
C7    C44   1.440139 S    
O6    Zn2   2.003408 S    
C153  N7    1.364591 A    
C204  H56   1.110854 S    
C15   C31   1.457212 S    
C16   C24   1.350411 D    
O18   Zn6   2.015219 S    
C133  C141  1.421196 A    
C78   C86   1.400654 A    
C19   C27   1.350385 D    
C20   C28   1.350417 D    
C142  C156  1.409068 A    
C119  C147  1.417375 A    
C105  O53   1.345267 S    
C189  H41   1.082897 S    
C73   H17   1.073841 S    
C118  C146  1.417224 A    
C79   C87   1.404875 A    
C227  C228  1.532645 S    
C129  C137  1.422587 A    
C209  H72   1.110911 S    
C76   H20   1.074848 S    
C18   I6    2.129405 S    
C183  H35   1.082714 S    
O10   C2    1.277191 A    
C70   C98   1.416845 A    
C185  C193  1.390199 A    
C83   C91   1.429290 A    
C66   C110  1.419173 A    
C160  C178  1.405961 A    
C202  H49   1.110822 S    
C86   C211  1.532353 S    
C161  C179  1.424626 A    
C65   C71   1.410284 A    
C162  C180  1.405703 A    
C102  N2    1.361012 A    
O5    C5    1.282306 A    
C192  H44   1.083179 S    
C58   C197  1.474502 S    
O38   Zn12  2.003186 S    
C188  H40   1.082912 S    
C143  C147  1.420794 A    
C210  H69   1.110401 S    
C83   C205  1.532626 S    
C122  C130  1.400238 A    
C223  H108  1.104681 S    
C171  H31   1.083134 S    
C212  H75   1.110991 S    
C124  I20   2.150407 S    
C201  C202  1.531951 S    
C89   C101  1.409806 A    
C205  H62   1.110944 S    
O13   Zn4   2.006572 S    
O40   C56   1.266890 A    
O24   Zn12  2.015932 S    
C207  C208  1.532247 S    
C225  H112  1.104700 S    
C116  C126  1.413537 A    
C193  C199  1.402800 A    
C92   C98   1.424950 A    
C203  H57   1.111935 S    
C113  C119  1.413551 A    
C103  O51   1.347381 S    
C186  C194  1.390393 A    
O37   C53   1.266728 A    
C184  C192  1.392207 A    
C216  H84   1.110944 S    
C115  C125  1.413482 A    
C29   C37   1.333045 D    
C206  H59   1.110988 S    
C194  H46   1.083180 S    
C37   H9    1.088054 S    
O3    Zn1   2.006465 S    
C205  H63   1.111512 S    
O29   Zn9   2.001876 S    
C32   C40   1.333150 D    
C6    C43   1.439994 S    
O45   C59   1.280636 A    
C33   C41   1.333031 D    
C231  H127  1.110617 S    
C190  H42   1.083157 S    
C41   H13   1.088062 S    
C230  H119  1.111224 S    
C35   C43   1.332958 D    
C36   C44   1.333156 D    
C26   I14   2.161815 S    
C227  H118  1.110478 S    
C15   C23   1.350383 D    
C217  H93   1.110500 S    
C16   C32   1.457179 S    
C1    C38   1.440014 S    
C28   C56   1.445939 S    
C17   C33   1.457311 S    
C84   C92   1.429706 A    
C19   I7    2.129408 S    
C164  C172  1.390146 A    
C101  O49   1.348063 S    
C14   I2    2.129323 S    
C160  C168  1.393916 A    
C219  H97   1.104742 S    
O25   Zn5   2.001876 S    
C181  H33   1.082962 S    
C154  N8    1.364417 A    
O19   C45   1.279820 A    
C19   C35   1.457228 S    
C81   C89   1.426361 A    
O36   C52   1.266877 A    
C9    N5    1.435470 S    
C137  C151  1.414233 A    
C31   H3    1.086220 S    
C168  H28   1.083157 S    
C228  H115  1.111225 S    
C24   I12   2.162028 S    
C169  H29   1.083034 S    
C62   C114  1.419175 A    
C129  C217  1.527270 S    
C75   C83   1.401937 A    
C68   C80   1.401426 A    
C104  O52   1.347400 S    
O44   C58   1.282234 A    
C67   C79   1.405362 A    
O48   C60   1.280222 A    
C208  H66   1.110865 S    
O24   C48   1.279282 A    
C48   C176  1.461709 S    
C157  C177  1.404519 A    
C161  C169  1.397230 A    
C128  I24   2.150737 S    
C66   C78   1.402220 A    
O21   Zn9   2.012963 S    
C166  C174  1.401276 A    
C163  C179  1.424172 A    
N4    C180  1.430987 S    
C104  N2    1.362255 A    
C138  C146  1.418710 A    
C45   C173  1.462165 S    
C195  H47   1.083197 S    
C220  H96   1.110671 S    
C127  I23   2.150477 S    
O12   Zn3   2.003507 S    
C88   C96   1.429442 A    
N1    C177  1.431219 S    
C160  I28   2.118806 S    
N3    C179  1.473184 S    
C222  H99   1.111229 S    
C38   H10   1.088076 S    
O5    Zn2   2.001204 S    
C193  H45   1.083180 S    
O30   Zn10  2.002894 S    
C64   C76   1.401630 A    
C109  C123  1.413359 A    
C42   H14   1.088062 S    
O4    Zn1   2.004110 S    
C131  C139  1.422785 A    
C169  C175  1.399284 A    
O16   Zn4   2.003507 S    
C170  C176  1.401436 A    
O1    C1    1.282344 A    
C130  C138  1.421095 A    
C206  H61   1.110657 S    
O14   C6    1.277196 A    
C22   C50   1.445372 S    
C155  O63   1.348637 S    
C211  H77   1.111785 S    
O23   Zn11  2.018191 S    
O26   Zn6   2.002894 S    
C65   C77   1.405321 A    
C11   N7    1.434255 S    
C62   C70   1.411277 A    
C230  H121  1.110733 S    
O7    C7    1.277249 A    
C63   C75   1.401624 A    
O8    C8    1.277255 A    
C65   C109  1.421678 A    
C18   C26   1.350336 D    
C131  C221  1.527412 S    
C156  O64   1.348690 S    
C2    C39   1.439975 S    
C77   H21   1.075052 S    
C126  C134  1.400192 A    
C228  H114  1.108537 S    
C16   I4    2.129216 S    
C13   C29   1.457270 S    
C9    C181  1.398168 A    
C88   C215  1.532725 S    
C162  I30   2.118591 S    
C224  H105  1.108514 S    
C226  H109  1.108579 S    
C226  H110  1.111195 S    
C201  H52   1.111825 S    
C96   C100  1.424839 A    
O25   C49   1.285421 A    
Zn7   O43   2.012972 S    
C120  C148  1.417272 A    
C91   C103  1.415130 A    
C144  C154  1.411844 A    
C217  C218  1.532855 S    
O32   C56   1.285567 A    
C182  C190  1.390421 A    
C223  C224  1.533075 S    
C27   C55   1.445068 S    
O11   C3    1.282433 A    
C220  H94   1.108589 S    
C61   C69   1.411053 A    
C80   H24   1.074708 S    
O31   C55   1.285352 A    
C71   C99   1.416968 A    
O33   C49   1.266666 A    
C208  H64   1.111115 S    
O6    C6    1.282411 A    
C229  H123  1.104602 S    
C101  N1    1.361200 A    
C124  C132  1.399224 A    
O35   C51   1.266721 A    
C189  C197  1.406034 A    
C159  C177  1.405781 A    
C25   C53   1.445143 S    
C138  C152  1.408944 A    
C152  O60   1.348645 S    
C187  H39   1.082834 S    
O10   Zn3   2.004217 S    
C67   C111  1.421954 A    
C20   C36   1.457189 S    
O22   Zn10  2.015219 S    
C232  H126  1.110910 S    
C205  C206  1.532106 S    
C90   C102  1.409379 A    
C21   I9    2.161557 S    
C191  C197  1.406429 A    
C207  H67   1.111094 S    
C222  H101  1.110756 S    
C91   C97   1.424645 A    
O17   C45   1.281283 A    
C109  C117  1.414521 A    
C229  C230  1.533109 S    
C204  H55   1.111171 S    
O7    Zn2   2.006466 S    
C44   H16   1.088095 S    
C82   C203  1.532442 S    
C127  C135  1.399379 A    
O36   Zn6   2.003186 S    
C112  C122  1.413546 A    
C90   C98   1.421868 A    
C141  C147  1.418681 A    
C30   C38   1.333043 D    
C64   C70   1.408579 A    
C231  C232  1.533111 S    
C34   C42   1.333072 D    
C202  H51   1.110654 S    
C110  C124  1.412792 A    
O26   C50   1.285434 A    
C61   C113  1.419296 A    
C130  C219  1.527237 S    
C172  H32   1.083167 S    
C140  C150  1.411951 A    
C155  N7    1.363287 A    
C18   C34   1.457035 S    
O20   Zn8   2.015932 S    
C228  H116  1.110894 S    
C167  C173  1.401473 A    
C165  H25   1.083143 S    
C9    C183  1.401522 A    
C125  I21   2.151887 S    
C93   C99   1.420129 A    
C10   C184  1.401683 A    
C72   C100  1.416913 A    
C202  H50   1.111039 S    
C12   C186  1.400022 A    
C164  C180  1.404564 A    
C22   I10   2.161858 S    
C229  H122  1.110542 S    
C113  C127  1.412816 A    
O34   C50   1.266748 A    
O39   Zn9   2.004044 S    
C210  H70   1.110761 S    
O34   Zn8   2.003186 S    
C64   C116  1.417858 A    
C212  H74   1.110784 S    
C11   C185  1.400310 A    
C112  C118  1.412883 A    
C149  O57   1.347720 S    
C74   C82   1.400619 A    
Zn11  O47   2.012972 S    
C106  O54   1.348063 S    
C215  H87   1.110927 S    
O43   C57   1.280597 A    
O14   Zn4   2.004217 S    
C214  H79   1.110766 S    
Zn8   O44   2.015238 S    
C103  N1    1.362099 A    
C150  N6    1.364569 A    
C221  H102  1.110462 S    
C203  H58   1.110913 S    
O18   C46   1.281402 A    
C158  C178  1.404787 A    
O8    Zn2   2.004111 S    
C162  C170  1.393872 A    
C210  H71   1.110636 S    
C117  C145  1.421312 A    
C17   I5    2.129519 S    
C195  C199  1.403368 A    
C158  C166  1.390226 A    
C114  C120  1.413663 A    
C157  C165  1.390449 A    
C206  H60   1.110795 S    
N2    C178  1.431204 S    
C79   H23   1.074888 S    
C23   C51   1.445087 S    
C231  H128  1.104732 S    
C213  H83   1.110944 S    
C230  H120  1.108498 S    
C125  C133  1.400261 A    
C221  H103  1.104180 S    
O27   C51   1.285365 A    
C123  C131  1.401666 A    
C106  N4    1.360930 A    
C73   C81   1.400841 A    
C217  H92   1.104395 S    
C68   C112  1.417828 A    
C216  H86   1.110609 S    
C115  C119  1.413030 A    
C76   C84   1.401813 A    
C17   C25   1.350382 D    
C136  C231  1.527170 S    
O2    C2    1.282412 A    
C219  H98   1.110369 S    
C68   C72   1.408605 A    
C211  C212  1.531944 S    
C121  I17   2.150204 S    
O21   C47   1.283540 A    
C213  C214  1.531601 S    
C43   H15   1.088067 S    
C62   C74   1.402407 A    
C67   C71   1.410252 A    
O28   C52   1.285573 A    
Zn12  O48   2.015238 S    
C172  C176  1.401505 A    
C29   H1    1.086216 S    
O38   C54   1.266725 A    
C133  C225  1.527328 S    
C209  H73   1.110246 S    
C107  N3    1.368918 A    
C128  C136  1.399267 A    
C187  C195  1.392790 A    
C152  N6    1.363232 A    
C188  C196  1.392335 A    
C89   C97   1.421760 A    
C142  C148  1.418953 A    
C111  C117  1.414868 A    
C136  C144  1.422283 A    
C10   C182  1.400275 A    
C135  C143  1.422450 A    
C192  C198  1.403298 A    
C12   C188  1.401514 A    
C135  C229  1.527092 S    
C191  H43   1.082844 S    
C139  C145  1.421015 A    
C116  C120  1.413000 A    
C208  H65   1.110873 S    
C86   C94   1.426329 A    
C35   H7    1.086216 S    
C223  H107  1.110514 S    
C32   H4    1.086225 S    
C183  C191  1.398339 A    
C156  N8    1.363179 A    
C224  H106  1.110712 S    
C168  C174  1.401153 A    
C132  C223  1.527004 S    
C184  H36   1.082848 S    
O15   C7    1.282436 A    
C102  O50   1.348188 S    
C185  H37   1.083027 S    
O16   C8    1.282400 A    
C61   C73   1.402306 A    
C27   I15   2.161567 S    
C214  H81   1.110647 S    
O42   C58   1.285307 A    
C15   I3    2.129377 S    
C222  H100  1.108517 S    
C225  H113  1.110382 S    
C85   C93   1.426051 A    
C213  H82   1.110373 S    
C14   C30   1.457011 S    
C26   C54   1.445271 S    
C87   C213  1.530929 S    
O33   Zn7   2.004044 S    
C66   C72   1.411081 A    
C13   C21   1.350320 D    
C10   N6    1.433867 S    
C57   C198  1.461908 S    
C63   C115  1.417902 A    
C95   C99   1.420367 A    
C108  N4    1.362043 A    
C123  I19   2.150260 S    
C150  O58   1.347566 S    
C211  H78   1.110750 S    
C96   C108  1.415071 A    
O47   C59   1.280865 A    
C161  I29   2.135955 S    
C93   C105  1.417093 A    
C186  H38   1.083067 S    
O11   Zn3   2.001308 S    
C227  H117  1.104749 S    
C85   C209  1.530823 S    
C30   H2    1.086233 S    
O39   C55   1.266725 A    
C209  C210  1.531590 S    
C182  H34   1.082997 S    
C151  N5    1.362798 A    
O9    C1    1.277273 A    
C194  C200  1.403170 A    
C69   C97   1.416880 A    
C171  C175  1.399167 A    
C23   I11   2.161589 S    
C134  C142  1.421294 A    
C31   C39   1.332949 D    
O29   C53   1.285380 A    
C39   H11   1.088063 S    
C167  H27   1.083081 S    
C190  C198  1.402862 A    
O31   Zn11  2.001876 S    
O41   C57   1.280461 A    
C154  O62   1.347683 S    
C63   C69   1.408512 A    
O28   Zn8   2.002894 S    
C60   C199  1.462202 S    
O46   C60   1.280906 A    
C12   N8    1.433588 S    
O40   Zn10  2.003186 S    
C13   I1    2.129343 S    
C151  O59   1.347890 S    
O4    C4    1.277278 A    
C3    C40   1.440129 S    
C25   I13   2.161577 S    
C126  I22   2.151944 S    
C122  I18   2.151900 S    
C107  O55   1.345588 S    
C212  H76   1.110608 S    
C226  H111  1.110704 S    
C181  C189  1.392496 A    
O22   C48   1.281539 A    
C157  I25   2.120117 S    
C225  C226  1.532581 S    
C218  H89   1.108550 S    
Zn5   O41   2.018203 S    
C75   H19   1.074778 S    
C203  C204  1.532048 S    
Zn10  O46   2.015935 S    
C164  I32   2.120219 S    
C132  C140  1.422272 A    
O9    Zn3   2.006572 S    
C140  C146  1.420641 A    
C224  H104  1.111205 S    
C78   H22   1.073767 S    
C82   C90   1.426218 A    
C80   C88   1.401722 A    
C220  H95   1.111189 S    
C121  C129  1.401448 A    
C232  H125  1.108513 S    
C215  C216  1.532115 S    
C141  C155  1.408929 A    
C196  H48   1.083217 S    
C21   C49   1.445100 S    
Zn6   O42   2.015935 S    
C153  O61   1.347475 S    
C4    C37   1.440046 S    
C163  I31   2.136134 S    
C139  C149  1.414752 A    
C207  H68   1.111604 S    
C137  C145  1.420827 A    
C159  I27   2.118626 S    
