data_mof_unit_46023.cif
_audit_creation_date              2012-12-10T17:37:21-0500
_audit_creation_method            fapswitch 2.2
_symmetry_space_group_name_H-M    P1
_symmetry_Int_Tables_number       1
_space_group_crystal_system       triclinic
_cell_length_a                    12.334337
_cell_length_b                    13.183192
_cell_length_c                    15.854936
_cell_angle_alpha                 77.892513
_cell_angle_beta                  101.112443
_cell_angle_gamma                 116.579117
_cell_volume                      2239.89644289

loop_
_atom_site_label
_atom_site_type_symbol
_atom_type_description
_atom_site_fract_x
_atom_site_fract_y
_atom_site_fract_z
_atom_type_partial_charge
C1    C     C_R   0.854855 0.286589 0.507584 0.782144
C2    C     C_3   0.999265 0.499891 0.916686 -0.059171
C3    C     C_3   0.116059 0.559944 0.034739 -0.283590
C4    C     C_3   0.000922 0.499876 0.083293 -0.066143
C5    C     C_3   0.043499 0.608773 0.959418 -0.252748
C6    C     C_3   0.928910 0.549485 0.009533 -0.264767
C7    C     C_1   0.998577 0.499509 0.824998 0.081317
C8    C     C_1   0.001123 0.499578 0.175021 0.054439
C9    C     C_R   0.275753 0.021094 0.385045 -0.182553
C10   C     C_R   0.228023 0.834445 0.469850 -0.046919
C11   C     C_R   0.815051 0.085559 0.564872 -0.169398
C12   C     C_R   0.999376 0.499621 0.659891 0.820118
C13   C     C_R   0.736164 0.970875 0.582344 -0.141065
C14   C     C_R   0.612934 0.933074 0.551983 -0.175155
C15   C     C_R   0.566319 0.009474 0.500061 0.081310
C16   C     C_R   0.649861 0.123648 0.474060 0.080306
C17   C     C_R   0.439792 0.976048 0.472237 0.074021
C18   C     C_R   0.400282 0.053041 0.412965 0.160956
C19   C     C_R   0.485570 0.159902 0.380421 -0.230219
C20   C     C_R   0.608556 0.194024 0.409300 -0.184810
C21   C     C_R   0.350903 0.868456 0.501970 -0.247431
C22   C     C_R   0.189937 0.911873 0.412913 -0.188357
C23   C     C_R   0.145074 0.713357 0.487468 0.788631
C24   C     C_R   0.772853 0.163587 0.512803 -0.107170
C25   C     C_R   0.346105 0.327438 0.636539 -0.371246
C26   C     C_R   0.760404 0.646131 0.383959 0.082640
C27   C     C_R   0.664488 0.678418 0.358801 -0.250478
C28   C     C_R   0.560719 0.623405 0.402397 -0.192369
C29   C     C_R   0.551728 0.534925 0.472214 0.015620
C30   C     C_R   0.652851 0.505172 0.495883 0.276694
C31   C     C_R   0.447059 0.475279 0.519624 -0.031940
C32   C     C_R   0.446176 0.387578 0.588950 0.101388
C33   C     C_R   0.545382 0.360135 0.610943 -0.225369
C34   C     C_R   0.000419 0.500029 0.340114 0.807000
C35   C     C_R   0.646629 0.418172 0.565972 -0.168512
C36   C     C_R   0.342287 0.497960 0.501414 -0.078652
C37   C     C_R   0.246639 0.355709 0.617273 0.689960
C38   C     C_3   0.956631 0.391897 0.040111 0.522354
C39   C     C_3   0.886383 0.441406 0.965883 0.569426
C40   C     C_1   0.998595 0.499484 0.749460 -0.168381
C41   C     C_1   0.000998 0.499676 0.250554 -0.167350
C42   C     C_3   0.069834 0.451302 0.991107 0.401727
Cu1   Cu    Cu3+1 0.098270 0.475420 0.519690 0.981176
Cu2   Cu    Cu3+1 0.901730 0.524580 0.480310 0.933476
H1    H     H_    0.374620 0.808175 0.549616 0.148942
H2    H     H_    0.908912 0.113635 0.594060 0.189804
H3    H     H_    0.557448 0.843000 0.568792 0.131823
H4    H     H_    0.770052 0.911299 0.622027 0.150823
H5    H     H_    0.670609 0.275182 0.378141 0.179936
H6    H     H_    0.545369 0.293396 0.664259 0.169711
H7    H     H_    0.345071 0.258399 0.687863 0.156374
H8    H     H_    0.334702 0.562451 0.449380 0.147257
H9    H     H_    0.840638 0.689420 0.349807 0.128602
H10   H     H_    0.489337 0.651951 0.380263 0.139870
H11   H     H_    0.670624 0.746363 0.305348 0.156240
H12   H     H_    0.718382 0.392011 0.589103 0.208087
H13   H     H_    0.870128 0.589417 0.018218 0.179341
H14   H     H_    0.078612 0.697758 0.924768 0.183353
H15   H     H_    0.210299 0.608893 0.064234 0.168253
H16   H     H_    0.094935 0.886515 0.387230 0.151901
H17   H     H_    0.457154 0.217504 0.332200 0.148478
H18   H     H_    0.245192 0.079481 0.339678 0.139837
N1    N     N_R   0.246280 0.438200 0.549540 -0.215275
N2    N     N_R   0.754330 0.561180 0.450980 -0.209212
O1    O     O_R   0.972510 0.318130 0.524770 -0.530829
O2    O     O_R   0.806530 0.359650 0.491510 -0.613367
O3    O     O_R   0.082970 0.479240 0.637550 -0.540072
O4    O     O_R   0.916990 0.520750 0.604290 -0.592984
O5    O     O_R   0.193470 0.640350 0.508490 -0.592644
O6    O     O_R   0.027490 0.681870 0.475230 -0.588091
O7    O     O_R   0.083010 0.479250 0.395710 -0.578234
O8    O     O_R   0.917030 0.520760 0.362450 -0.587290
F1    F     F_    0.768814 0.380474 0.929438 -0.631870
O9    O     O_3   0.144049 0.295151 0.660899 -0.575534
C43   C     C_3   0.175698 0.300863 0.750812 -0.280337
H19   H     H_    0.091481 0.276591 0.780510 0.209853
H20   H     H_    0.239848 0.389031 0.764711 0.170059
H21   H     H_    0.214190 0.238657 0.782363 0.156017
F2    F     F_    0.911299 0.280521 0.082194 -0.639078
O10   O     O_3   0.140256 0.398848 0.975240 -0.565643
C44   C     C_3   0.205357 0.373614 0.053691 -0.256163
H22   H     H_    0.143411 0.317567 0.103547 0.197670
H23   H     H_    0.274774 0.453350 0.078821 0.147244
H24   H     H_    0.254623 0.326578 0.041036 0.186236

loop_
_geom_bond_atom_site_label_1
_geom_bond_atom_site_label_2
_ccdc_geom_bond_type
C37   O9    S    
C3    C42   S    
C42   O10   S    
C30   N2    A    
C23   O5    A    
Cu2   O2    S    
C19   C20   A    
C6    H13   S    
C4    C8    S    
C44   H22   S    
Cu1   N1    S    
Cu2   N2    S    
C12   O4    A    
C26   C27   A    
C20   H5    S    
C5    H14   S    
C28   C29   A    
C19   H17   S    
C38   C42   S    
C22   H16   S    
C5    C6    S    
C27   H11   S    
C9    C22   A    
C38   F2    S    
C15   C16   A    
C11   C24   A    
C18   C19   A    
C26   N2    A    
C43   H19   S    
C37   N1    A    
C2    C39   S    
C2    C7    S    
C1    O1    A    
C7    C40   T    
Cu2   O6    S    
C36   N1    A    
C36   H8    S    
Cu1   O1    S    
C25   C37   A    
C25   C32   A    
C16   C24   A    
C13   C14   A    
C23   O6    A    
C34   C41   S    
C44   H23   S    
C1    O2    A    
C21   H1    S    
C10   C21   A    
C12   O3    A    
O9    C43   S    
C9    H18   S    
C8    C41   T    
C4    C6    S    
C28   H10   S    
C33   H6    S    
C10   C22   A    
C17   C21   A    
C12   C40   S    
Cu1   Cu2   S    
C25   H7    S    
C29   C30   A    
C31   C32   A    
C14   C15   A    
C16   C20   A    
C17   C18   A    
C43   H20   S    
C30   C35   A    
C4    C38   S    
Cu2   O4    S    
C2    C5    S    
C3    C4    S    
C26   H9    S    
C34   O8    A    
C44   H24   S    
C15   C17   A    
Cu1   O7    S    
C35   H12   S    
C6    C39   S    
O10   C44   S    
C3    C5    S    
C13   H4    S    
C14   H3    S    
C10   C23   S    
C32   C33   A    
C29   C31   A    
C11   C13   A    
C38   C39   S    
C2    C42   S    
C33   C35   A    
Cu2   O8    S    
C39   F1    S    
C43   H21   S    
C9    C18   A    
C1    C24   S    
Cu1   O3    S    
C27   C28   A    
C31   C36   A    
C11   H2    S    
Cu1   O5    S    
C34   O7    A    
C3    H15   S    
