data_mof_unit_24284.cif
_audit_creation_date              2012-12-10T16:57:08-0500
_audit_creation_method            fapswitch 2.2
_symmetry_space_group_name_H-M    P1
_symmetry_Int_Tables_number       1
_space_group_crystal_system       triclinic
_cell_length_a                    7.745034
_cell_length_b                    8.494425
_cell_length_c                    16.569582
_cell_angle_alpha                 91.600086
_cell_angle_beta                  80.704842
_cell_angle_gamma                 93.795127
_cell_volume                      1073.26907699

loop_
_atom_site_label
_atom_site_type_symbol
_atom_type_description
_atom_site_fract_x
_atom_site_fract_y
_atom_site_fract_z
_atom_type_partial_charge
C1    C     C_R   0.543963 0.793921 0.510022 0.960856
C2    C     C_R   0.374348 0.457288 0.223662 -0.213545
C3    C     C_R   0.551257 0.267691 0.834484 -0.161476
C4    C     C_R   0.373468 0.401285 0.144334 -0.145981
C5    C     C_R   0.401283 0.297209 0.891019 0.203894
C6    C     C_R   0.526201 0.343589 0.098697 0.208224
C7    C     C_R   0.272384 0.387776 0.868775 -0.173834
C8    C     C_R   0.680822 0.348663 0.132426 -0.183450
C9    C     C_R   0.298546 0.456999 0.792286 -0.199412
C10   C     C_R   0.681915 0.405298 0.211732 -0.194417
C11   C     C_2   0.393069 0.262791 0.977455 -0.242179
C12   C     C_R   0.452913 0.206871 0.513765 0.956345
C13   C     C_2   0.535572 0.298624 0.012295 -0.226598
C14   C     C_3   0.746276 0.016504 0.550617 -0.874304
C15   C     C_3   0.237306 0.989338 0.574085 -0.880839
C16   C     C_2   0.564993 0.956343 0.535136 -0.040234
C17   C     C_2   0.425003 0.047171 0.541524 -0.028746
C18   C     C_R   0.476004 0.493214 0.654553 0.825872
C19   C     C_R   0.521782 0.493682 0.345133 0.878110
C20   C     C_R   0.454228 0.436220 0.737849 -0.020633
C21   C     C_R   0.527865 0.457854 0.258225 -0.041941
C22   C     C_R   0.578826 0.338789 0.758927 -0.210105
H1    H     H_    0.696633 0.315326 0.716626 0.153321
H2    H     H_    0.650311 0.194803 0.849988 0.130448
H3    H     H_    0.022788 0.379421 0.439458 0.190999
H4    H     H_    0.977229 0.620598 0.560543 0.188067
H5    H     H_    0.805869 0.925553 0.582330 0.226765
H6    H     H_    0.833042 0.043486 0.491833 0.254060
H7    H     H_    0.740122 0.121624 0.592111 0.253148
H8    H     H_    0.168168 0.083758 0.611392 0.238187
H9    H     H_    0.165509 0.956556 0.522616 0.254794
H10   H     H_    0.232467 0.888516 0.615838 0.250869
H11   H     H_    0.254132 0.498022 0.258215 0.154808
H12   H     H_    0.802194 0.404147 0.237144 0.153730
H13   H     H_    0.198504 0.527905 0.776061 0.149892
H14   H     H_    0.663061 0.318856 0.974439 0.147176
H15   H     H_    0.264671 0.243333 0.014322 0.142863
H16   H     H_    0.156191 0.411805 0.912110 0.121985
H17   H     H_    0.800952 0.308858 0.097267 0.119802
H18   H     H_    0.254095 0.407467 0.118922 0.120715
N1    N     N_2   0.953500 0.457650 0.478520 -0.172913
N2    N     N_2   0.046500 0.542350 0.521480 -0.172627
O1    O     O_R   0.388470 0.738640 0.505270 -0.613604
O2    O     O_R   0.611530 0.261360 0.494730 -0.618866
O3    O     O_R   0.679650 0.711510 0.491500 -0.613519
O4    O     O_R   0.320350 0.288490 0.508500 -0.618253
O5    O     O_R   0.337210 0.515200 0.623500 -0.625274
O6    O     O_R   0.662790 0.484800 0.376500 -0.612087
O7    O     O_R   0.628380 0.488060 0.609730 -0.635824
O8    O     O_R   0.371620 0.511940 0.390270 -0.616758
Zn1   Zn    Zn3+2 0.305580 0.518120 0.509190 0.927250
Zn2   Zn    Zn3+2 0.694420 0.481880 0.490810 0.925234

loop_
_geom_bond_atom_site_label_1
_geom_bond_atom_site_label_2
_ccdc_geom_bond_type
C12   C17   S    
C2    C4    A    
C15   H9    S    
C8    H17   S    
C14   H5    S    
C5    C7    A    
N1    N2    D    
N1    Zn2   S    
N2    Zn1   S    
O7    Zn2   S    
C1    O3    A    
C18   O5    A    
O2    Zn2   S    
C2    C21   A    
O8    Zn1   S    
C15   H10   S    
C10   H12   S    
C1    C16   S    
C6    C13   S    
C11   C13   D    
C19   O8    A    
O1    Zn1   S    
C3    H2    S    
C15   H8    S    
C2    H11   S    
C4    C6    A    
C19   C21   S    
C7    H16   S    
C20   C22   A    
C5    C11   S    
C18   C20   S    
C22   H1    S    
C10   C21   A    
C14   C16   S    
C14   H7    S    
C9    H13   S    
C7    C9    A    
O6    Zn2   S    
H4    N2    S    
C13   H14   S    
C8    C10   A    
H3    N1    S    
C11   H15   S    
C19   O6    A    
C12   O2    A    
C3    C22   A    
C6    C8    A    
C9    C20   A    
O3    Zn2   S    
C14   H6    S    
C15   C17   S    
O4    Zn1   S    
C1    O1    A    
O5    Zn1   S    
C4    H18   S    
C18   O7    A    
C16   C17   D    
C3    C5    A    
C12   O4    A    
