data_mof_unit_66351.cif
_audit_creation_date              2012-12-10T17:28:59-0500
_audit_creation_method            fapswitch 2.2
_symmetry_space_group_name_H-M    P1
_symmetry_Int_Tables_number       1
_space_group_crystal_system       triclinic
_cell_length_a                    18.612076
_cell_length_b                    18.64998
_cell_length_c                    18.701754
_cell_angle_alpha                 109.573449
_cell_angle_beta                  109.444665
_cell_angle_gamma                 109.335421
_cell_volume                      5000.96801289

loop_
_atom_site_label
_atom_site_type_symbol
_atom_type_description
_atom_site_fract_x
_atom_site_fract_y
_atom_site_fract_z
_atom_type_partial_charge
C1    C     C_R   0.622194 0.502021 0.619902 0.748816
C2    C     C_R   0.377805 0.497978 0.380098 0.748809
C3    C     C_3   0.298031 0.218169 0.447756 -0.352494
C4    C     C_3   0.701949 0.781828 0.552223 -0.352499
C5    C     C_3   0.312168 0.310870 0.501440 0.167503
C6    C     C_3   0.687829 0.689130 0.498558 0.167499
C7    C     C_3   0.189369 0.190720 0.501982 0.167247
C8    C     C_3   0.810629 0.809282 0.498019 0.167346
C9    C     C_3   0.151582 0.237832 0.458945 -0.353556
C10   C     C_3   0.848422 0.762187 0.541080 -0.353554
C11   C     C_3   0.227273 0.148004 0.449885 -0.401149
C12   C     C_3   0.772706 0.851993 0.550092 -0.401132
C13   C     C_3   0.747880 0.592564 0.774935 -0.368329
C14   C     C_3   0.252109 0.407430 0.225070 -0.368343
C15   C     C_3   0.820022 0.591778 0.844994 -0.397344
C16   C     C_3   0.179967 0.408217 0.155010 -0.397276
C17   C     C_3   0.647555 0.431339 0.708220 -0.444045
C18   C     C_3   0.352444 0.568650 0.291770 -0.444030
C19   C     C_3   0.755009 0.480548 0.657066 0.029553
C20   C     C_3   0.244998 0.519466 0.342939 0.029567
C21   C     C_3   0.692482 0.502539 0.688415 0.111213
C22   C     C_3   0.307516 0.497460 0.311586 0.111216
C23   C     C_R   0.381044 0.379819 0.501086 0.748940
C24   C     C_R   0.618953 0.620181 0.498912 0.748947
C25   C     C_3   0.811181 0.499534 0.810254 0.131668
C26   C     C_3   0.188819 0.500466 0.189745 0.131591
C27   C     C_3   0.717020 0.430926 0.781197 -0.363739
C28   C     C_3   0.282980 0.569063 0.218793 -0.363752
C29   C     C_3   0.823646 0.477267 0.729238 -0.386482
C30   C     C_3   0.176361 0.522747 0.270767 -0.386557
C31   C     C_3   0.001538 0.310788 0.812513 0.168206
C32   C     C_3   0.998383 0.689202 0.187412 0.168253
C33   C     C_R   0.998817 0.119038 0.619937 0.754647
C34   C     C_R   0.001077 0.880851 0.380063 0.754635
C35   C     C_R   0.120076 0.121708 0.501691 0.754474
C36   C     C_R   0.879924 0.878293 0.498310 0.754189
C37   C     C_R   0.998207 0.620066 0.118280 0.754042
C38   C     C_R   0.001715 0.379935 0.881635 0.754072
C39   C     C_R   0.879798 0.499614 0.879697 0.765077
C40   C     C_R   0.120202 0.500385 0.120303 0.765286
C41   C     C_3   0.921120 0.203541 0.649795 -0.354565
C42   C     C_3   0.077675 0.795029 0.350365 -0.354184
C43   C     C_3   0.990757 0.161064 0.757195 -0.382779
C44   C     C_3   0.010988 0.839740 0.243872 -0.383670
C45   C     C_3   0.086962 0.347979 0.807698 -0.358233
C46   C     C_3   0.912088 0.652426 0.190863 -0.359003
C47   C     C_3   0.994448 0.234177 0.830941 -0.376723
C48   C     C_3   0.007467 0.766780 0.170140 -0.375739
C49   C     C_3   0.921756 0.274318 0.722767 -0.400778
C50   C     C_3   0.077013 0.724223 0.277396 -0.401086
C51   C     C_3   0.998815 0.188033 0.689031 0.167930
C52   C     C_3   0.001069 0.811854 0.310961 0.167866
C53   C     C_3   0.086068 0.275223 0.736424 -0.398603
C54   C     C_3   0.913053 0.725112 0.262285 -0.397954
C55   C     C_3   0.338429 0.330328 0.596586 -0.380583
C56   C     C_3   0.661580 0.669661 0.403410 -0.380586
C57   C     C_3   0.265214 0.260828 0.597089 -0.377466
C58   C     C_3   0.734799 0.739160 0.402909 -0.377448
C59   C     C_3   0.224285 0.309679 0.460590 -0.406515
C60   C     C_3   0.775718 0.690336 0.539429 -0.406539
Cu1   Cu    Cu3+1 0.499950 0.562450 0.562440 0.903552
Cu2   Cu    Cu3+1 0.500050 0.437550 0.437560 0.903554
Cu3   Cu    Cu3+1 0.062480 0.999960 0.562430 0.902328
Cu4   Cu    Cu3+1 0.937520 0.000040 0.437570 0.902344
Cu5   Cu    Cu3+1 0.062470 0.562430 0.999950 0.901924
Cu6   Cu    Cu3+1 0.937530 0.437570 0.000050 0.901940
H1    H     H_    0.145528 0.376194 0.872180 0.150914
H2    H     H_    0.854323 0.625313 0.126182 0.150195
H3    H     H_    0.277078 0.201316 0.378473 0.169222
H4    H     H_    0.722897 0.798691 0.621507 0.169222
H5    H     H_    0.360764 0.217590 0.475051 0.156375
H6    H     H_    0.639212 0.782395 0.524914 0.156361
H7    H     H_    0.256617 0.115493 0.480587 0.162216
H8    H     H_    0.743355 0.884487 0.519370 0.162199
H9    H     H_    0.173836 0.096446 0.381735 0.145213
H10   H     H_    0.826133 0.903564 0.618241 0.145151
H11   H     H_    0.204717 0.297029 0.392597 0.141968
H12   H     H_    0.795276 0.702992 0.607422 0.141974
H13   H     H_    0.098464 0.189782 0.389762 0.173903
H14   H     H_    0.901527 0.810248 0.610266 0.173896
H15   H     H_    0.704942 0.606469 0.800342 0.181486
H16   H     H_    0.295040 0.393513 0.199659 0.181490
H17   H     H_    0.777964 0.646684 0.763211 0.144126
H18   H     H_    0.222023 0.353317 0.236802 0.144124
H19   H     H_    0.885630 0.641709 0.862704 0.171194
H20   H     H_    0.114360 0.358293 0.137307 0.171211
H21   H     H_    0.814772 0.610621 0.905406 0.143078
H22   H     H_    0.185213 0.389364 0.094595 0.143074
H23   H     H_    0.142836 0.266686 0.767040 0.167151
H24   H     H_    0.857041 0.734594 0.231594 0.167697
H25   H     H_    0.601266 0.443810 0.728904 0.165164
H26   H     H_    0.398728 0.556168 0.271081 0.165170
H27   H     H_    0.705786 0.446183 0.838034 0.172423
H28   H     H_    0.294207 0.553795 0.161952 0.172427
H29   H     H_    0.714069 0.413656 0.598097 0.161300
H30   H     H_    0.285945 0.586360 0.401905 0.161304
H31   H     H_    0.891872 0.523812 0.749559 0.183058
H32   H     H_    0.108135 0.476210 0.250452 0.183053
H33   H     H_    0.816122 0.410517 0.702663 0.123132
H34   H     H_    0.183892 0.589501 0.297337 0.123230
H35   H     H_    0.608229 0.365506 0.648082 0.154748
H36   H     H_    0.391778 0.634486 0.351905 0.154737
H37   H     H_    0.709284 0.364084 0.756833 0.164895
H38   H     H_    0.290723 0.635908 0.243153 0.164891
H39   H     H_    0.859546 0.245472 0.723781 0.161851
H40   H     H_    0.139831 0.752643 0.277309 0.161058
H41   H     H_    0.857491 0.141314 0.614047 0.156967
H42   H     H_    0.141822 0.856856 0.386910 0.157716
H43   H     H_    0.094059 0.295142 0.688471 0.141930
H44   H     H_    0.903780 0.704529 0.309456 0.141546
H45   H     H_    0.926165 0.224990 0.601978 0.169843
H46   H     H_    0.071324 0.773032 0.397508 0.169234
H47   H     H_    0.924656 0.328354 0.708654 0.147103
H48   H     H_    0.072622 0.669504 0.290760 0.147857
H49   H     H_    0.092989 0.401660 0.792259 0.173974
H50   H     H_    0.904545 0.598006 0.205378 0.174358
H51   H     H_    0.044990 0.148836 0.786442 0.173972
H52   H     H_    0.957516 0.852826 0.214496 0.173709
H53   H     H_    0.927772 0.098931 0.724528 0.141351
H54   H     H_    0.074488 0.901601 0.277479 0.141266
H55   H     H_    0.934254 0.205948 0.835318 0.175635
H56   H     H_    0.068399 0.794819 0.166863 0.175785
H57   H     H_    0.051936 0.258935 0.894898 0.142513
H58   H     H_    0.950878 0.743055 0.105970 0.142781
H59   H     H_    0.349718 0.396469 0.637336 0.174438
H60   H     H_    0.650300 0.603521 0.362673 0.174436
H61   H     H_    0.400995 0.330234 0.626836 0.142459
H62   H     H_    0.599013 0.669746 0.373146 0.142462
H63   H     H_    0.293783 0.229620 0.630456 0.175355
H64   H     H_    0.706228 0.770356 0.369525 0.175357
H65   H     H_    0.239448 0.293183 0.635450 0.143174
H66   H     H_    0.760578 0.706806 0.364567 0.143103
H67   H     H_    0.231816 0.374508 0.499231 0.175398
H68   H     H_    0.768199 0.625511 0.500799 0.175396
H69   H     H_    0.122353 0.267748 0.494365 0.152014
H70   H     H_    0.877669 0.732278 0.505680 0.152014
O1    O     O_R   0.591120 0.552750 0.643890 -0.589373
O2    O     O_R   0.408880 0.447250 0.356110 -0.589372
O3    O     O_R   0.947240 0.538460 0.091150 -0.594251
O4    O     O_R   0.052760 0.461540 0.908850 -0.594326
O5    O     O_R   0.961590 0.552710 0.908800 -0.593895
O6    O     O_R   0.038410 0.447290 0.091200 -0.593841
O7    O     O_R   0.856080 0.447270 0.908890 -0.593973
O8    O     O_R   0.143920 0.552730 0.091110 -0.593922
O9    O     O_R   0.591210 0.447270 0.538420 -0.595008
O10   O     O_R   0.408790 0.552730 0.461580 -0.595010
O11   O     O_R   0.408810 0.461590 0.552740 -0.591654
O12   O     O_R   0.591190 0.538410 0.447260 -0.591654
O13   O     O_R   0.408900 0.356100 0.447280 -0.594171
O14   O     O_R   0.591100 0.643900 0.552720 -0.594171
O15   O     O_R   0.052750 0.091090 0.643890 -0.592609
O16   O     O_R   0.947250 0.908910 0.356110 -0.592564
O17   O     O_R   0.947230 0.091150 0.538450 -0.594429
O18   O     O_R   0.052770 0.908850 0.461550 -0.594476
O19   O     O_R   0.143910 0.091120 0.552710 -0.592757
O20   O     O_R   0.856090 0.908880 0.447290 -0.592837
O21   O     O_R   0.038380 0.091180 0.447270 -0.594115
O22   O     O_R   0.961620 0.908820 0.552730 -0.594193
O23   O     O_R   0.052740 0.643910 0.091070 -0.593099
O24   O     O_R   0.947260 0.356090 0.908930 -0.593044
C61   C     C_3   0.800436 0.544866 0.630448 -0.409257
C62   C     C_3   0.839586 0.508910 0.577039 -0.874571
H71   H     H_    0.890573 0.497883 0.615347 0.250172
H72   H     H_    0.787231 0.446118 0.515902 0.250520
H73   H     H_    0.870493 0.556827 0.559027 0.241191
H74   H     H_    0.752166 0.556605 0.589534 0.203169
H75   H     H_    0.853236 0.609354 0.689378 0.204873
C63   C     C_3   0.199569 0.455158 0.369566 -0.409248
C64   C     C_3   0.160435 0.491132 0.422984 -0.874550
H76   H     H_    0.212799 0.553919 0.484121 0.250522
H77   H     H_    0.109457 0.502174 0.384683 0.250167
H78   H     H_    0.129518 0.443218 0.440995 0.241192
H79   H     H_    0.146761 0.390672 0.310640 0.204872
H80   H     H_    0.247835 0.443414 0.410477 0.203169

loop_
_geom_bond_atom_site_label_1
_geom_bond_atom_site_label_2
_ccdc_geom_bond_type
C49   H47   S    
C1    C21   S    
Cu2   O13   S    
C12   H8    S    
C32   C48   S    
C64   H76   S    
C1    O9    A    
C17   H25   S    
C14   H18   S    
Cu5   O23   S    
C26   C40   S    
C59   H11   S    
C4    H4    S    
C61   C62   S    
C39   O7    A    
C1    O1    A    
C20   C30   S    
C63   H80   S    
C60   H12   S    
C50   H48   S    
Cu4   O16   S    
C18   H36   S    
C57   H63   S    
C3    H3    S    
C35   O19   A    
C54   H24   S    
C40   O6    A    
C19   C61   S    
C29   H33   S    
C33   O17   A    
C47   H55   S    
C44   H54   S    
C13   H15   S    
C54   H44   S    
C28   H28   S    
C9    H13   S    
C41   C49   S    
C17   H35   S    
C42   H46   S    
C34   C52   S    
C8    C58   S    
C43   C51   S    
Cu5   O4    S    
C55   H59   S    
Cu6   O3    S    
C39   O5    A    
C58   H66   S    
Cu2   O9    S    
Cu4   O21   S    
C2    C22   S    
C56   H60   S    
C4    C12   S    
C43   C47   S    
Cu1   O14   S    
C30   H34   S    
C61   H74   S    
C36   O22   A    
C15   H19   S    
C40   O8    A    
C44   C52   S    
C23   O13   A    
C45   C53   S    
Cu2   O12   S    
C16   H20   S    
C64   H77   S    
C32   C46   S    
C31   C49   S    
Cu6   O24   S    
C52   C54   S    
C62   H72   S    
C34   O18   A    
C55   H61   S    
C25   C29   S    
C63   H79   S    
C20   C63   S    
C48   H56   S    
C16   H22   S    
C5    C59   S    
C2    O2    A    
C6    C60   S    
C18   C28   S    
C4    C6    S    
C24   O12   A    
C41   H45   S    
Cu5   O8    S    
C10   H14   S    
C49   H39   S    
Cu6   O7    S    
C23   O11   A    
Cu4   O17   S    
C59   H67   S    
C17   C21   S    
C33   C51   S    
C9    C59   S    
C17   C27   S    
C7    C11   S    
Cu1   O10   S    
C35   O21   A    
C46   H2    S    
C62   H73   S    
Cu5   O5    S    
C28   H38   S    
C47   H57   S    
C5    C23   S    
C44   H52   S    
C8    C12   S    
C6    C24   S    
C46   C54   S    
C13   C21   S    
C32   C37   S    
Cu2   O2    S    
Cu3   O15   S    
C61   H75   S    
C24   O14   A    
C29   H31   S    
C42   C50   S    
C9    H69   S    
C63   C64   S    
C41   C51   S    
C20   C22   S    
C26   C30   S    
C55   C57   S    
C12   H10   S    
C33   O15   A    
C14   C22   S    
C64   H78   S    
C14   C16   S    
C45   H1    S    
C27   H27   S    
C2    O10   A    
C14   H16   S    
C19   C29   S    
C60   H68   S    
C4    H6    S    
C19   H29   S    
C36   O20   A    
C15   H21   S    
C62   H71   S    
C53   H43   S    
C7    C9    S    
C13   H17   S    
C10   C60   S    
C34   O16   A    
C41   H41   S    
C19   C21   S    
C18   C22   S    
C7    C35   S    
C5    C55   S    
C57   H65   S    
Cu3   O18   S    
C6    C56   S    
C45   H49   S    
C3    C5    S    
C16   C26   S    
C48   H58   S    
C8    C36   S    
C3    H5    S    
Cu6   O6    S    
C10   H70   S    
C25   C27   S    
C30   H32   S    
C26   C28   S    
C31   C38   S    
C46   H50   S    
C18   H26   S    
C37   O23   A    
C13   C15   S    
Cu1   O11   S    
C38   O24   A    
Cu5   Cu6   S    
C11   H9    S    
C25   C39   S    
C53   H23   S    
Cu1   O1    S    
C42   H42   S    
C58   H64   S    
C27   H37   S    
C56   C58   S    
Cu4   O20   S    
C32   C50   S    
C56   H62   S    
C20   H30   S    
Cu1   Cu2   S    
C11   H7    S    
C3    C11   S    
Cu3   O19   S    
Cu3   Cu4   S    
C15   C25   S    
C8    C10   S    
C43   H51   S    
C31   C45   S    
C42   C52   S    
C50   H40   S    
C38   O4    A    
C31   C47   S    
Cu3   O22   S    
C51   C53   S    
C37   O3    A    
C7    C57   S    
C44   C48   S    
C43   H53   S    
