data_mof_unit_57058.cif
_audit_creation_date              2012-12-10T18:59:11-0500
_audit_creation_method            fapswitch 2.2
_symmetry_space_group_name_H-M    P1
_symmetry_Int_Tables_number       1
_space_group_crystal_system       triclinic
_cell_length_a                    9.831148
_cell_length_b                    10.717676
_cell_length_c                    17.014536
_cell_angle_alpha                 89.412926
_cell_angle_beta                  93.104284
_cell_angle_gamma                 90.012993
_cell_volume                      1790.04688053

loop_
_atom_site_label
_atom_site_type_symbol
_atom_type_description
_atom_site_fract_x
_atom_site_fract_y
_atom_site_fract_z
_atom_type_partial_charge
C1    C     C_R   0.499945 0.259850 0.500067 0.870002
C2    C     C_R   0.500055 0.740150 0.499932 0.870048
C3    C     C_R   0.377338 0.936299 0.484683 -0.195781
C4    C     C_R   0.622662 0.063701 0.515316 -0.195779
C5    C     C_R   0.500052 0.872580 0.499914 -0.012981
C6    C     C_R   0.499948 0.127420 0.500085 -0.012940
C7    C     C_R   0.067090 0.573231 0.448006 -0.078837
C8    C     C_R   0.932909 0.426769 0.551994 -0.078816
C9    C     C_R   0.923128 0.573195 0.448028 -0.078836
C10   C     C_R   0.076871 0.426805 0.551972 -0.078834
C11   C     C_R   0.516293 0.498317 0.652863 0.883205
C12   C     C_R   0.483704 0.501586 0.347138 0.883156
C13   C     C_R   0.525045 0.498753 0.738024 -0.064439
C14   C     C_R   0.474919 0.500462 0.261983 -0.064430
C15   C     C_R   0.409261 0.523335 0.779052 -0.240745
C16   C     C_R   0.590624 0.475281 0.221019 -0.240750
C17   C     C_R   0.418864 0.526278 0.860111 -0.190685
C18   C     C_R   0.580908 0.471411 0.139980 -0.190695
C19   C     C_R   0.544707 0.503072 0.901563 0.278220
C20   C     C_R   0.455041 0.494309 0.098483 0.278184
C21   C     C_R   0.662756 0.480021 0.860479 0.097217
C22   C     C_R   0.337044 0.517834 0.139512 0.097277
C23   C     C_R   0.650681 0.477119 0.778299 -0.226963
C24   C     C_R   0.349235 0.521675 0.221668 -0.226922
C25   C     C_R   0.377281 0.064116 0.484790 -0.194943
C26   C     C_R   0.622719 0.935884 0.515209 -0.194962
H1    H     H_    0.688373 0.457214 0.251505 0.169348
H2    H     H_    0.311530 0.541639 0.748606 0.169322
H3    H     H_    0.672086 0.449803 0.109876 0.156254
H4    H     H_    0.327634 0.547516 0.890262 0.156231
H5    H     H_    0.738265 0.458190 0.744693 0.154100
H6    H     H_    0.261701 0.541018 0.255228 0.154087
H7    H     H_    0.281889 0.112962 0.472445 0.157615
H8    H     H_    0.718111 0.887038 0.527554 0.157619
H9    H     H_    0.281981 0.887789 0.472254 0.153735
H10   H     H_    0.718019 0.112211 0.527746 0.153731
H11   H     H_    0.117801 0.631761 0.406468 0.119378
H12   H     H_    0.882199 0.368238 0.593532 0.119341
H13   H     H_    0.864591 0.631694 0.406511 0.126822
H14   H     H_    0.135409 0.368306 0.593489 0.126809
N1    N     N_2   0.555668 0.502636 0.984564 -0.211492
N2    N     N_2   0.444090 0.494415 0.015484 -0.211529
N3    N     N_R   0.857210 0.499970 0.500020 -0.078681
N4    N     N_R   0.142790 0.500030 0.499980 -0.078680
O1    O     O_R   0.614620 0.316750 0.500010 -0.626744
O2    O     O_R   0.385380 0.683250 0.499990 -0.626708
O3    O     O_R   0.385290 0.316780 0.500000 -0.626015
O4    O     O_R   0.614710 0.683220 0.500000 -0.625994
O5    O     O_R   0.627460 0.498830 0.616130 -0.628730
O6    O     O_R   0.372540 0.501170 0.383870 -0.628732
O7    O     O_R   0.398130 0.498850 0.616130 -0.622939
O8    O     O_R   0.601870 0.501150 0.383870 -0.622948
Zn1   Zn    Zn3+2 0.653130 0.499980 0.500000 0.944711
Zn2   Zn    Zn3+2 0.346870 0.500020 0.500000 0.944724
C27   C     C_3   0.798866 0.460935 0.905945 -0.420108
C28   C     C_3   0.919208 0.426274 0.856143 -0.360346
C29   C     C_3   0.050284 0.409745 0.907069 -0.900123
H15   H     H_    0.080073 0.500129 0.934139 0.263028
H16   H     H_    0.036614 0.338446 0.953816 0.265270
H17   H     H_    0.133231 0.378796 0.869995 0.255295
H18   H     H_    0.896597 0.337485 0.824824 0.224066
H19   H     H_    0.936684 0.501561 0.812394 0.222236
H20   H     H_    0.823984 0.549055 0.937219 0.212153
H21   H     H_    0.786709 0.385722 0.950537 0.206786
C30   C     C_3   0.200895 0.536552 0.094021 -0.420160
C31   C     C_3   0.080546 0.571414 0.143766 -0.360262
C32   C     C_3   0.949397 0.587437 0.092846 -0.900274
H22   H     H_    0.962886 0.658516 0.045945 0.265248
H23   H     H_    0.919779 0.496853 0.065982 0.263061
H24   H     H_    0.866419 0.618458 0.129873 0.255332
H25   H     H_    0.063259 0.496411 0.187738 0.222324
H26   H     H_    0.103026 0.660460 0.174820 0.224021
H27   H     H_    0.212954 0.611511 0.049250 0.206716
H28   H     H_    0.175841 0.448225 0.062958 0.212130

loop_
_geom_bond_atom_site_label_1
_geom_bond_atom_site_label_2
_ccdc_geom_bond_type
C20   N2    S    
C27   C28   S    
C24   H6    S    
C22   C30   S    
C7    C9    A    
C11   O5    A    
C14   C16   A    
C20   C22   A    
N1    N2    D    
C9    H13   S    
C4    C26   A    
C31   H25   S    
C8    N3    A    
C3    H9    S    
C3    C5    A    
C32   H24   S    
C2    O4    A    
C27   H21   S    
O7    Zn2   S    
C16   H1    S    
C4    H10   S    
C31   C32   S    
C15   H2    S    
O1    Zn1   S    
N3    Zn1   S    
C18   H3    S    
C7    N4    A    
C2    O2    A    
C17   H4    S    
C11   C13   S    
C1    O1    A    
C29   H15   S    
O6    Zn2   S    
C27   H20   S    
C8    H12   S    
O3    Zn2   S    
O5    Zn1   S    
C8    C10   A    
C12   O8    A    
O2    Zn2   S    
C12   C14   S    
C22   C24   A    
C13   C15   A    
C21   C23   A    
C7    H11   S    
O4    Zn1   S    
C29   H16   S    
C28   H19   S    
C9    N3    A    
C2    C5    S    
C11   O7    A    
C28   C29   S    
C19   N1    S    
C10   N4    A    
C32   H22   S    
C6    C25   A    
C17   C19   A    
N4    Zn2   S    
C3    C25   A    
C30   H27   S    
O8    Zn1   S    
C13   C23   A    
C18   C20   A    
C21   C27   S    
C30   C31   S    
C14   C24   A    
C1    C6    S    
C15   C17   A    
C10   H14   S    
C28   H18   S    
C1    O3    A    
C29   H17   S    
C19   C21   A    
C4    C6    A    
C26   H8    S    
C16   C18   A    
C31   H26   S    
C30   H28   S    
C5    C26   A    
C25   H7    S    
C12   O6    A    
C32   H23   S    
C23   H5    S    
