data_mof_unit_47595.cif
_audit_creation_date              2012-12-11T17:44:07-0500
_audit_creation_method            fapswitch 2.2
_symmetry_space_group_name_H-M    P1
_symmetry_Int_Tables_number       1
_space_group_crystal_system       triclinic
_cell_length_a                    20.251312
_cell_length_b                    22.798639
_cell_length_c                    6.933011
_cell_angle_alpha                 90.000014
_cell_angle_beta                  86.52928
_cell_angle_gamma                 90.0
_cell_volume                      3195.11644173

loop_
_atom_site_label
_atom_site_type_symbol
_atom_type_description
_atom_site_fract_x
_atom_site_fract_y
_atom_site_fract_z
_atom_type_partial_charge
O1    O     O_R   0.751270 0.447300 0.600030 -0.519926
O2    O     O_R   0.248730 0.947300 0.399970 -0.519926
O3    O     O_R   0.613530 0.440160 0.952150 -0.538659
O4    O     O_R   0.386470 0.940160 0.047850 -0.538660
O5    O     O_R   0.613050 0.552700 0.122560 -0.550577
O6    O     O_R   0.386950 0.052700 0.877440 -0.550577
C1    C     C_R   0.592209 0.424867 0.787211 0.774698
C2    C     C_R   0.407791 0.924867 0.212789 0.774697
O7    O     O_R   0.750780 0.440350 0.929820 -0.505000
O8    O     O_R   0.249220 0.940350 0.070180 -0.505000
O9    O     O_R   0.751280 0.552900 0.100070 -0.548320
O10   O     O_R   0.248720 0.052900 0.899930 -0.548321
C3    C     C_R   0.774150 0.426248 0.758170 0.868114
C4    C     C_R   0.225849 0.926248 0.241830 0.868113
O11   O     O_R   0.613040 0.447100 0.622520 -0.527508
O12   O     O_R   0.386960 0.947100 0.377480 -0.527508
O13   O     O_3   0.682160 0.536920 0.777780 -0.391209
O14   O     O_3   0.317840 0.036920 0.222220 -0.391209
V1    V     V_3+5 0.682160 0.493150 0.052630 1.557081
V2    V     V_3+5 0.317840 0.993150 0.947370 1.557081
O15   O     O_R   0.750790 0.559840 0.429870 -0.539037
O16   O     O_R   0.249210 0.059840 0.570130 -0.539037
C5    C     C_R   0.773910 0.574015 0.257688 0.705397
C6    C     C_R   0.226090 0.074015 0.742312 0.705397
O17   O     O_R   0.613540 0.559650 0.452200 -0.547327
O18   O     O_R   0.386460 0.059650 0.547800 -0.547327
C7    C     C_R   0.591219 0.574104 0.288649 0.675027
C8    C     C_R   0.408781 0.074104 0.711351 0.675028
V3    V     V_3+5 0.682160 0.506850 0.552630 1.540269
V4    V     V_3+5 0.317840 0.006850 0.447370 1.540270
O19   O     O_3   0.682150 0.463080 0.277610 -0.337737
O20   O     O_3   0.317850 0.963080 0.722390 -0.337737
C9    C     C_R   0.572789 0.854598 0.099628 0.475874
C10   C     C_R   0.427210 0.354599 0.900363 0.475874
H1    H     H_    0.533963 0.942160 0.116336 0.158266
H2    H     H_    0.466036 0.442160 0.883656 0.158267
C11   C     C_R   0.460031 0.879461 0.209340 -0.177566
C12   C     C_R   0.539969 0.379461 0.790659 -0.177567
C13   C     C_R   0.484099 0.602066 0.440333 -0.138736
C14   C     C_R   0.515902 0.102066 0.559670 -0.138736
C15   C     C_R   0.442272 0.645036 0.519125 -0.090080
C16   C     C_R   0.557729 0.145035 0.480880 -0.090078
C17   C     C_R   0.449405 0.702843 0.458580 -0.102682
C18   C     C_R   0.550596 0.202842 0.541423 -0.102684
C19   C     C_R   0.494348 0.718399 0.302931 0.131394
C20   C     C_R   0.505652 0.218399 0.697069 0.131392
C21   C     C_R   0.540604 0.674965 0.232919 0.058549
C22   C     C_R   0.459396 0.174965 0.767079 0.058549
C23   C     C_R   0.498766 0.777179 0.229014 -0.024483
C24   C     C_R   0.501234 0.277179 0.770985 -0.024484
C25   C     C_R   0.557784 0.793840 0.119692 -0.059348
C26   C     C_R   0.442215 0.293841 0.880302 -0.059348
C27   C     C_R   0.599143 0.749135 0.035464 -0.017748
C28   C     C_R   0.400855 0.249136 0.964528 -0.017749
C29   C     C_R   0.591058 0.691060 0.096542 -0.257466
C30   C     C_R   0.408940 0.191060 0.903453 -0.257465
C31   C     C_R   0.446816 0.819906 0.256944 -0.087240
C32   C     C_R   0.553184 0.319906 0.743057 -0.087241
C33   C     C_R   0.523311 0.896048 0.140778 -0.229465
C34   C     C_R   0.476688 0.396049 0.859216 -0.229467
C35   C     C_R   0.535768 0.616512 0.304722 -0.097888
C36   C     C_R   0.464232 0.116512 0.695279 -0.097887
H3    H     H_    0.479902 0.558003 0.498681 0.132690
H4    H     H_    0.520099 0.058003 0.501323 0.132690
H5    H     H_    0.420824 0.735116 0.541008 0.131019
H6    H     H_    0.579177 0.235115 0.458995 0.131020
H7    H     H_    0.406176 0.633964 0.635000 0.158441
H8    H     H_    0.593825 0.133962 0.365006 0.158441
H9    H     H_    0.623646 0.657977 0.031721 0.151886
H10   H     H_    0.376352 0.157978 0.968273 0.151885
C37   C     C_R   0.166823 0.886264 0.255332 -0.288047
C38   C     C_R   0.833177 0.386264 0.744668 -0.288047
C39   C     C_R   0.161342 0.837932 0.126529 0.415836
C40   C     C_R   0.838658 0.337932 0.873471 0.415836
C41   C     C_R   0.104745 0.802465 0.140622 -0.207004
C42   C     C_R   0.895255 0.302465 0.859379 -0.207003
C43   C     C_R   0.051803 0.813327 0.276300 0.269713
C44   C     C_R   0.948197 0.313327 0.723701 0.269715
C45   C     C_R   0.054769 0.862824 0.398390 0.373283
C46   C     C_R   0.945231 0.362824 0.601611 0.373284
C47   C     C_R   0.112602 0.898595 0.390616 -0.207815
C48   C     C_R   0.887398 0.398595 0.609384 -0.207818
C49   C     C_R   0.901691 0.686711 0.400313 -0.148206
C50   C     C_R   0.098309 0.186711 0.599688 -0.148205
C51   C     C_R   0.845497 0.650103 0.404691 -0.167979
C52   C     C_R   0.154502 0.150103 0.595309 -0.167979
C53   C     C_R   0.942756 0.691149 0.226691 0.365235
C54   C     C_R   0.057244 0.191149 0.773309 0.365235
N1    N     N_2   0.994394 0.776267 0.290466 -0.156808
N2    N     N_2   0.005606 0.276267 0.709535 -0.156807
N3    N     N_2   0.000032 0.728011 0.205136 -0.280919
N4    N     N_2   0.999967 0.228011 0.794865 -0.280918
C55   C     C_R   0.830322 0.616087 0.243595 -0.038243
C56   C     C_R   0.169678 0.116087 0.756405 -0.038242
H11   H     H_    0.814570 0.646735 0.537428 0.152081
H12   H     H_    0.185429 0.146735 0.462572 0.152080
C57   C     C_R   0.872331 0.619486 0.075706 -0.189157
C58   C     C_R   0.127669 0.119486 0.924295 -0.189159
C59   C     C_R   0.928163 0.655769 0.069244 -0.070286
C60   C     C_R   0.071837 0.155769 0.930757 -0.070288
H13   H     H_    0.863114 0.592866 0.950735 0.147547
H14   H     H_    0.136886 0.092866 0.049265 0.147547
H15   H     H_    0.101376 0.766327 0.040494 0.224370
H16   H     H_    0.898623 0.266327 0.959506 0.224370
H17   H     H_    0.960704 0.656105 0.940013 0.163837
H18   H     H_    0.039296 0.156105 0.059987 0.163837
C61   C     C_2   0.917669 0.716343 0.582822 0.937810
O21   O     O_2   0.873342 0.738631 0.685237 -0.473883
O22   O     O_R   0.982269 0.718100 0.643559 -0.618306
H19   H     H_    0.014117 0.692385 0.563333 0.275050
C62   C     C_2   0.082331 0.216343 0.417179 0.937809
O23   O     O_2   0.126658 0.238631 0.314764 -0.473886
O24   O     O_R   0.017731 0.218100 0.356442 -0.618306
H20   H     H_    0.985883 0.192384 0.436668 0.275051
S1    S     S_3+6 0.985171 0.880467 0.559258 0.121461
O25   O     O_2   0.922164 0.855521 0.489691 -0.255913
O26   O     O_2   0.996776 0.855294 0.754741 -0.272967
O27   O     O_3   0.975668 0.953586 0.579040 -0.491850
H21   H     H_    0.943173 0.959253 0.690092 0.385759
S2    S     S_3+6 0.014829 0.380467 0.440744 0.121458
O28   O     O_2   0.077836 0.355522 0.510315 -0.255922
O29   O     O_2   0.003226 0.355293 0.245261 -0.272959
O30   O     O_3   0.024332 0.453586 0.420958 -0.491853
H22   H     H_    0.056838 0.459252 0.309935 0.385762
C63   C     C_2   0.114595 0.951103 0.516792 0.934806
O31   O     O_2   0.120530 0.999903 0.444525 -0.586336
O32   O     O_R   0.109019 0.944739 0.717683 -0.599096
H23   H     H_    0.110862 0.983659 0.787849 0.283888
C64   C     C_2   0.885405 0.451103 0.483208 0.934814
O33   O     O_2   0.879470 0.499903 0.555474 -0.586336
O34   O     O_R   0.890981 0.444739 0.282317 -0.599092
H24   H     H_    0.889138 0.483659 0.212150 0.283890
S3    S     S_3+6 0.221196 0.819879 0.936600 0.047368
O35   O     O_2   0.218775 0.755152 0.895992 -0.318032
O36   O     O_2   0.204340 0.852495 0.757904 -0.302471
O37   O     O_3   0.298599 0.837397 0.988358 -0.507204
H25   H     H_    0.326184 0.828772 0.868826 0.370867
S4    S     S_3+6 0.778804 0.319879 0.063401 0.047367
O38   O     O_2   0.781225 0.255152 0.104007 -0.318033
O39   O     O_2   0.795661 0.352495 0.242097 -0.302471
O40   O     O_3   0.701401 0.337398 0.011645 -0.507203
H26   H     H_    0.673817 0.328772 0.131178 0.370867
C65   C     C_2   0.643198 0.758806 0.859717 0.904723
O41   O     O_2   0.625097 0.790206 0.730022 -0.518019
O42   O     O_R   0.703686 0.729224 0.837427 -0.637778
H27   H     H_    0.728533 0.738333 0.709584 0.338280
C66   C     C_2   0.356798 0.258808 0.140271 0.904724
O43   O     O_2   0.374898 0.290209 0.269967 -0.518017
O44   O     O_R   0.296310 0.229225 0.162558 -0.637778
H28   H     H_    0.271462 0.238335 0.290399 0.338283
S5    S     S_3+6 0.654506 0.882399 0.061977 0.082941
O45   O     O_2   0.704465 0.838468 0.123429 -0.282925
O46   O     O_2   0.668116 0.897509 0.852349 -0.275958
O47   O     O_3   0.661408 0.943810 0.193792 -0.486414
H29   H     H_    0.707232 0.957678 0.163711 0.392474
S6    S     S_3+6 0.345493 0.382400 0.938004 0.082939
O48   O     O_2   0.295534 0.338469 0.876549 -0.282929
O49   O     O_2   0.331880 0.397511 0.147631 -0.275955
O50   O     O_3   0.338593 0.443810 0.806186 -0.486414
H30   H     H_    0.292766 0.457676 0.836249 0.392475
C67   C     C_2   0.377057 0.801852 0.304882 0.786511
O51   O     O_2   0.341859 0.830211 0.420126 -0.539140
O52   O     O_R   0.351972 0.751599 0.219377 -0.628922
H31   H     H_    0.304385 0.743277 0.265078 0.345134
C68   C     C_2   0.622944 0.301852 0.695122 0.786512
O53   O     O_2   0.658142 0.330211 0.579879 -0.539141
O54   O     O_R   0.648027 0.251599 0.780629 -0.628922
H32   H     H_    0.695614 0.243276 0.734930 0.345134

loop_
_geom_bond_atom_site_label_1
_geom_bond_atom_site_label_2
_ccdc_geom_bond_type
C42   H16   S    
C49   C53   A    
C46   S2    S    
C68   O53   D    
C53   N3    S    
O13   V3    S    
C4    C37   S    
C27   C29   A    
C18   H6    S    
C66   O43   D    
O4    C2    A    
V1    O19   S    
O42   H27   S    
C23   C31   A    
O30   H22   S    
C15   H7    S    
C44   N2    S    
C40   S4    S    
O9    V1    S    
C40   C42   A    
S6    O48   D    
C66   O44   S    
C42   C44   A    
C64   O33   D    
O3    C1    A    
C44   C46   A    
O44   H28   S    
C56   C58   A    
O12   V4    S    
C65   O41   D    
C41   H15   S    
C65   O42   S    
C14   C36   A    
H1    C33   S    
S5    O47   S    
C32   C68   S    
O7    C3    A    
O27   H21   S    
C52   C56   A    
C57   C59   A    
C12   C32   A    
C51   C55   A    
O7    V1    S    
O6    C8    A    
C54   N4    S    
O8    V2    S    
C23   C25   A    
S3    O37   S    
C24   C26   A    
S5    O45   D    
O3    V1    S    
O14   V4    S    
N1    N3    D    
C7    C35   S    
S2    O30   S    
C26   C28   A    
C14   C16   A    
C63   O31   D    
C9    C33   A    
O5    C7    A    
S5    O46   D    
C10   C34   A    
C15   C17   A    
C68   O54   S    
C19   C21   A    
C16   C18   A    
C13   C35   A    
O18   C8    A    
C67   O52   S    
C18   C20   A    
O11   V3    S    
C53   C59   A    
C43   C45   A    
O17   V3    S    
C59   H17   S    
C28   C30   A    
C50   C62   S    
C24   C32   A    
C38   C40   A    
C9    S5    S    
O54   H32   S    
C45   C47   A    
C1    O11   A    
S1    O26   D    
C58   H14   S    
O15   V3    S    
C5    C55   S    
C27   C65   S    
C6    C56   S    
C17   C19   A    
N2    N4    D    
O50   H30   S    
C19   C23   A    
C17   H5    S    
S1    O27   S    
C43   N1    S    
O10   V2    S    
O1    V3    S    
C45   S1    S    
C62   O24   S    
C54   C60   A    
C48   C64   S    
C41   C43   A    
O47   H29   S    
C11   C33   A    
C52   H12   S    
C12   C34   A    
C46   C48   A    
C49   C51   A    
C39   S3    S    
O18   V4    S    
C30   H10   S    
O15   C5    A    
O8    C4    A    
S3    O35   D    
S4    O39   D    
O16   C6    A    
O1    C3    A    
C2    C11   S    
C39   C41   A    
C61   O21   D    
O32   H23   S    
C55   C57   A    
C22   C36   A    
C13   H3    S    
S2    O28   D    
S2    O29   D    
C21   C29   A    
O24   H20   S    
V2    O20   S    
C22   C30   A    
O10   C6    A    
O16   V4    S    
C62   O23   D    
C47   C63   S    
C10   C26   A    
S6    O50   S    
C50   C54   A    
C50   C52   A    
O37   H25   S    
H2    C34   S    
S4    O40   S    
C21   C35   A    
C11   C31   A    
O5    V1    S    
C3    C38   S    
C10   S6    S    
C60   H18   S    
C9    C25   A    
O6    V2    S    
C20   C24   A    
C58   C60   A    
C14   H4    S    
C37   C47   A    
O2    V4    S    
C29   H9    S    
S6    O49   D    
V3    O19   S    
C67   O51   D    
O40   H26   S    
V4    O20   S    
C51   H11   S    
S1    O25   D    
C61   O22   S    
O9    C5    A    
O13   V1    S    
C1    C12   S    
C49   C61   S    
O14   V2    S    
C16   H8    S    
O2    C4    A    
C57   H13   S    
O52   H31   S    
S4    O38   D    
O4    V2    S    
C20   C22   A    
C31   C67   S    
C13   C15   A    
C2    O12   A    
C37   C39   A    
C63   O32   S    
S3    O36   D    
C25   C27   A    
O22   H19   S    
C38   C48   A    
O34   H24   S    
C28   C66   S    
C64   O34   S    
O17   C7    A    
C8    C36   S    
