data_mof_unit_52301.cif
_audit_creation_date              2012-12-10T18:51:34-0500
_audit_creation_method            fapswitch 2.2
_symmetry_space_group_name_H-M    P1
_symmetry_Int_Tables_number       1
_space_group_crystal_system       triclinic
_cell_length_a                    10.65853
_cell_length_b                    9.861387
_cell_length_c                    10.566562
_cell_angle_alpha                 90.029404
_cell_angle_beta                  89.720761
_cell_angle_gamma                 89.767831
_cell_volume                      1110.60656205

loop_
_atom_site_label
_atom_site_type_symbol
_atom_type_description
_atom_site_fract_x
_atom_site_fract_y
_atom_site_fract_z
_atom_type_partial_charge
C1    C     C_R   0.872227 0.498043 0.508480 -0.001383
C2    C     C_3   0.470578 0.376832 0.038242 0.050160
C3    C     C_3   0.391647 0.475105 0.957643 0.468875
C4    C     C_3   0.623311 0.527684 0.039589 0.461321
C5    C     C_3   0.508559 0.502041 0.876217 -0.290049
C6    C     C_3   0.506467 0.499930 0.122450 -0.352763
C7    C     C_R   0.585011 0.071520 0.570255 -0.072161
C8    C     C_R   0.415231 0.928455 0.429410 -0.079368
C9    C     C_R   0.415246 0.072203 0.429388 -0.076920
C10   C     C_R   0.584996 0.927802 0.570279 -0.082822
C11   C     C_R   0.064518 0.388556 0.453598 -0.214809
C12   C     C_R   0.127550 0.499844 0.503856 -0.000281
C13   C     C_R   0.935111 0.608249 0.561067 -0.218371
C14   C     C_R   0.936174 0.387501 0.456159 -0.199016
C15   C     C_R   0.063820 0.609325 0.558429 -0.182994
C16   C     C_3   0.179809 0.419183 0.978629 0.064404
C17   C     C_3   0.054653 0.438923 0.912158 -0.792195
C18   C     C_3   0.773590 0.586520 0.189177 0.109534
C19   C     C_3   0.909637 0.630549 0.202552 -0.856546
C20   C     C_3   0.337668 0.706170 0.095011 -0.353286
C21   C     C_3   0.259486 0.776308 0.993515 -0.868671
C22   C     C_3   0.685261 0.306393 0.901445 -0.325903
C23   C     C_R   0.260012 0.500172 0.500793 0.889372
C24   C     C_3   0.755664 0.228833 0.004288 -0.884424
C25   C     C_3   0.594012 0.757809 0.900611 -0.310556
C26   C     C_3   0.643593 0.857221 0.998419 -0.904534
C27   C     C_3   0.427555 0.238441 0.088329 -0.352199
C28   C     C_3   0.401077 0.137660 0.982232 -0.894851
C29   C     C_R   0.739818 0.499593 0.504586 0.822982
C30   C     C_R   0.500877 0.499889 0.257353 0.879931
C31   C     C_R   0.503914 0.500341 0.742094 0.970451
C32   C     C_3   0.426882 0.598258 0.039850 0.033290
C33   C     C_3   0.588030 0.405720 0.956380 0.081436
C34   C     C_3   0.545050 0.624542 0.957733 0.076533
H1    H     H_    0.653342 0.125485 0.626115 0.117630
H2    H     H_    0.186043 0.311325 0.006926 0.157204
H3    H     H_    0.049325 0.371780 0.827917 0.259045
H4    H     H_    0.976938 0.413431 0.977826 0.239914
H5    H     H_    0.043224 0.545794 0.881318 0.257409
H6    H     H_    0.757988 0.496274 0.249769 0.143543
H7    H     H_    0.712777 0.672364 0.219975 0.174134
H8    H     H_    0.932526 0.709601 0.131352 0.257835
H9    H     H_    0.925280 0.673421 0.298141 0.231287
H10   H     H_    0.973244 0.542333 0.188552 0.247619
H11   H     H_    0.320386 0.829436 0.924617 0.262219
H12   H     H_    0.347295 0.874424 0.373038 0.121378
H13   H     H_    0.201042 0.702546 0.941845 0.288098
H14   H     H_    0.196224 0.851939 0.038832 0.233275
H15   H     H_    0.274077 0.658526 0.165399 0.186017
H16   H     H_    0.392846 0.783561 0.146182 0.214225
H17   H     H_    0.801382 0.298993 0.071584 0.283081
H18   H     H_    0.691247 0.162464 0.058043 0.257789
H19   H     H_    0.829261 0.164360 0.959797 0.239383
H20   H     H_    0.638430 0.233258 0.837833 0.202639
H21   H     H_    0.754015 0.364558 0.843929 0.204922
H22   H     H_    0.572059 0.880456 0.071680 0.262562
H23   H     H_    0.347402 0.126761 0.372890 0.114939
H24   H     H_    0.729703 0.817455 0.043297 0.285925
H25   H     H_    0.669283 0.952479 0.949341 0.242048
H26   H     H_    0.671614 0.733461 0.833656 0.202480
H27   H     H_    0.518283 0.808036 0.846288 0.215007
H28   H     H_    0.340649 0.182642 0.908061 0.289009
H29   H     H_    0.489507 0.102747 0.937594 0.267187
H30   H     H_    0.353026 0.048218 0.022888 0.247777
H31   H     H_    0.500319 0.194822 0.151068 0.227485
H32   H     H_    0.341704 0.252860 0.146699 0.177156
H33   H     H_    0.653206 0.873287 0.626315 0.116939
H34   H     H_    0.114237 0.304028 0.410659 0.142417
H35   H     H_    0.884922 0.692977 0.603068 0.147568
H36   H     H_    0.887147 0.302562 0.414391 0.153457
H37   H     H_    0.113292 0.694466 0.599273 0.157713
H38   H     H_    0.180200 0.483024 0.065067 0.133259
N1    N     N_R   0.500000 0.857200 0.500000 -0.080047
N2    N     N_R   0.500000 0.142800 0.500000 -0.079014
O1    O     O_R   0.316770 0.614620 0.499990 -0.628252
O2    O     O_3   0.751849 0.552504 0.062383 -0.627171
O3    O     O_R   0.683230 0.385380 0.500010 -0.633986
O4    O     O_R   0.683230 0.614620 0.500010 -0.636311
O5    O     O_R   0.316770 0.385380 0.499990 -0.618370
O6    O     O_R   0.499970 0.614650 0.313950 -0.635235
O7    O     O_R   0.500030 0.385350 0.686050 -0.611054
O8    O     O_R   0.500030 0.614650 0.686050 -0.635312
O9    O     O_R   0.499970 0.385350 0.313950 -0.627736
O10   O     O_3   0.277436 0.451794 0.893492 -0.605220
Zn1   Zn    Zn3+2 0.500000 0.653120 0.500000 0.923812
Zn2   Zn    Zn3+2 0.500000 0.346880 0.500000 0.938134

loop_
_geom_bond_atom_site_label_1
_geom_bond_atom_site_label_2
_ccdc_geom_bond_type
C24   H18   S    
C7    C10   A    
C6    C32   S    
C16   H38   S    
C22   H20   S    
C10   H33   S    
C11   H34   S    
C12   C23   S    
C20   H15   S    
C31   O8    A    
C10   N1    A    
C5    C31   S    
C16   O10   S    
C18   C19   S    
C17   H5    S    
C30   O9    A    
C18   H6    S    
C20   H16   S    
O1    Zn1   S    
C29   O4    A    
C8    C9    A    
C5    C33   S    
C2    C27   S    
C25   H26   S    
C26   H25   S    
O7    Zn2   S    
C19   H8    S    
C25   C34   S    
C21   H14   S    
C30   O6    A    
C24   H17   S    
C14   H36   S    
C2    C6    S    
C19   H9    S    
C7    N2    A    
C21   H11   S    
C4    C34   S    
C4    C6    S    
C18   H7    S    
C16   C17   S    
C17   H3    S    
C25   C26   S    
C32   C34   S    
O6    Zn1   S    
C27   H31   S    
C12   C15   A    
C5    C34   S    
C1    C29   S    
C25   H27   S    
N2    Zn2   S    
C26   H24   S    
N1    Zn1   S    
C28   H30   S    
C2    C33   S    
C6    C30   S    
O3    Zn2   S    
C13   C15   A    
C22   C24   S    
C1    C13   A    
C9    N2    A    
C3    O10   S    
C19   H10   S    
O4    Zn1   S    
C20   C32   S    
C22   C33   S    
C4    C33   S    
C18   O2    S    
C7    H1    S    
C23   O1    A    
C3    C5    S    
C26   H22   S    
C11   C12   A    
C22   H21   S    
O8    Zn1   S    
C15   H37   S    
C31   O7    A    
C2    C3    S    
C24   H19   S    
C27   H32   S    
C16   H2    S    
C13   H35   S    
C8    N1    A    
C11   C14   A    
C9    H23   S    
C17   H4    S    
C3    C32   S    
C8    H12   S    
C4    O2    S    
C28   H29   S    
O9    Zn2   S    
C29   O3    A    
C20   C21   S    
C27   C28   S    
C1    C14   A    
C23   O5    A    
O5    Zn2   S    
C21   H13   S    
C28   H28   S    
