data_mof_unit_28433.cif
_audit_creation_date              2012-12-11T15:21:09-0500
_audit_creation_method            fapswitch 2.2
_symmetry_space_group_name_H-M    P1
_symmetry_Int_Tables_number       1
_space_group_crystal_system       triclinic
_cell_length_a                    18.363423
_cell_length_b                    18.370559
_cell_length_c                    51.292672
_cell_angle_alpha                 89.949243
_cell_angle_beta                  89.824128
_cell_angle_gamma                 120.034088
_cell_volume                      14979.900872

loop_
_atom_site_label
_atom_site_type_symbol
_atom_type_description
_atom_site_fract_x
_atom_site_fract_y
_atom_site_fract_z
_atom_type_partial_charge
C1    C     C_R   0.407766 0.584947 0.287911 0.542769
C2    C     C_R   0.511853 0.390693 0.857062 -0.062756
C3    C     C_R   0.369328 0.905016 0.094452 0.425962
C4    C     C_R   0.543045 0.008104 0.399566 0.416586
C5    C     C_R   0.487772 0.042157 0.102288 0.428905
C6    C     C_R   0.501046 0.988681 0.341069 -0.012346
C7    C     C_R   0.482588 0.902581 0.142224 -0.015661
C8    C     C_R   0.490769 0.953484 0.316015 -0.020653
C9    C     C_R   0.479466 0.864844 0.166326 0.001180
C10   C     C_R   0.376915 0.821337 0.333121 -0.157744
C11   C     C_R   0.379403 0.906114 0.181632 -0.149435
C12   C     C_R   0.388695 0.856437 0.357801 -0.084558
C13   C     C_R   0.548617 0.488042 0.637749 0.203838
C14   C     C_R   0.381718 0.941168 0.157235 -0.061225
C15   C     C_R   0.451028 0.940129 0.362105 0.198950
C16   C     C_R   0.432683 0.938623 0.137416 0.213992
C17   C     C_R   0.484216 0.018073 0.441105 -0.032023
C18   C     C_R   0.436981 0.000395 0.057880 -0.032092
C19   C     C_R   0.405064 0.985648 0.429133 0.028872
C20   C     C_R   0.373331 0.922343 0.067586 0.028470
C21   C     C_R   0.335537 0.971771 0.444179 -0.106179
C22   C     C_R   0.316767 0.862158 0.050205 -0.094846
C23   C     C_R   0.139563 0.531075 0.410573 0.442113
C24   C     C_R   0.567522 0.470080 0.867092 0.210566
C25   C     C_R   0.139124 0.549246 0.089288 0.426660
C26   C     C_R   0.554274 0.032318 0.425965 0.031669
C27   C     C_R   0.493186 0.061519 0.075500 0.030027
C28   C     C_R   0.427840 0.868650 0.312200 -0.019559
C29   C     C_R   0.426999 0.866670 0.186553 -0.022904
C30   C     C_R   0.564596 0.139699 0.686007 0.009984
C31   C     C_R   0.562453 0.137654 0.813955 0.011793
C32   C     C_R   0.427761 0.019608 0.511283 0.018537
C33   C     C_R   0.397983 0.970147 0.985638 0.021169
C34   C     C_R   0.582144 0.090392 0.507126 0.018486
C35   C     C_R   0.568979 0.583035 0.488479 0.017394
C36   C     C_R   0.525525 0.107318 0.993580 0.022342
C37   C     C_R   0.508750 0.060136 0.522837 0.035308
C38   C     C_R   0.468124 0.045303 0.976050 0.034324
C39   C     C_R   0.356403 0.984727 0.527805 -0.131230
C40   C     C_R   0.340660 0.912391 0.967334 -0.131089
C41   C     C_R   0.364449 0.991826 0.554726 -0.099792
C42   C     C_R   0.353739 0.926099 0.940665 -0.107306
C43   C     C_R   0.443892 0.034823 0.566309 0.031526
C44   C     C_R   0.424355 0.997999 0.930968 0.028638
C45   C     C_R   0.516350 0.069887 0.550392 -0.030836
C46   C     C_R   0.538547 0.589032 0.013099 0.015505
C47   C     C_R   0.481523 0.058163 0.948609 -0.030976
C48   C     C_R   0.120850 0.598440 0.357626 -0.074511
C49   C     C_R   0.118471 0.607375 0.143512 -0.060251
C50   C     C_R   0.596347 0.114277 0.562002 0.027838
C51   C     C_R   0.552519 0.130800 0.938817 0.030132
C52   C     C_R   0.602717 0.124113 0.589268 0.433258
C53   C     C_R   0.565616 0.142053 0.911695 0.427602
C54   C     C_R   0.452353 0.042917 0.593555 0.419360
C55   C     C_R   0.439153 0.010914 0.903930 0.421183
C56   C     C_R   0.498649 0.139327 0.644972 -0.036327
C57   C     C_R   0.487319 0.546838 0.477477 0.034231
C58   C     C_R   0.470820 0.110930 0.851494 -0.056677
C59   C     C_R   0.510830 0.157933 0.671476 -0.137372
C60   C     C_R   0.489788 0.132098 0.825207 -0.142888
C61   C     C_R   0.601599 0.097564 0.673831 -0.130341
C62   C     C_R   0.613195 0.117233 0.829276 -0.134681
C63   C     C_R   0.588015 0.077507 0.647357 -0.051890
C64   C     C_R   0.594134 0.096205 0.855577 -0.055204
C65   C     C_R   0.538370 0.100444 0.632581 0.244815
C66   C     C_R   0.523969 0.094857 0.866965 0.244376
C67   C     C_R   0.420508 0.013033 0.483726 0.019062
C68   C     C_R   0.549912 0.535400 0.030563 0.033245
C69   C     C_R   0.388131 0.954550 0.013002 0.019807
C70   C     C_R   0.492997 0.035001 0.468332 0.034325
C71   C     C_R   0.445457 0.016684 0.030516 0.032690
C72   C     C_R   0.142146 0.620482 0.331618 -0.152509
C73   C     C_R   0.141056 0.625538 0.169467 -0.136283
C74   C     C_R   0.573825 0.072321 0.479971 0.017332
C75   C     C_R   0.512087 0.094354 0.020964 0.021374
C76   C     C_R   0.342853 0.984635 0.470944 -0.135403
C77   C     C_R   0.323727 0.877821 0.023565 -0.115116
C78   C     C_R   0.633480 0.067730 0.437722 -0.109348
C79   C     C_R   0.414652 0.510059 0.493732 0.017014
C80   C     C_R   0.554701 0.139856 0.065936 -0.108099
C81   C     C_R   0.661425 0.137025 0.519274 -0.148133
C82   C     C_R   0.596222 0.179313 0.983010 -0.147033
C83   C     C_R   0.668210 0.148825 0.546126 -0.116945
C84   C     C_R   0.609373 0.190401 0.956276 -0.118876
C85   C     C_R   0.643336 0.088133 0.464077 -0.146675
C86   C     C_R   0.563750 0.156225 0.039305 -0.141286
C87   C     C_R   0.540042 0.580031 0.406385 0.410802
C88   C     C_R   0.514190 0.609538 0.094681 0.417310
C89   C     C_R   0.390453 0.516767 0.411444 0.415042
C90   C     C_R   0.568139 0.473642 0.020959 0.020611
C91   C     C_R   0.538563 0.494575 0.102416 0.407215
C92   C     C_R   0.418871 0.490744 0.352162 -0.057722
C93   C     C_R   0.419644 0.496302 0.147194 -0.061880
C94   C     C_R   0.407244 0.497976 0.325598 -0.134515
C95   C     C_R   0.391430 0.503205 0.171769 -0.132617
C96   C     C_R   0.095811 0.474401 0.320942 -0.014018
C97   C     C_R   0.098877 0.478764 0.177677 -0.020124
C98   C     C_R   0.469880 0.648649 0.330551 -0.128595
C99   C     C_R   0.526988 0.625798 0.180521 -0.130954
C100  C     C_R   0.479355 0.642072 0.357408 0.053123
C101  C     C_R   0.638978 0.613397 0.471456 -0.140430
C102  C     C_R   0.556209 0.619473 0.155743 0.069507
C103  C     C_R   0.453768 0.561911 0.368273 0.259702
C104  C     C_R   0.500647 0.555280 0.138680 0.254261
C105  C     C_R   0.478330 0.547029 0.449905 -0.032285
C106  C     C_R   0.541995 0.543048 0.057942 -0.030846
C107  C     C_R   0.549752 0.579668 0.433545 0.026898
C108  C     C_R   0.524838 0.604614 0.067724 0.025609
C109  C     C_R   0.629413 0.611593 0.444608 -0.109037
C110  C     C_R   0.517601 0.659373 0.050406 -0.094209
C111  C     C_R   0.397965 0.514004 0.438694 0.022332
C112  C     C_R   0.409307 0.584128 0.212529 0.538826
C113  C     C_R   0.524634 0.652135 0.023731 -0.124642
C114  C     C_R   0.549902 0.488320 0.075506 0.030667
C115  C     C_R   0.432383 0.576979 0.314612 -0.001221
C116  C     C_R   0.443824 0.569705 0.188310 -0.012034
C117  C     C_R   0.573836 0.437263 0.686933 -0.010840
C118  C     C_R   0.572372 0.436360 0.813728 -0.025329
C119  C     C_R   0.578177 0.585507 0.515991 0.017450
C120  C     C_R   0.541096 0.577909 0.985732 0.017635
C121  C     C_R   0.075585 0.453446 0.347413 -0.008530
C122  C     C_R   0.077272 0.461770 0.151148 -0.020095
C123  C     C_R   0.423839 0.504472 0.521124 0.019866
C124  C     C_R   0.327101 0.480600 0.454932 -0.120889
C125  C     C_R   0.576248 0.466342 0.993593 0.022267
C126  C     C_R   0.505734 0.542654 0.532099 0.034779
C127  C     C_R   0.560886 0.517302 0.976114 0.034687
C128  C     C_R   0.657862 0.629277 0.528055 -0.140518
C129  C     C_R   0.522911 0.624462 0.967492 -0.136398
C130  C     C_R   0.666667 0.624505 0.554753 -0.107068
C131  C     C_R   0.525935 0.613335 0.940842 -0.106991
C132  C     C_R   0.596439 0.576119 0.570546 0.030369
C133  C     C_R   0.546852 0.555123 0.931106 0.030734
C134  C     C_R   0.515547 0.536562 0.559410 -0.030564
C135  C     C_R   0.567304 0.427522 0.065816 -0.109371
C136  C     C_R   0.564620 0.507032 0.948680 -0.030765
C137  C     C_R   0.444688 0.489628 0.575486 0.032472
C138  C     C_R   0.585359 0.448128 0.938824 0.029003
C139  C     C_R   0.456052 0.477753 0.601999 0.426407
C140  C     C_R   0.588271 0.438270 0.911711 0.427746
C141  C     C_R   0.605636 0.564871 0.597185 0.421183
C142  C     C_R   0.548788 0.542846 0.904086 0.421659
C143  C     C_R   0.593167 0.444806 0.640003 -0.031031
C144  C     C_R   0.622468 0.534398 0.850201 -0.017098
C145  C     C_2   0.075579 0.406246 0.301822 0.263724
C146  C     C_R   0.353937 0.460318 0.537997 -0.142751
C147  C     C_2   0.081765 0.408160 0.195493 0.254893
C148  C     C_2   0.242660 0.618243 0.498444 0.207015
C149  C     C_2   0.243898 0.651940 0.001434 0.185331
C150  C     C_2   0.544624 0.005783 0.294101 0.250789
C151  C     C_2   0.525063 0.817454 0.168542 0.258796
C152  C     C_3   0.512758 0.720683 0.373953 -0.264531
C153  C     C_3   0.443181 0.721394 0.390149 -0.404601
C154  C     C_3   0.645244 0.682846 0.147708 -0.247701
C155  C     C_3   0.701899 0.644193 0.148222 -0.427071
C156  C     C_2   0.652827 0.372034 0.665952 0.221726
C157  C     C_R   0.598513 0.409032 0.982942 -0.142762
C158  C     C_2   0.680217 0.590231 0.805968 0.250737
C159  C     C_R   0.041295 0.467690 0.446690 -0.036029
C160  C     C_R   0.041206 0.497676 0.053063 -0.036638
C161  C     C_R   0.364306 0.452858 0.564532 -0.108922
C162  C     C_R   0.602461 0.400009 0.956198 -0.115765
C163  C     C_R   0.335087 0.478883 0.481839 -0.154319
C164  C     C_R   0.089788 0.515436 0.365806 0.211419
C165  C     C_R   0.576327 0.420266 0.039202 -0.140181
C166  C     C_R   0.591841 0.176595 0.712181 0.535553
C167  C     C_R   0.591611 0.176504 0.787901 0.547357
C168  C     C_R   0.824496 0.415550 0.712345 0.530389
C169  C     C_R   0.824430 0.415580 0.787580 0.548378
C170  C     C_R   0.584294 0.409027 0.712631 0.510895
C171  C     C_R   0.584150 0.408846 0.787648 0.524205
C172  C     C_R   0.975071 0.428307 0.428583 0.034667
C173  C     C_R   0.974102 0.457086 0.071002 0.036210
C174  C     C_R   0.892779 0.376942 0.437674 -0.105187
C175  C     C_R   0.088786 0.526232 0.134062 0.206942
C176  C     C_R   0.891513 0.411884 0.061753 -0.107060
C177  C     C_R   0.124161 0.518633 0.437571 0.017794
C178  C     C_R   0.124229 0.543956 0.062302 -0.003014
C179  C     C_R   0.133127 0.560003 0.313150 -0.026187
C180  C     C_R   0.134396 0.562828 0.186727 -0.026989
C181  C     C_R   0.868326 0.426763 0.687175 0.013244
C182  C     C_R   0.868871 0.428104 0.812523 0.009966
C183  C     C_R   0.921927 0.407278 0.509845 0.017063
C184  C     C_R   0.924703 0.449517 0.989828 0.023373
C185  C     C_R   0.073346 0.474844 0.518981 0.038323
C186  C     C_R   0.606505 0.419113 0.664393 -0.022606
C187  C     C_R   0.076036 0.511604 0.980960 0.000215
C188  C     C_R   0.989061 0.437634 0.527883 0.029853
C189  C     C_R   0.992294 0.476372 0.971914 0.039030
C190  C     C_R   0.174813 0.590607 0.287515 0.515140
C191  C     C_R   0.175052 0.590949 0.212485 0.519389
C192  C     C_R   0.839371 0.376127 0.519532 -0.149957
C193  C     C_R   0.843308 0.422454 0.979997 -0.147902
C194  C     C_R   0.823653 0.374092 0.546133 -0.118557
C195  C     C_R   0.828591 0.417897 0.953332 -0.114022
C196  C     C_R   0.889297 0.401295 0.564144 0.023374
C197  C     C_R   0.624772 0.519063 0.823395 -0.015557
C198  C     C_R   0.893865 0.438215 0.935482 0.028564
C199  C     C_R   0.971972 0.431007 0.555086 -0.032714
C200  C     C_R   0.975954 0.466924 0.944725 -0.031453
C201  C     C_R   0.037756 0.454719 0.573155 0.029232
C202  C     C_R   0.041690 0.485883 0.926862 0.029450
C203  C     C_R   0.020648 0.452831 0.600006 0.422923
C204  C     C_R   0.024695 0.477658 0.899969 0.422310
C205  C     C_R   0.874379 0.400769 0.591052 0.436075
C206  C     C_R   0.879031 0.431073 0.908517 0.427039
C207  C     C_R   0.911686 0.366389 0.652391 -0.040666
C208  C     C_R   0.528585 0.479833 0.684635 -0.150786
C209  C     C_R   0.893390 0.367561 0.851326 -0.051270
C210  C     C_R   0.884118 0.363769 0.677944 -0.126322
C211  C     C_R   0.864529 0.358910 0.825771 -0.136058
C212  C     C_R   0.884947 0.494670 0.670727 -0.115939
C213  C     C_R   0.907355 0.507111 0.824772 -0.127086
C214  C     C_R   0.415822 0.825050 0.287295 0.510304
C215  C     C_R   0.415080 0.822613 0.211892 0.520755
C216  C     C_R   0.912096 0.496862 0.645123 -0.039533
C217  C     C_R   0.936477 0.515592 0.850291 -0.055608
C218  C     C_R   0.923798 0.431832 0.635726 0.249187
C219  C     C_R   0.514326 0.373930 0.830773 -0.139760
C220  C     C_R   0.927572 0.445426 0.863820 0.244226
C221  C     C_R   0.939636 0.410019 0.482792 0.017787
C222  C     C_R   0.940701 0.450030 0.016876 0.025027
C223  C     C_R   0.024322 0.457133 0.473919 0.016058
C224  C     C_R   0.025133 0.492474 0.025881 0.023830
C225  C     C_R   0.091687 0.495314 0.492055 0.027659
C226  C     C_R   0.093386 0.530547 0.007914 -0.020255
C227  C     C_R   0.875295 0.367910 0.464220 -0.143548
C228  C     C_R   0.874988 0.408633 0.035248 -0.139667
C229  C     C_R   0.189339 0.560557 0.455510 -0.146637
C230  C     C_R   0.516294 0.505425 0.660172 -0.054197
C231  C     C_R   0.190234 0.588467 0.044625 -0.080664
C232  C     C_R   0.135722 0.487161 0.537279 -0.092263
C233  C     C_R   0.138705 0.521928 0.962911 -0.156084
C234  C     C_R   0.118708 0.478963 0.563930 -0.095477
C235  C     C_R   0.122271 0.510794 0.936320 -0.111220
C236  C     C_R   0.173832 0.553401 0.482338 -0.014407
C237  C     C_R   0.175596 0.586076 0.017786 -0.004904
C238  C     C_R   0.992375 0.442493 0.401720 0.425392
C239  C     C_R   0.991043 0.463977 0.097893 0.425607
C240  C     C_R   0.396763 0.966589 0.402391 0.423603
Cr1   Cr    Cr6+3 0.456550 0.732290 0.250000 1.032650
Cr2   Cr    Cr6+3 0.275740 0.543450 0.250000 1.045061
Cr3   Cr    Cr6+3 0.267710 0.724260 0.250000 1.034194
Cr4   Cr    Cr6+3 0.543450 0.275740 0.750000 1.026003
Cr5   Cr    Cr6+3 0.724260 0.267710 0.750000 1.023526
Cr6   Cr    Cr6+3 0.732290 0.456550 0.750000 1.037761
H1    H     H_    0.130859 0.646589 0.371652 0.142668
H2    H     H_    0.173054 0.521607 0.923179 0.171707
H3    H     H_    0.767490 0.693245 0.143498 0.149403
H4    H     H_    0.646293 0.708066 0.127962 0.197654
H5    H     H_    0.672222 0.737544 0.161161 0.173046
H6    H     H_    0.661797 0.349440 0.684508 0.120017
H7    H     H_    0.670876 0.585302 0.785048 0.122901
H8    H     H_    0.920876 0.547385 0.632243 0.134563
H9    H     H_    0.962355 0.575790 0.859988 0.133427
H10   H     H_    0.329528 0.755909 0.330495 0.122119
H11   H     H_    0.338452 0.907922 0.196546 0.135373
H12   H     H_    0.350000 0.817764 0.373789 0.146064
H13   H     H_    0.342214 0.968260 0.153531 0.138007
H14   H     H_    0.274318 0.948855 0.435384 0.168053
H15   H     H_    0.267242 0.801586 0.057117 0.166081
H16   H     H_    0.049363 0.388985 0.353936 0.187790
H17   H     H_    0.126678 0.657279 0.130430 0.153439
H18   H     H_    0.052150 0.398692 0.143566 0.182739
H19   H     H_    0.482267 0.191411 0.680144 0.141328
H20   H     H_    0.449569 0.147812 0.814040 0.130577
H21   H     H_    0.460720 0.158093 0.633838 0.147742
H22   H     H_    0.416593 0.110306 0.860101 0.132762
H23   H     H_    0.307686 0.963365 0.566495 0.171658
H24   H     H_    0.308098 0.879361 0.927575 0.166909
H25   H     H_    0.293090 0.948681 0.520540 0.122517
H26   H     H_    0.284197 0.855650 0.972850 0.107367
H27   H     H_    0.286585 0.973193 0.481093 0.115975
H28   H     H_    0.252431 0.603934 0.448540 0.150161
H29   H     H_    0.278370 0.826989 0.011790 0.120460
H30   H     H_    0.548137 0.053787 0.344378 0.195729
H31   H     H_    0.519853 0.899309 0.126321 0.174118
H32   H     H_    0.688510 0.079334 0.426573 0.170769
H33   H     H_    0.597263 0.188854 0.079063 0.165923
H34   H     H_    0.719682 0.166860 0.508453 0.109177
H35   H     H_    0.644430 0.227695 0.994848 0.098252
H36   H     H_    0.643422 0.082884 0.684518 0.137097
H37   H     H_    0.669863 0.121421 0.821319 0.135111
H38   H     H_    0.841004 0.344206 0.424219 0.170894
H39   H     H_    0.253193 0.629468 0.051929 0.208610
H40   H     H_    0.838896 0.379163 0.075057 0.166193
H41   H     H_    0.730490 0.184691 0.554465 0.166065
H42   H     H_    0.665192 0.246026 0.949293 0.157196
H43   H     H_    0.618335 0.046575 0.638133 0.140367
H44   H     H_    0.635474 0.083624 0.867349 0.133147
H45   H     H_    0.706001 0.113053 0.471667 0.112331
H46   H     H_    0.612011 0.218578 0.033783 0.095452
H47   H     H_    0.486811 0.709536 0.322353 0.141903
H48   H     H_    0.568484 0.676009 0.193482 0.127513
H49   H     H_    0.685229 0.635841 0.432482 0.169179
H50   H     H_    0.198233 0.502572 0.531230 0.120841
H51   H     H_    0.505847 0.708202 0.057430 0.180174
H52   H     H_    0.616757 0.430737 0.622460 0.182989
H53   H     H_    0.663809 0.596280 0.858149 0.183605
H54   H     H_    0.729392 0.657693 0.562923 0.167822
H55   H     H_    0.511087 0.650510 0.927804 0.171267
H56   H     H_    0.715024 0.668808 0.517402 0.114030
H57   H     H_    0.504115 0.669141 0.973043 0.128746
H58   H     H_    0.871836 0.310563 0.690104 0.134017
H59   H     H_    0.834837 0.297138 0.816948 0.134835
H60   H     H_    0.702321 0.636913 0.478228 0.114751
H61   H     H_    0.200622 0.536301 0.969143 0.139295
H62   H     H_    0.519541 0.698017 0.012035 0.135091
H63   H     H_    0.377015 0.441758 0.313756 0.147997
H64   H     H_    0.327064 0.458882 0.177243 0.160289
H65   H     H_    0.398841 0.429287 0.360434 0.143325
H66   H     H_    0.376834 0.447337 0.134125 0.141812
H67   H     H_    0.264635 0.455452 0.446850 0.169677
H68   H     H_    0.573434 0.384434 0.078847 0.167120
H69   H     H_    0.289936 0.427960 0.531235 0.103630
H70   H     H_    0.613962 0.370069 0.994666 0.097156
H71   H     H_    0.502914 0.493280 0.701808 0.122929
H72   H     H_    0.872706 0.543686 0.677146 0.145126
H73   H     H_    0.473328 0.310223 0.824119 0.139939
H74   H     H_    0.308638 0.416687 0.576430 0.165282
H75   H     H_    0.618324 0.354183 0.949126 0.157486
H76   H     H_    0.481765 0.538761 0.658646 0.152554
H77   H     H_    0.468258 0.340885 0.869884 0.138532
H78   H     H_    0.277306 0.453641 0.492780 0.102936
H79   H     H_    0.588015 0.370543 0.033653 0.103367
H80   H     H_    0.920119 0.315687 0.645195 0.134162
H81   H     H_    0.885781 0.313003 0.861828 0.130387
H82   H     H_    0.759486 0.351112 0.552550 0.170457
H83   H     H_    0.911612 0.561527 0.815090 0.153500
H84   H     H_    0.765477 0.397773 0.946696 0.159485
H85   H     H_    0.785798 0.355979 0.506929 0.115855
H86   H     H_    0.790082 0.406787 0.992505 0.099708
H87   H     H_    0.810629 0.326104 0.469689 0.108547
H88   H     H_    0.809965 0.370977 0.029602 0.101029
H89   H     H_    0.170045 0.686146 0.326256 0.147649
H90   H     H_    0.167951 0.690299 0.175662 0.152628
H91   H     H_    0.075622 0.417738 0.281084 0.118373
H92   H     H_    0.081847 0.415752 0.216448 0.123387
H93   H     H_    0.307713 0.639429 0.493356 0.106780
H94   H     H_    0.169527 0.492604 0.577297 0.167008
H95   H     H_    0.228966 0.672840 0.983480 0.110793
H96   H     H_    0.534685 0.980626 0.274490 0.128623
H97   H     H_    0.504075 0.765413 0.181958 0.141013
H98   H     H_    0.387049 0.704034 0.377911 0.182537
H99   H     H_    0.424849 0.677061 0.406769 0.181094
H100  H     H_    0.466144 0.785352 0.398175 0.147206
H101  H     H_    0.563940 0.727226 0.386883 0.187386
H102  H     H_    0.540950 0.777640 0.361319 0.154670
H103  H     H_    0.700933 0.618439 0.167906 0.170721
H104  H     H_    0.681234 0.593257 0.133615 0.197434
N1    N     N_R   0.073701 0.494654 0.393108 -0.385361
N2    N     N_R   0.521226 0.554894 0.111597 -0.394120
N3    N     N_R   0.536146 0.513076 0.612253 -0.386722
N4    N     N_R   0.569006 0.484676 0.894747 -0.390622
N5    N     N_R   0.072711 0.510642 0.106635 -0.388475
N6    N     N_R   0.940126 0.428222 0.608471 -0.394282
N7    N     N_R   0.944299 0.451230 0.891255 -0.394865
N8    N     N_R   0.464475 0.974348 0.388182 -0.386214
N9    N     N_R   0.427658 0.963901 0.111237 -0.390872
N10   N     N_R   0.531103 0.087895 0.604708 -0.386877
N11   N     N_R   0.509427 0.082080 0.894668 -0.390649
N12   N     N_R   0.461448 0.551926 0.395816 -0.389429
O1    O     O_R   0.475290 0.813700 0.278840 -0.510633
O2    O     O_2   0.389995 0.958539 0.888602 -0.508773
O3    O     O_2   0.602719 0.015088 0.386897 -0.513214
O4    O     O_2   0.537462 0.094140 0.117596 -0.489841
O5    O     O_2   0.671925 0.165712 0.599277 -0.483151
O6    O     O_2   0.626704 0.205527 0.903173 -0.466412
O7    O     O_2   0.601507 0.606047 0.392071 -0.512578
O8    O     O_2   0.497287 0.661590 0.103155 -0.487996
O9    O     O_2   0.675675 0.599895 0.606964 -0.510085
O10   O     O_2   0.531376 0.583033 0.888844 -0.509605
O11   O     O_2   0.321041 0.489469 0.401616 -0.481793
O12   O     O_R   0.475290 0.813700 0.221160 -0.518201
O13   O     O_2   0.543477 0.446104 0.117695 -0.512293
O14   O     O_2   0.394961 0.434066 0.615770 -0.510908
O15   O     O_2   0.608186 0.388540 0.903133 -0.463714
O16   O     O_R   0.448450 0.657720 0.276690 -0.493932
O17   O     O_R   0.448450 0.657720 0.223310 -0.509331
O18   O     O_R   0.524710 0.338410 0.721160 -0.505739
O19   O     O_R   0.524710 0.338410 0.778840 -0.507904
O20   O     O_R   0.551550 0.209270 0.723310 -0.502025
O21   O     O_R   0.551550 0.209270 0.776690 -0.493435
O22   O     O_R   0.661590 0.186300 0.721160 -0.507933
O23   O     O_2   0.211535 0.574942 0.402540 -0.505189
O24   O     O_R   0.661590 0.186300 0.778840 -0.512381
O25   O     O_R   0.790730 0.342280 0.723310 -0.499013
O26   O     O_R   0.790730 0.342280 0.776690 -0.497620
O27   O     O_R   0.813700 0.475290 0.721160 -0.509229
O28   O     O_R   0.813700 0.475290 0.778840 -0.499713
O29   O     O_R   0.657720 0.448450 0.723310 -0.497914
O30   O     O_R   0.657720 0.448450 0.776690 -0.499704
O31   O     O_3   0.666667 0.333333 0.750000 -0.237593
O32   O     O_R   0.338410 0.524710 0.278840 -0.493841
O33   O     O_R   0.338410 0.524710 0.221160 -0.496761
O34   O     O_2   0.211193 0.588793 0.097458 -0.483689
O35   O     O_R   0.209270 0.551550 0.276690 -0.504979
O36   O     O_R   0.209270 0.551550 0.223310 -0.507317
O37   O     O_R   0.186300 0.661590 0.278840 -0.499667
O38   O     O_R   0.186300 0.661590 0.221160 -0.504465
O39   O     O_R   0.342280 0.790730 0.276690 -0.485497
O40   O     O_R   0.342280 0.790730 0.223310 -0.491747
O41   O     O_3   0.333333 0.666667 0.250000 -0.234129
O42   O     O_2   0.934946 0.409965 0.385996 -0.500927
O43   O     O_2   0.933190 0.429971 0.113570 -0.502951
O44   O     O_2   0.802981 0.376233 0.599059 -0.439538
O45   O     O_2   0.077345 0.474140 0.615835 -0.502468
O46   O     O_2   0.808129 0.407097 0.900302 -0.452981
O47   O     O_2   0.057099 0.335654 0.309035 -0.477354
O48   O     O_2   0.065751 0.339715 0.186939 -0.485299
O49   O     O_2   0.227701 0.652423 0.516411 -0.479085
O50   O     O_2   0.317495 0.684762 0.008046 -0.520321
O51   O     O_2   0.600860 0.078053 0.297651 -0.469576
O52   O     O_2   0.585920 0.834815 0.154712 -0.502831
O53   O     O_2   0.681378 0.357365 0.646403 -0.460485
O54   O     O_2   0.736322 0.656223 0.814837 -0.497222
O55   O     O_2   0.081172 0.494133 0.884285 -0.502655
O56   O     O_2   0.328974 0.942196 0.391732 -0.513149
O57   O     O_2   0.315166 0.836796 0.102897 -0.502308
O58   O     O_2   0.389646 0.009633 0.607425 -0.513888

loop_
_geom_bond_atom_site_label_1
_geom_bond_atom_site_label_2
_ccdc_geom_bond_type
C166  O22   A    
C63   C65   A    
C198  C206  A    
C97   C147  S    
C16   N9    S    
C194  C196  A    
C39   C41   A    
C96   C145  S    
C21   C76   A    
C12   H12   S    
C161  H74   S    
C142  O10   D    
C203  N6    Am   
C89   O11   D    
C14   H13   S    
C141  N3    Am   
C88   C108  A    
C91   O13   D    
C66   N11   S    
C58   C60   A    
C184  C193  A    
C61   C63   A    
C56   H21   S    
C52   N10   Am   
C80   C86   A    
C117  C170  S    
C39   H25   S    
C170  O29   A    
C70   C74   A    
C207  C210  A    
C68   C90   A    
C212  H72   S    
C34   C81   A    
C33   C69   A    
C55   O2    D    
C195  C198  A    
C119  C128  A    
C84   H42   S    
Cr2   O33   S    
C13   N3    S    
C41   C43   A    
C31   C62   A    
C42   C44   A    
C168  O25   A    
C50   C83   A    
C146  C161  A    
C229  H28   S    
C159  C172  A    
C190  O35   A    
C127  C136  A    
C78   H32   S    
Cr4   O31   S    
C99   C116  A    
C187  C226  A    
C228  H88   S    
C25   C178  A    
C123  C126  A    
C194  H82   S    
C140  O15   D    
C128  C130  A    
C64   C66   A    
C8    C150  S    
C174  C227  A    
C88   N2    Am   
C95   H64   S    
C240  O56   D    
C43   C54   A    
C4    C26   A    
C232  C234  A    
C138  C162  A    
C160  C178  A    
C154  C155  S    
C187  C233  A    
C138  C140  A    
C227  H87   S    
C139  O14   D    
C54   N10   Am   
C166  O20   A    
C149  O50   D    
C31   C167  S    
C82   C84   A    
C90   C165  A    
C8    C28   A    
C49   C73   A    
C37   C45   A    
C187  C189  A    
C49   C175  A    
C23   O23   D    
C18   C71   A    
C147  O48   D    
C9    C151  S    
C111  C124  A    
C153  H98   S    
Cr6   O29   S    
C94   C115  A    
C56   C59   A    
C48   C164  A    
C109  H49   S    
C122  C175  A    
C221  C227  A    
C33   C38   A    
C157  H70   S    
C213  H83   S    
C229  C236  A    
C206  O46   D    
C195  H84   S    
C183  C188  A    
C137  C161  A    
C44   C55   A    
C201  C234  A    
C45   C50   A    
C76   H27   S    
C125  C157  A    
C124  H67   S    
C169  C182  S    
C23   C177  A    
C119  C126  A    
Cr3   O41   S    
C87   C107  A    
C126  C134  A    
C112  O17   A    
C132  C134  A    
C2    H77   S    
C30   C61   A    
C125  C127  A    
C198  C200  A    
C1    C115  S    
C52   O5    D    
C7    H31   S    
C157  C162  A    
C143  H52   S    
C172  C238  A    
C191  O38   A    
Cr6   O31   S    
C160  C173  A    
C77   H29   S    
C69   C77   A    
C139  N3    Am   
C99   H48   S    
C155  H3    S    
C120  C127  A    
C100  C152  S    
C105  C107  A    
C164  N1    S    
C133  C142  A    
C26   C78   A    
C96   C121  A    
C11   H11   S    
C53   O6    D    
C19   C21   A    
C216  C218  A    
C117  C186  A    
Cr5   O22   S    
C29   C215  S    
C64   H44   S    
C50   C52   A    
C13   C230  A    
C5    C27   A    
C104  N2    S    
C156  O53   D    
C80   H33   S    
C62   C64   A    
C41   H23   S    
C6    H30   S    
C124  C163  A    
C171  O19   A    
C40   C42   A    
C93   C95   A    
C226  C237  A    
Cr5   O24   S    
C201  C203  A    
C153  H100  S    
Cr6   O27   S    
C48   C72   A    
C196  C199  A    
C238  N1    Am   
C81   C83   A    
C172  C174  A    
C103  N12   S    
C40   H26   S    
C88   O8    D    
C176  C228  A    
C93   H66   S    
C71   C75   A    
C33   C40   A    
C59   H19   S    
C120  C129  A    
C175  N5    S    
C27   C80   A    
C97   C180  A    
C151  H97   S    
C154  H4    S    
C54   O58   D    
Cr5   O31   S    
C1    O32   A    
C181  C210  A    
C51   C53   A    
C192  C194  A    
C42   H24   S    
C169  O26   A    
C46   C68   A    
C36   C75   A    
C121  H16   S    
Cr3   O39   S    
C140  N4    Am   
C95   C116  A    
C185  C225  A    
C30   C59   A    
C46   C120  A    
C32   C37   A    
C222  C224  A    
C43   C45   A    
C32   C67   A    
C24   N4    S    
C152  H102  S    
C78   C85   A    
C200  C202  A    
C191  O36   A    
C142  N4    Am   
C149  H95   S    
C98   H47   S    
C233  H61   S    
C235  H2    S    
C112  C116  S    
C83   H41   S    
C189  C200  A    
C132  C141  A    
C185  C232  A    
C1    O16   A    
C216  H8    S    
C46   C113  A    
C225  C236  A    
C131  H55   S    
C60   H20   S    
C180  C191  S    
C223  C225  A    
C215  O40   A    
C156  C186  S    
C174  H38   S    
Cr1   O17   S    
C91   C114  A    
C67   C70   A    
C145  O47   D    
C112  O33   A    
C98   C115  A    
C106  C108  A    
C108  C110  A    
Cr2   O41   S    
Cr4   O19   S    
C74   C85   A    
C211  H59   S    
C25   O34   D    
C152  C153  S    
Cr5   O26   S    
C92   H65   S    
C94   H63   S    
C34   C37   A    
C208  H71   S    
C183  C192  A    
C134  C137  A    
C217  C220  A    
C193  H86   S    
C202  C204  A    
C181  C212  A    
C10   H10   S    
C239  O43   D    
C169  O28   A    
C192  H85   S    
Cr3   O37   S    
C101  C109  A    
Cr2   O35   S    
C146  H69   S    
C113  H62   S    
C240  N8    Am   
C32   C39   A    
C3    N9    Am   
C155  H104  S    
C202  C235  A    
C73   C180  A    
C35   C119  A    
C144  C197  A    
C182  C213  A    
C102  C154  S    
C214  O1    A    
C239  N5    Am   
C117  C208  A    
C105  C111  A    
C107  C109  A    
C87   N12   Am   
C73   H90   S    
C15   N8    S    
C214  O39   A    
Cr6   O30   S    
C6    C8    A    
C65   N10   S    
C100  C103  A    
Cr4   O21   S    
C205  O44   D    
C130  C132  A    
C167  O24   A    
C168  O27   A    
C128  H56   S    
C12   C15   A    
C222  C228  A    
C183  C221  A    
C173  C239  A    
C135  C165  A    
C3    C20   A    
C62   H37   S    
C55   N11   Am   
C7    C16   A    
C20   C22   A    
C72   H89   S    
C98   C100  A    
Cr2   O32   S    
C2    C219  A    
C143  C186  A    
C10   C28   A    
Cr1   O1    S    
C129  H57   S    
C207  C218  A    
C91   N2    Am   
Cr3   O38   S    
C22   C77   A    
C35   C101  A    
C4    N8    Am   
C89   N12   Am   
C209  H81   S    
C47   C51   A    
C156  H6    S    
C148  O49   D    
C35   C57   A    
C61   H36   S    
C36   C38   A    
C178  C231  A    
C144  H53   S    
C220  N7    S    
C24   C144  A    
C230  H76   S    
C182  C211  A    
C90   C125  A    
C13   C143  A    
C96   C179  A    
C151  O52   D    
C99   C102  A    
C58   H22   S    
C149  C237  S    
C199  C201  A    
C231  H39   S    
Cr4   O18   S    
C51   C84   A    
C56   C65   A    
C203  O45   D    
C31   C60   A    
C57   C105  A    
C81   H34   S    
C57   C79   A    
C153  H99   S    
Cr6   O28   S    
C49   H17   S    
C184  C222  A    
C204  O55   D    
C163  H78   S    
C106  C114  A    
C238  O42   D    
C17   C26   A    
C210  H58   S    
C48   H1    S    
C145  H91   S    
C150  H96   S    
C177  C229  A    
C11   C14   A    
C154  H5    S    
C22   H15   S    
Cr1   O12   S    
C168  C181  S    
C110  H51   S    
C158  C197  S    
C217  H9    S    
C148  H93   S    
C196  C205  A    
C69   C71   A    
C75   C86   A    
C92   C103  A    
C209  C211  A    
C6    C15   A    
C58   C66   A    
C130  H54   S    
C212  C216  A    
C36   C82   A    
C193  C195  A    
C133  C136  A    
C114  C135  A    
C123  C146  A    
C165  H79   S    
C44   C47   A    
C9    C29   A    
C170  O18   A    
C17   C70   A    
C118  C171  S    
C68   C106  A    
C159  C177  A    
C93   C104  A    
C92   C94   A    
C23   N1    Am   
C28   C214  S    
C85   H45   S    
C87   O7    D    
C86   H46   S    
C53   N11   Am   
C30   C166  S    
C205  N6    Am   
C136  C138  A    
C213  C217  A    
C185  C188  A    
C101  H60   S    
C188  C199  A    
C121  C164  A    
C79   C123  A    
Cr1   O16   S    
C148  C236  S    
C4    O3    D    
C5    N9    Am   
C97   C122  A    
C150  O51   D    
C232  H50   S    
C147  H92   S    
C135  H68   S    
C234  H94   S    
Cr1   O41   S    
Cr4   O20   S    
C206  N7    Am   
C102  C104  A    
C233  C235  A    
C110  C113  A    
C38   C47   A    
C10   C12   A    
C162  H75   S    
C218  N6    S    
C34   C74   A    
C2    C24   A    
C171  O30   A    
Cr5   O25   S    
C14   C16   A    
C167  O21   A    
C5    O4    D    
C204  N7    Am   
C215  O12   A    
C63   H43   S    
C173  C176  A    
C7    C9    A    
C160  C224  A    
C137  C139  A    
C209  C220  A    
C25   N5    Am   
C18   C27   A    
C79   C163  A    
C131  C133  A    
C224  C226  A    
C21   H14   S    
C89   C111  A    
C3    O57   D    
C190  O37   A    
C231  C237  A    
C158  H7    S    
C221  C223  A    
C19   C240  A    
C158  O54   D    
C118  C197  A    
Cr3   O40   S    
C122  H18   S    
C141  O9    D    
C179  C190  S    
C176  H40   S    
C159  C223  A    
Cr2   O36   S    
C17   C19   A    
C18   C20   A    
C155  H103  S    
C152  H101  S    
C11   C29   A    
C118  C219  A    
C207  H80   S    
C184  C189  A    
C67   C76   A    
C72   C179  A    
C82   H35   S    
C219  H73   S    
C208  C230  A    
C129  C131  A    
