data_mof_unit_42108.cif
_audit_creation_date              2012-12-10T20:57:59-0500
_audit_creation_method            fapswitch 2.2
_symmetry_space_group_name_H-M    P1
_symmetry_Int_Tables_number       1
_space_group_crystal_system       triclinic
_cell_length_a                    18.208758
_cell_length_b                    18.247623
_cell_length_c                    18.392346
_cell_angle_alpha                 120.021588
_cell_angle_beta                  89.905928
_cell_angle_gamma                 120.006389
_cell_volume                      4322.95444527

loop_
_atom_site_label
_atom_site_type_symbol
_atom_type_description
_atom_site_fract_x
_atom_site_fract_y
_atom_site_fract_z
_atom_type_partial_charge
C1    C     C_R   0.357834 0.220121 0.361105 0.783198
C2    C     C_3   0.353395 0.605038 0.309303 -0.156917
C3    C     C_3   0.300526 0.501151 0.302060 0.114163
C4    C     C_3   0.197339 0.499144 0.199683 0.187871
C5    C     C_3   0.155308 0.484678 0.268962 -0.388372
C6    C     C_3   0.291405 0.603653 0.249888 -0.450492
C7    C     C_3   0.676543 0.940954 0.655231 -0.384169
C8    C     C_3   0.736419 0.060980 0.715498 -0.405720
C9    C     C_3   0.682750 0.937685 0.790119 -0.402841
C10   C     C_3   0.800164 0.941528 0.716995 -0.389435
C11   C     C_3   0.698906 0.897565 0.699140 0.200657
C12   C     C_R   0.641026 0.781037 0.640047 0.743256
C13   C     C_3   0.799529 0.102397 0.803048 0.211716
C14   C     C_3   0.741011 0.057798 0.850647 -0.398286
C15   C     C_3   0.858852 0.060829 0.778025 -0.387744
C16   C     C_3   0.677842 0.390731 0.240125 -0.400465
C17   C     C_3   0.737527 0.390637 0.180280 -0.403314
C18   C     C_3   0.681509 0.532955 0.244477 -0.398690
C19   C     C_3   0.799700 0.577544 0.360086 -0.391950
C20   C     C_3   0.698703 0.500375 0.302385 0.212062
C21   C     C_3   0.799857 0.500144 0.200684 0.215116
C22   C     C_3   0.740934 0.532546 0.184382 -0.403224
C23   C     C_R   0.359897 0.501228 0.641343 0.781260
C24   C     C_3   0.858884 0.577697 0.300643 -0.386553
C25   C     C_R   0.290663 0.136281 0.579718 -0.138302
C26   C     C_R   0.292936 0.093208 0.492733 -0.138342
C27   C     C_R   0.251028 0.098686 0.433379 0.154274
C28   C     C_R   0.206065 0.146789 0.461763 -0.119061
C29   C     C_R   0.203478 0.189217 0.548713 -0.128499
C30   C     C_R   0.245828 0.184019 0.607616 -0.122636
C31   C     C_R   0.201454 0.943610 0.285278 -0.264977
C32   C     C_R   0.197180 0.892299 0.196340 -0.050837
C33   C     C_R   0.245270 0.949364 0.161897 0.021453
C34   C     C_R   0.640824 0.500095 0.359549 0.741935
C35   C     C_R   0.295176 0.056393 0.217109 -0.263984
C36   C     C_R   0.299720 0.107762 0.306100 -0.053554
C37   C     C_R   0.251865 0.050746 0.340756 -0.011413
C38   C     C_R   0.297990 0.858253 0.046790 -0.234989
C39   C     C_R   0.306098 0.818382 0.961562 0.608380
C40   C     C_R   0.261880 0.818382 0.899260 -0.218202
C41   C     C_R   0.212839 0.861137 0.922637 -0.230008
C42   C     C_R   0.207115 0.903611 0.008263 -0.139120
C43   C     C_R   0.249144 0.901699 0.070536 0.085379
C44   C     C_R   0.913948 0.702448 0.618866 -0.130658
C45   C     C_R   0.641902 0.500276 0.640229 0.791656
C46   C     C_R   0.865935 0.627078 0.635215 -0.105952
C47   C     C_R   0.843668 0.652928 0.713561 0.160549
C48   C     C_R   0.871307 0.755135 0.775946 -0.149395
C49   C     C_R   0.919744 0.830365 0.759552 -0.154296
C50   C     C_R   0.940655 0.803948 0.680892 -0.106383
C51   C     C_R   0.842026 0.571431 0.786166 -0.263009
C52   C     C_R   0.799324 0.498863 0.806278 -0.050534
C53   C     C_R   0.704743 0.426785 0.771403 -0.019470
C54   C     C_R   0.655637 0.428675 0.716261 -0.260687
C55   C     C_R   0.698367 0.501254 0.696118 -0.050784
C56   C     C_R   0.358228 0.500419 0.359396 0.747395
C57   C     C_R   0.792925 0.573512 0.731219 -0.020396
C58   C     C_R   0.626738 0.245967 0.728848 -0.147407
C59   C     C_R   0.579900 0.172190 0.747128 -0.145705
C60   C     C_R   0.560294 0.200198 0.826519 -0.107360
C61   C     C_R   0.586803 0.301837 0.887455 -0.127088
C62   C     C_R   0.633177 0.375711 0.869202 -0.105678
C63   C     C_R   0.654130 0.348302 0.790110 0.156295
C64   C     C_R   0.386897 0.792251 0.706914 -0.170935
C65   C     C_R   0.369454 0.726474 0.732700 -0.065484
C66   C     C_R   0.285957 0.629815 0.690394 0.149798
C67   C     C_3   0.269199 0.411391 0.202461 -0.415829
C68   C     C_R   0.219921 0.600501 0.622906 -0.205373
C69   C     C_R   0.237668 0.666550 0.597307 -0.125308
C70   C     C_R   0.321028 0.762345 0.639332 -0.053950
C71   C     C_R   0.210343 0.554221 0.769061 -0.180015
C72   C     C_R   0.193516 0.496561 0.803693 -0.044291
C73   C     C_R   0.231862 0.440550 0.784509 -0.016810
C74   C     C_R   0.287451 0.445936 0.733086 -0.271989
C75   C     C_R   0.304617 0.503964 0.698811 -0.062410
C76   C     C_R   0.266935 0.560772 0.718597 0.010460
C77   C     C_R   0.281289 0.412467 0.889243 -0.143417
C78   C     C_3   0.208957 0.410327 0.142831 -0.391321
C79   C     C_R   0.266623 0.350338 0.918548 -0.155558
C80   C     C_R   0.186971 0.250886 0.874901 -0.111887
C81   C     C_R   0.122125 0.213031 0.801387 -0.129680
C82   C     C_R   0.136620 0.274777 0.771675 -0.121524
C83   C     C_R   0.216067 0.375233 0.816009 0.148555
C84   C     C_R   0.857102 0.499944 0.142862 0.736152
C85   C     C_R   0.138031 0.498981 0.861021 0.798716
C86   C     C_R   0.856869 0.218962 0.862125 0.729330
C87   C     C_R   0.139722 0.779906 0.141179 0.789929
C88   C     C_R   0.855840 0.499781 0.862051 0.792038
C89   C     C_3   0.214340 0.482616 0.327181 -0.378462
C90   C     C_R   0.139102 0.499145 0.142623 0.752942
H1    H     H_    0.231286 0.335480 0.193602 0.180716
H2    H     H_    0.284121 0.668359 0.289954 0.193571
H3    H     H_    0.231286 0.541379 0.398653 0.215049
H4    H     H_    0.148597 0.549056 0.312585 0.194882
H5    H     H_    0.604782 0.912761 0.644022 0.176213
H6    H     H_    0.686545 0.912665 0.589263 0.168909
H7    H     H_    0.776939 0.090638 0.679346 0.152452
H8    H     H_    0.692956 0.089346 0.730687 0.179163
H9    H     H_    0.610565 0.907323 0.779875 0.166341
H10   H     H_    0.696461 0.084602 0.867986 0.171838
H11   H     H_    0.818291 0.912276 0.749158 0.177657
H12   H     H_    0.328393 0.420330 0.180512 0.177421
H13   H     H_    0.814384 0.914951 0.653048 0.171211
H14   H     H_    0.901453 0.091176 0.743294 0.167191
H15   H     H_    0.904723 0.088184 0.839288 0.170605
H16   H     H_    0.699549 0.908949 0.823805 0.148806
H17   H     H_    0.784867 0.086698 0.913935 0.146183
H18   H     H_    0.605849 0.333442 0.197468 0.177509
H19   H     H_    0.689942 0.365908 0.280409 0.148865
H20   H     H_    0.778592 0.365979 0.191794 0.147407
H21   H     H_    0.693957 0.333225 0.109147 0.176259
H22   H     H_    0.609533 0.478827 0.202113 0.175037
H23   H     H_    0.239826 0.419284 0.093053 0.185516
H24   H     H_    0.697313 0.477977 0.113380 0.172389
H25   H     H_    0.817032 0.657258 0.405751 0.175743
H26   H     H_    0.814097 0.555418 0.401875 0.168164
H27   H     H_    0.902061 0.556405 0.314547 0.171071
H28   H     H_    0.904127 0.657407 0.317598 0.176041
H29   H     H_    0.696538 0.611765 0.287958 0.154647
H30   H     H_    0.784454 0.611078 0.198663 0.151464
H31   H     H_    0.243993 0.216887 0.674883 0.137104
H32   H     H_    0.323386 0.132330 0.625409 0.131979
H33   H     H_    0.327479 0.055883 0.471624 0.126196
H34   H     H_    0.142194 0.334131 0.105615 0.170616
H35   H     H_    0.172878 0.150912 0.416521 0.098290
H36   H     H_    0.168572 0.225996 0.570395 0.122861
H37   H     H_    0.163759 0.900114 0.311698 0.171197
H38   H     H_    0.333118 0.099800 0.190694 0.169900
H39   H     H_    0.330150 0.856114 0.094509 0.123402
H40   H     H_    0.266043 0.786013 0.832880 0.153478
H41   H     H_    0.179528 0.861718 0.874433 0.156962
H42   H     H_    0.169623 0.937455 0.025978 0.133537
H43   H     H_    0.977855 0.862217 0.668192 0.114905
H44   H     H_    0.175161 0.406051 0.317074 0.144034
H45   H     H_    0.930679 0.682296 0.558270 0.112694
H46   H     H_    0.845548 0.548658 0.586811 0.104330
H47   H     H_    0.855188 0.776285 0.836955 0.114480
H48   H     H_    0.941105 0.909163 0.807836 0.114010
H49   H     H_    0.914510 0.627225 0.813044 0.177242
H50   H     H_    0.583151 0.372934 0.689456 0.177492
H51   H     H_    0.642128 0.223699 0.667434 0.118348
H52   H     H_    0.558902 0.093340 0.699829 0.119985
H53   H     H_    0.524401 0.143093 0.840711 0.113049
H54   H     H_    0.571470 0.323373 0.948833 0.111430
H55   H     H_    0.086628 0.411173 0.234306 0.141175
H56   H     H_    0.653698 0.454336 0.916917 0.105599
H57   H     H_    0.334553 0.813493 0.619634 0.151086
H58   H     H_    0.451378 0.866441 0.739376 0.113051
H59   H     H_    0.421005 0.750232 0.784946 0.129253
H60   H     H_    0.155068 0.526566 0.590085 0.121187
H61   H     H_    0.186768 0.643541 0.544956 0.130163
H62   H     H_    0.180604 0.596489 0.782718 0.164693
H63   H     H_    0.317361 0.403885 0.719678 0.177353
H64   H     H_    0.343134 0.489472 0.923588 0.125051
H65   H     H_    0.317000 0.379304 0.975125 0.118362
H66   H     H_    0.175651 0.203045 0.897859 0.115374
H67   H     H_    0.060810 0.135755 0.767308 0.111727
H68   H     H_    0.086123 0.244732 0.714527 0.103462
H69   H     H_    0.409136 0.609023 0.282353 0.114418
H70   H     H_    0.322390 0.615329 0.201056 0.143815
O1    O     O_3   0.500000 0.500000 0.500000 -0.476014
O2    O     O_R   0.383400 0.560740 0.616060 -0.640651
O3    O     O_R   0.555060 0.439270 0.322940 -0.649580
O4    O     O_R   0.383950 0.268380 0.445700 -0.632556
O5    O     O_R   0.677590 0.731610 0.615290 -0.642024
O6    O     O_3   0.997750 0.500010 0.002220 -0.473873
O7    O     O_R   0.942690 0.560750 0.179280 -0.652553
O8    O     O_R   0.114340 0.439270 0.886160 -0.635751
O9    O     O_R   0.820160 0.268410 0.886930 -0.638447
O10   O     O_R   0.113800 0.731630 0.056520 -0.632226
O11   O     O_R   0.819390 0.439310 0.886160 -0.635943
O12   O     O_R   0.383400 0.268380 0.323710 -0.652351
O13   O     O_R   0.115110 0.560720 0.179280 -0.647234
O14   O     O_R   0.941380 0.560750 0.885620 -0.651997
O15   O     O_R   0.115110 0.439270 0.057830 -0.642598
O16   O     O_R   0.942690 0.268390 0.886930 -0.648735
O17   O     O_R   0.114340 0.731630 0.178520 -0.649118
O18   O     O_R   0.820160 0.439310 0.057830 -0.646018
O19   O     O_R   0.113800 0.560730 0.885620 -0.641870
O20   O     O_R   0.555060 0.731630 0.615290 -0.635039
O21   O     O_R   0.383950 0.439280 0.616600 -0.639946
O22   O     O_R   0.677590 0.560710 0.444390 -0.647498
O23   O     O_R   0.556370 0.439260 0.616600 -0.649826
O24   O     O_R   0.382640 0.439290 0.322940 -0.651293
O25   O     O_R   0.678360 0.560700 0.616060 -0.637736
O26   O     O_R   0.382640 0.560750 0.444390 -0.619445
Zn1   Zn    Zn3+2 0.456040 0.586770 0.543190 0.987335
Zn2   Zn    Zn3+2 0.456820 0.413240 0.543960 0.966603
Zn3   Zn    Zn3+2 0.631110 0.586750 0.543190 0.964169
Zn4   Zn    Zn3+2 0.456040 0.413240 0.369660 0.947176
Zn5   Zn    Zn3+2 0.041710 0.413240 0.959030 0.962264
Zn6   Zn    Zn3+2 0.866640 0.413270 0.959030 0.958932
Zn7   Zn    Zn3+2 0.040930 0.586780 0.958260 0.971151
Zn8   Zn    Zn3+2 0.041710 0.586770 0.132560 0.948059
O27   O     O_3   0.352314 0.773364 0.936616 -0.616900
C91   C     C_3   0.445277 0.852219 0.977517 -0.401440
H71   H     H_    0.465703 0.893454 0.051050 0.168353
H72   H     H_    0.465765 0.908130 0.959689 0.157924
H73   H     H_    0.482106 0.816128 0.952949 0.195284
C92   C     C_2   0.396867 0.701948 0.403489 0.933339
O28   O     O_2   0.350832 0.721408 0.447643 -0.659381
O29   O     O_R   0.490506 0.770648 0.439020 -0.835231
H74   H     H_    0.511763 0.834413 0.500952 0.327678

loop_
_geom_bond_atom_site_label_1
_geom_bond_atom_site_label_2
_ccdc_geom_bond_type
C66   C68   A    
C8    C13   S    
C80   C81   A    
C86   O9    A    
C41   C42   A    
C54   C55   A    
C35   C36   A    
O6    Zn7   S    
C31   H37   S    
C8    H7    S    
C17   H20   S    
C72   C85   S    
C7    C8    S    
C53   C54   A    
O1    Zn4   S    
C7    C11   S    
C7    H6    S    
C90   O13   A    
C24   H27   S    
C62   C63   A    
O8    Zn5   S    
C48   H47   S    
C2    C92   S    
C28   C29   A    
C18   H22   S    
C23   O21   A    
O1    Zn2   S    
C10   C15   S    
C60   H53   S    
O15   Zn5   S    
O2    Zn1   S    
C82   H68   S    
C47   C57   S    
C77   C83   A    
C58   C63   A    
C88   O14   A    
C18   C20   S    
O6    Zn5   S    
C73   C74   A    
C22   H24   S    
C8    H8    S    
C68   C69   A    
C54   H50   S    
C47   C48   A    
C59   H52   S    
C92   O28   D    
C13   C86   S    
C48   C49   A    
O5    Zn3   S    
C21   C84   S    
C80   H66   S    
C51   C57   A    
O22   Zn3   S    
C64   C70   A    
C15   H14   S    
C78   H34   S    
C25   H32   S    
C86   O16   A    
C16   C20   S    
C72   C73   A    
C23   O2    A    
C20   C34   S    
C44   H45   S    
C59   C60   A    
C9    H9    S    
C88   O11   A    
C21   C22   S    
C64   H58   S    
C65   H59   S    
C2    C6    S    
C67   C78   S    
C91   H73   S    
C17   H21   S    
O21   Zn2   S    
C44   C46   A    
C16   H19   S    
C5    H4    S    
C4    C90   S    
C77   C79   A    
C69   C70   A    
C38   C39   A    
C29   H36   S    
C9    H16   S    
C5    H55   S    
C74   C75   A    
C51   C52   A    
C33   C43   S    
C38   H39   S    
C52   C88   S    
C81   H67   S    
C1    O4    A    
C4    C6    S    
C34   O3    A    
O29   H74   S    
C12   O5    A    
C41   H41   S    
C9    C14   S    
C16   C17   S    
O16   Zn5   S    
O27   C91   S    
C56   O24   A    
O12   Zn4   S    
C25   C26   A    
C32   C87   S    
C39   O27   S    
C90   O15   A    
C81   C82   A    
C31   C37   A    
C74   H63   S    
C60   C61   A    
C46   H46   S    
C69   H61   S    
C22   H30   S    
C75   C76   A    
C4    C78   S    
C29   C30   A    
O20   Zn1   S    
C77   H64   S    
C87   O17   A    
O18   Zn6   S    
C3    C56   S    
C61   H54   S    
C31   C32   A    
C30   H31   S    
C19   H25   S    
C85   O19   A    
C66   C76   S    
C67   H1    S    
C26   C27   A    
C34   O22   A    
C52   C53   A    
C84   O18   A    
C9    C11   S    
C10   H13   S    
C26   H33   S    
O25   Zn3   S    
C49   H48   S    
C91   H72   S    
C40   C41   A    
C12   O20   A    
C56   O26   A    
C49   C50   A    
C13   C15   S    
O7    Zn8   S    
O24   Zn4   S    
C78   H23   S    
C42   C43   A    
C2    H69   S    
C14   H17   S    
C39   C40   A    
C28   H35   S    
C45   O23   A    
O19   Zn7   S    
C44   C50   A    
C25   C30   A    
C40   H40   S    
C46   C47   A    
C36   C37   A    
C89   H44   S    
C18   C22   S    
C85   O8    A    
C10   H11   S    
C3    C67   S    
O6    Zn8   S    
C23   C75   S    
C91   H71   S    
O4    Zn2   S    
C50   H43   S    
O10   Zn7   S    
C6    H70   S    
C11   C12   S    
C14   H10   S    
C7    H5    S    
C1    O12   A    
C24   H28   S    
C1    C36   S    
C3    C89   S    
C32   C33   A    
C15   H15   S    
C19   C20   S    
C55   C57   A    
C2    C3    S    
C58   C59   A    
O1    Zn3   S    
C38   C43   A    
O1    Zn1   S    
C84   O7    A    
O23   Zn2   S    
C64   C65   A    
C53   C63   S    
C58   H51   S    
C45   O25   A    
C71   C76   A    
C19   H26   S    
C27   C37   S    
C6    H2    S    
C33   C35   A    
O11   Zn6   S    
C19   C24   S    
O3    Zn4   S    
O6    Zn6   S    
C65   C66   A    
C89   H3    S    
C61   C62   A    
C17   C21   S    
O17   Zn8   S    
O13   Zn8   S    
C68   H60   S    
C10   C11   S    
C16   H18   S    
C79   H65   S    
C79   C80   A    
C4    C5    S    
C71   C72   A    
C45   C55   S    
O14   Zn7   S    
C92   O29   S    
C82   C83   A    
C62   H56   S    
C21   C24   S    
C35   H38   S    
C71   H62   S    
C42   H42   S    
C70   H57   S    
O9    Zn6   S    
O26   Zn1   S    
C13   C14   S    
C18   H29   S    
C73   C83   S    
C5    C89   S    
C87   O10   A    
C67   H12   S    
C27   C28   A    
C51   H49   S    
