data_mof_unit_31910.cif
_audit_creation_date              2012-12-10T18:43:44-0500
_audit_creation_method            fapswitch 2.2
_symmetry_space_group_name_H-M    P1
_symmetry_Int_Tables_number       1
_space_group_crystal_system       triclinic
_cell_length_a                    10.743772
_cell_length_b                    10.701487
_cell_length_c                    9.847785
_cell_angle_alpha                 90.84071
_cell_angle_beta                  105.537768
_cell_angle_gamma                 89.96315
_cell_volume                      1090.73992694

loop_
_atom_site_label
_atom_site_type_symbol
_atom_type_description
_atom_site_fract_x
_atom_site_fract_y
_atom_site_fract_z
_atom_type_partial_charge
C1    C     C_R   0.500220 0.260052 0.498832 1.053151
C2    C     C_R   0.499778 0.739948 0.501168 1.053153
C3    C     C_R   0.257939 0.503211 0.439354 0.851696
C4    C     C_R   0.742060 0.496790 0.560646 0.851646
C5    C     C_R   0.592360 0.564287 0.099490 0.662125
C6    C     C_R   0.407640 0.435713 0.900510 0.662124
C7    C     C_R   0.592653 0.563502 0.955834 -0.335266
C8    C     C_R   0.407346 0.436499 0.044166 -0.335264
C9    C     C_2   0.119637 0.486853 0.399025 0.305947
C10   C     C_2   0.880362 0.513151 0.600978 0.305958
C11   C     C_2   0.054647 0.535326 0.486446 0.358774
C12   C     C_2   0.945359 0.464675 0.513566 0.358738
C13   C     C_R   0.433237 0.061427 0.375903 0.375894
C14   C     C_R   0.566739 0.938575 0.624103 0.375922
C15   C     C_R   0.428128 0.932904 0.381792 0.492945
C16   C     C_R   0.571859 0.067096 0.618212 0.492968
C17   C     C_R   0.497962 0.872366 0.503145 -0.457549
C18   C     C_R   0.502031 0.127635 0.496855 -0.457555
H1    H     H_    0.667018 0.613676 0.923531 0.202305
H2    H     H_    0.332979 0.386329 0.076469 0.202275
N1    N     N_R   0.499970 0.499970 0.857200 -0.148202
N2    N     N_R   0.500030 0.500030 0.142800 -0.148199
O1    O     O_R   0.499990 0.316750 0.614620 -0.530395
O2    O     O_R   0.500010 0.683250 0.385380 -0.530408
O3    O     O_R   0.499990 0.316780 0.385290 -0.626534
O4    O     O_R   0.500010 0.683220 0.614710 -0.626528
O5    O     O_R   0.317810 0.500000 0.571850 -0.609510
O6    O     O_R   0.682190 0.500000 0.428150 -0.609506
O7    O     O_R   0.317810 0.500030 0.342520 -0.602024
O8    O     O_R   0.682190 0.499970 0.657480 -0.602027
Zn1   Zn    Zn3+2 0.500000 0.499980 0.653120 1.029390
Zn2   Zn    Zn3+2 0.500000 0.500020 0.346880 1.029386
O9    O     O_3   0.936533 0.336159 0.486840 -0.603050
C19   C     C_3   0.837249 0.306035 0.364360 -0.141074
H3    H     H_    0.869241 0.225458 0.310199 0.214104
H4    H     H_    0.812894 0.383104 0.286947 0.164913
H5    H     H_    0.749942 0.275196 0.394479 0.144273
O10   O     O_3   0.063492 0.663839 0.513194 -0.603045
C20   C     C_3   0.162762 0.693937 0.635696 -0.141108
H6    H     H_    0.187107 0.616851 0.713086 0.164916
H7    H     H_    0.130762 0.774499 0.689874 0.214094
H8    H     H_    0.250078 0.724790 0.605604 0.144292
F1    F     F_    0.684262 0.630346 0.194411 -0.652377
F2    F     F_    0.315738 0.369654 0.805589 -0.652387
O11   O     O_3   0.928656 0.611835 0.691955 -0.575209
C21   C     C_3   0.973074 0.563967 0.829003 -0.309814
H9    H     H_    0.048708 0.491435 0.834822 0.172718
H10   H     H_    0.892108 0.525594 0.866389 0.178117
H11   H     H_    0.017458 0.641436 0.901969 0.207474
O12   O     O_3   0.071337 0.388170 0.308049 -0.575200
C22   C     C_3   0.026904 0.436041 0.171004 -0.309809
H12   H     H_    0.107861 0.474424 0.133610 0.178102
H13   H     H_    0.951264 0.508566 0.165195 0.172735
H14   H     H_    0.982522 0.358571 0.098038 0.207480
O13   O     O_3   0.361170 0.122701 0.257899 -0.535415
C23   C     C_3   0.424100 0.110836 0.149450 -0.158464
H15   H     H_    0.521779 0.154642 0.180981 0.128406
H16   H     H_    0.366252 0.160053 0.055293 0.190854
H17   H     H_    0.431545 0.011747 0.117123 0.182905
O14   O     O_3   0.638740 0.877310 0.742146 -0.535393
C24   C     C_3   0.575691 0.889149 0.850497 -0.158515
H18   H     H_    0.633481 0.839943 0.944693 0.190859
H19   H     H_    0.478026 0.845315 0.818867 0.128391
H20   H     H_    0.568182 0.988235 0.882800 0.182854
F3    F     F_    0.351869 0.867503 0.271003 -0.631054
F4    F     F_    0.648096 0.132493 0.729020 -0.631007

loop_
_geom_bond_atom_site_label_1
_geom_bond_atom_site_label_2
_ccdc_geom_bond_type
C24   H20   S    
C8    N2    A    
C11   C12   S    
O2    Zn2   S    
C3    C9    S    
O7    Zn2   S    
C19   H5    S    
N1    Zn1   S    
C19   H4    S    
C21   H11   S    
C23   H17   S    
O13   C23   S    
C22   H14   S    
C13   O13   S    
C10   O11   S    
C3    O5    A    
O9    C19   S    
C5    F1    S    
C5    C7    A    
O4    Zn1   S    
C2    O4    A    
C6    F2    S    
O11   C21   S    
C2    C17   S    
C1    O3    A    
C9    C11   D    
C14   C17   A    
C3    O7    A    
C1    C18   S    
O8    Zn1   S    
N2    Zn2   S    
C13   C18   A    
C8    H2    S    
C10   C12   D    
C16   C18   A    
C4    O6    A    
C23   H16   S    
C1    O1    A    
C20   H8    S    
C7    H1    S    
C13   C15   A    
C2    O2    A    
C24   H18   S    
C14   C16   A    
C16   F4    S    
C9    O12   S    
C20   H6    S    
C4    C10   S    
C22   H12   S    
C15   F3    S    
C21   H10   S    
O6    Zn2   S    
O10   C20   S    
C23   H15   S    
C20   H7    S    
C19   H3    S    
C14   O14   S    
C15   C17   A    
C21   H9    S    
C11   O10   S    
C6    C8    A    
O12   C22   S    
C12   O9    S    
C7    N1    A    
C6    N1    A    
O5    Zn1   S    
C24   H19   S    
C4    O8    A    
C5    N2    A    
O14   C24   S    
C22   H13   S    
O3    Zn2   S    
O1    Zn1   S    
