data_mof_unit_14205.cif
_audit_creation_date              2012-12-11T14:34:16-0500
_audit_creation_method            fapswitch 2.2
_symmetry_space_group_name_H-M    P1
_symmetry_Int_Tables_number       1
_space_group_crystal_system       triclinic
_cell_length_a                    14.009994
_cell_length_b                    14.005967
_cell_length_c                    27.183292
_cell_angle_alpha                 90.00757
_cell_angle_beta                  89.819234
_cell_angle_gamma                 119.53872
_cell_volume                      4640.67282011

loop_
_atom_site_label
_atom_site_type_symbol
_atom_type_description
_atom_site_fract_x
_atom_site_fract_y
_atom_site_fract_z
_atom_type_partial_charge
C1    C     C_R   0.234878 0.786722 0.568970 0.535625
C2    C     C_1   0.695027 0.856927 0.862850 -0.066372
C3    C     C_1   0.141270 0.840547 0.861968 -0.069582
C4    C     C_1   0.164391 0.304569 0.862714 -0.027038
C5    C     C_1   0.619326 0.813952 0.660243 0.015556
C6    C     C_1   0.186405 0.808726 0.659708 0.020494
C7    C     C_1   0.193368 0.378292 0.659979 0.049050
C8    C     C_1   0.595261 0.794814 0.617574 0.061117
C9    C     C_1   0.204661 0.801636 0.617138 0.055078
C10   C     C_1   0.198882 0.403023 0.617333 0.064834
C11   C     C_R   0.063299 0.147769 0.095031 0.580562
C12   C     C_R   0.213335 0.447979 0.569070 0.532182
C13   C     C_R   0.776497 0.883850 0.087602 0.545710
C14   C     C_R   0.115278 0.894027 0.088779 0.541956
C15   C     C_R   0.108088 0.222000 0.951667 0.572959
C16   C     C_R   0.778299 0.886437 0.951628 0.556826
C17   C     C_R   0.113747 0.892501 0.951463 0.557669
C18   C     C_R   0.631302 0.901877 0.360936 0.061128
C19   C     C_R   0.087053 0.751856 0.369173 0.105264
C20   C     C_R   0.251984 0.338513 0.365015 0.042882
C21   C     C_R   0.635476 0.907402 0.308978 0.030151
C22   C     C_R   0.075171 0.757306 0.317801 0.053838
C23   C     C_R   0.551505 0.764875 0.569180 0.544083
C24   C     C_R   0.228630 0.287321 0.318495 0.063285
C25   C     C_R   0.661775 0.923819 0.205858 0.022301
C26   C     C_R   0.057598 0.765802 0.214560 0.014945
C27   C     C_R   0.185891 0.200589 0.222240 0.015635
C28   C     C_R   0.231342 0.791301 0.433345 0.582217
C29   C     C_R   0.213639 0.448745 0.429642 0.561579
C30   C     C_R   0.556396 0.767443 0.431595 0.568696
C31   C     C_R   0.653871 0.005398 0.232188 -0.150520
C32   C     C_R   0.971111 0.684510 0.242084 -0.113678
C33   C     C_R   0.283871 0.224232 0.245744 -0.140822
C34   C     C_3   0.597895 0.724072 0.795055 -0.229974
C35   C     C_R   0.640630 0.997368 0.283239 -0.111860
C36   C     C_R   0.980484 0.679212 0.293014 -0.013175
C37   C     C_R   0.304716 0.266270 0.293542 -0.059535
C38   C     C_R   0.695608 0.939817 0.156495 -0.144855
C39   C     C_R   0.047067 0.775611 0.163780 -0.129291
C40   C     C_R   0.169908 0.172418 0.172306 -0.128102
C41   C     C_R   0.709553 0.859203 0.132134 -0.006439
C42   C     C_R   0.133530 0.860056 0.137191 -0.005248
C43   C     C_R   0.075648 0.159937 0.148361 -0.008382
C44   C     C_R   0.635352 0.729421 0.357495 0.230670
C45   C     C_3   0.258624 0.825623 0.796569 -0.246247
C46   C     C_R   0.260824 0.922982 0.365608 0.227644
C47   C     C_R   0.095437 0.369132 0.354611 0.183379
C48   C     C_R   0.628555 0.728908 0.306150 -0.000347
C49   C     C_R   0.255648 0.923732 0.314138 0.003806
C50   C     C_R   0.056682 0.291602 0.316758 0.002120
C51   C     C_R   0.632859 0.820012 0.281875 -0.003760
C52   C     C_R   0.162396 0.840176 0.290187 -0.007663
C53   C     C_R   0.128863 0.260887 0.295298 0.001598
C54   C     C_R   0.618221 0.639479 0.278370 -0.078909
C55   C     C_R   0.343295 0.003157 0.285918 -0.082068
C56   C     C_3   0.105733 0.378377 0.793432 -0.237012
C57   C     C_R   0.952820 0.255384 0.295810 -0.078960
C58   C     C_R   0.626118 0.645873 0.227505 -0.143660
C59   C     C_R   0.337801 0.001405 0.234929 -0.149854
C60   C     C_R   0.928677 0.206383 0.249841 -0.115252
C61   C     C_R   0.644696 0.741742 0.203653 0.017190
C62   C     C_R   0.243140 0.923099 0.211185 0.021823
C63   C     C_R   0.006976 0.191045 0.224711 0.023040
C64   C     C_3   0.584444 0.891207 0.738040 0.136571
C65   C     C_3   0.073344 0.707183 0.733687 0.139937
C66   C     C_3   0.305799 0.419904 0.737287 0.124684
C67   C     C_3   0.587222 0.714223 0.738325 -0.245062
C68   C     C_R   0.643856 0.827541 0.230354 0.073587
C69   C     C_R   0.154689 0.842279 0.238614 0.071309
C70   C     C_R   0.105937 0.214274 0.247987 0.066282
C71   C     C_R   0.673446 0.756689 0.154282 -0.125398
C72   C     C_R   0.233457 0.928606 0.160588 -0.130553
C73   C     C_R   0.991545 0.161603 0.175435 -0.124946
C74   C     C_R   0.617959 0.805477 0.384594 0.009751
C75   C     C_R   0.188385 0.825504 0.391036 0.008973
C76   C     C_R   0.186586 0.383062 0.383257 -0.017137
C77   C     C_3   0.766111 0.892409 0.724552 0.012660
C78   C     C_3   0.275686 0.831045 0.740023 -0.270935
C79   C     C_3   0.151717 0.914486 0.725231 0.021244
C80   C     C_3   0.133445 0.232587 0.724198 0.014824
C81   C     C_3   0.784474 0.894197 0.781189 0.036851
C82   C     C_3   0.156451 0.931718 0.782104 0.030268
C83   C     C_3   0.138867 0.216016 0.781154 0.011552
C84   C     C_1   0.726699 0.869576 0.904689 -0.016557
C85   C     C_1   0.129855 0.858967 0.904080 -0.017632
C86   C     C_1   0.143513 0.273352 0.904626 0.001795
C87   C     C_3   0.640440 0.829422 0.713390 0.018952
C88   C     C_3   0.171228 0.815965 0.712720 0.025553
C89   C     C_3   0.119585 0.404208 0.737697 -0.254291
C90   C     C_3   0.188641 0.357679 0.713157 0.055778
C91   C     C_3   0.615142 0.910934 0.793686 -0.220348
C92   C     C_3   0.053164 0.724953 0.788581 -0.223275
C93   C     C_3   0.296561 0.405769 0.794480 -0.225416
C94   C     C_3   0.672897 0.845529 0.809692 0.005806
C95   C     C_3   0.153245 0.830974 0.808848 0.004340
C96   C     C_3   0.176015 0.326091 0.809431 0.030791
Cr1   Cr    Cr6+3 0.164410 0.584450 0.499910 1.122105
Cr2   Cr    Cr6+3 0.415550 0.579960 0.499910 1.093727
Cr3   Cr    Cr6+3 0.420040 0.835590 0.499910 1.115001
Cr4   Cr    Cr6+3 0.155170 0.075460 0.019960 1.024158
Cr5   Cr    Cr6+3 0.924540 0.079710 0.019960 1.022507
Cr6   Cr    Cr6+3 0.920290 0.844830 0.019960 1.019818
H1    H     H_    0.670336 0.999743 0.801128 0.170693
H2    H     H_    0.629224 0.670552 0.809480 0.160133
H3    H     H_    0.332006 0.892664 0.814789 0.142251
H4    H     H_    0.017670 0.322937 0.802091 0.146159
H5    H     H_    0.719296 0.017496 0.138551 0.106097
H6    H     H_    0.969827 0.722411 0.145710 0.120348
H7    H     H_    0.233167 0.166691 0.151603 0.126199
H8    H     H_    0.662039 0.077441 0.213548 0.099418
H9    H     H_    0.896351 0.624549 0.224200 0.115871
H10   H     H_    0.346418 0.214734 0.226437 0.105493
H11   H     H_    0.636666 0.063181 0.302285 0.147911
H12   H     H_    0.978357 0.732804 0.792432 0.173591
H13   H     H_    0.913991 0.612211 0.312634 0.214637
H14   H     H_    0.383682 0.288690 0.309473 0.192102
H15   H     H_    0.679607 0.692406 0.134700 0.126475
H16   H     H_    0.300776 0.993453 0.140079 0.122631
H17   H     H_    0.917105 0.147788 0.157167 0.117847
H18   H     H_    0.623340 0.578053 0.207098 0.106662
H19   H     H_    0.406568 0.063459 0.214105 0.098610
H20   H     H_    0.852662 0.188970 0.232377 0.109195
H21   H     H_    0.604897 0.564352 0.295731 0.185044
H22   H     H_    0.418196 0.065144 0.302742 0.183102
H23   H     H_    0.350460 0.374460 0.808588 0.179520
H24   H     H_    0.892464 0.270807 0.313554 0.139193
H25   H     H_    0.799413 0.978552 0.712628 0.186626
H26   H     H_    0.066965 0.891752 0.713896 0.201367
H27   H     H_    0.181265 0.199592 0.705185 0.218716
H28   H     H_    0.831658 0.981319 0.792130 0.128205
H29   H     H_    0.081368 0.934616 0.793017 0.155686
H30   H     H_    0.203953 0.193788 0.786906 0.211843
H31   H     H_    0.498969 0.667572 0.728643 0.117751
H32   H     H_    0.294364 0.765507 0.728825 0.098842
H33   H     H_    0.161233 0.494784 0.732363 0.099216
H34   H     H_    0.494167 0.835798 0.736013 0.104728
H35   H     H_    0.624109 0.665288 0.724508 0.200165
H36   H     H_    0.348530 0.910002 0.729870 0.192103
H37   H     H_    0.037697 0.370910 0.720167 0.185700
H38   H     H_    0.515140 0.693381 0.811722 0.112374
H39   H     H_    0.250204 0.747306 0.810827 0.112012
H40   H     H_    0.131242 0.455642 0.814275 0.115752
H41   H     H_    0.715403 0.064495 0.375848 0.210775
H42   H     H_    0.667965 0.989736 0.425113 0.248450
H43   H     H_    0.933268 0.691875 0.393375 0.267634
H44   H     H_    0.012417 0.690119 0.435995 0.238205
H45   H     H_    0.099013 0.643515 0.733416 0.126356
H46   H     H_    0.403127 0.432935 0.393023 0.290453
H47   H     H_    0.320913 0.317656 0.426752 0.269608
H48   H     H_    0.552644 0.054622 0.640456 0.382721
H49   H     H_    0.878902 0.517751 0.643411 0.387387
H50   H     H_    0.474511 0.386864 0.641533 0.385470
H51   H     H_    0.778220 0.668283 0.454187 0.369176
H52   H     H_    0.356101 0.108028 0.471978 0.371759
H53   H     H_    0.900381 0.375964 0.388366 0.327304
H54   H     H_    0.832599 0.871721 0.660100 0.247857
H55   H     H_    0.791047 0.765626 0.699502 0.299616
H56   H     H_    0.339909 0.508495 0.729208 0.094996
H57   H     H_    0.200714 0.009166 0.662149 0.239847
H58   H     H_    0.306020 0.030294 0.698748 0.279886
H59   H     H_    0.996606 0.090250 0.701476 0.247067
H60   H     H_    0.966246 0.184578 0.724711 0.259944
H61   H     H_    0.805829 0.757659 0.789117 0.270453
H62   H     H_    0.873591 0.857539 0.831253 0.232346
H63   H     H_    0.324945 0.040213 0.788032 0.278777
H64   H     H_    0.248807 0.048669 0.834562 0.236837
H65   H     H_    0.975753 0.144712 0.802208 0.233889
H66   H     H_    0.016189 0.055114 0.781257 0.252966
H67   H     H_    0.539401 0.885021 0.815930 0.103391
H68   H     H_    0.039475 0.652234 0.810604 0.117380
H69   H     H_    0.324972 0.487073 0.812126 0.084584
N1    N     N_3   0.645316 0.995273 0.389118 -0.542359
N2    N     N_3   0.996216 0.673999 0.398582 -0.492119
N3    N     N_3   0.345344 0.349806 0.391337 -0.554803
N4    N     N_3   0.828902 0.850851 0.697265 -0.588537
N5    N     N_3   0.225703 0.016482 0.698823 -0.578650
N6    N     N_3   0.022315 0.174012 0.703326 -0.628845
N7    N     N_3   0.850350 0.842402 0.794335 -0.628230
N8    N     N_3   0.250902 0.037257 0.796666 -0.585914
N9    N     N_3   0.038767 0.125476 0.802127 -0.650670
O1    O     O_R   0.137150 0.468200 0.553200 -0.498458
O2    O     O_R   0.140110 0.470540 0.446010 -0.421258
O3    O     O_R   0.529460 0.669570 0.446010 -0.440839
O4    O     O_R   0.330430 0.859890 0.446010 -0.426461
O5    O     O_R   0.176710 0.690910 0.450560 -0.456582
O6    O     O_R   0.309090 0.485800 0.450560 -0.524864
O7    O     O_R   0.514200 0.823290 0.450560 -0.491318
O8    O     O_3   0.333333 0.666667 0.499990 -0.315078
O9    O     O_R   0.176750 0.985260 0.074180 -0.535274
O10   O     O_R   0.014740 0.191490 0.074180 -0.507537
O11   O     O_R   0.808510 0.823250 0.074180 -0.518962
O12   O     O_R   0.531800 0.668950 0.553200 -0.489283
O13   O     O_R   0.146100 0.172630 0.068980 -0.494864
O14   O     O_R   0.827370 0.973470 0.068980 -0.525463
O15   O     O_R   0.026530 0.853900 0.068980 -0.498930
O16   O     O_3   0.000000 0.000000 0.020040 -0.250612
O17   O     O_R   0.148270 0.170520 0.969620 -0.487288
O18   O     O_R   0.829480 0.977750 0.969620 -0.492169
O19   O     O_R   0.022250 0.851730 0.969620 -0.491105
O20   O     O_2   0.552475 0.065763 0.738099 -0.295647
O21   O     O_2   0.727202 0.098375 0.703728 -0.288647
O22   O     O_3   0.550723 0.986482 0.651778 -0.523192
O23   O     O_R   0.331050 0.862850 0.553200 -0.490560
O24   O     O_2   0.849504 0.598479 0.729956 -0.274183
O25   O     O_2   0.945732 0.731476 0.663938 -0.307094
O26   O     O_3   0.947878 0.547846 0.662463 -0.507753
O27   O     O_2   0.514196 0.458170 0.735615 -0.282745
O28   O     O_2   0.372553 0.267586 0.724745 -0.274353
O29   O     O_3   0.415401 0.402323 0.651470 -0.521682
O30   O     O_2   0.600815 0.540577 0.400015 -0.280337
O31   O     O_2   0.768296 0.643559 0.352035 -0.347824
O32   O     O_3   0.758177 0.719267 0.437994 -0.515256
O33   O     O_2   0.462837 0.063382 0.399277 -0.257866
O34   O     O_R   0.179100 0.982980 0.967000 -0.506838
O35   O     O_2   0.349017 0.141779 0.373297 -0.300997
O36   O     O_3   0.302136 0.038244 0.456329 -0.505821
O37   O     O_2   0.157493 0.582673 0.361241 -0.251866
O38   O     O_2   0.012200 0.477953 0.302858 -0.310804
O39   O     O_3   0.962145 0.449971 0.395762 -0.457657
O40   O     O_R   0.017020 0.196120 0.967000 -0.500444
O41   O     O_R   0.803880 0.820900 0.967000 -0.506610
O42   O     O_R   0.173970 0.688730 0.549930 -0.495400
O43   O     O_R   0.311270 0.485240 0.549930 -0.485119
O44   O     O_R   0.514760 0.826030 0.549930 -0.483107
S1    S     S_3+6 0.607253 0.016073 0.708116 -0.034388
S2    S     S_3+6 0.949311 0.647791 0.697287 -0.020482
S3    S     S_3+6 0.404484 0.384318 0.712796 -0.027112
S4    S     S_3+6 0.690467 0.653629 0.386788 -0.003125
S5    S     S_3+6 0.348057 0.045987 0.398374 0.019836
S6    S     S_3+6 0.057206 0.473469 0.352408 0.022578

loop_
_geom_bond_atom_site_label_1
_geom_bond_atom_site_label_2
_ccdc_geom_bond_type
C59   H19   S    
C65   C92   S    
C54   H21   S    
C64   H34   S    
H54   N4    S    
C26   C32   A    
C47   C76   A    
C89   H33   S    
C32   H9    S    
C55   C59   A    
Cr1   O8    S    
C18   C21   A    
C30   O3    A    
C2    C84   T    
Cr4   O9    S    
Cr5   O40   S    
C16   C84   S    
C14   O15   A    
Cr6   O15   S    
C6    C9    T    
C13   C41   S    
O33   S5    D    
Cr1   O2    S    
C66   C90   S    
C37   H14   S    
Cr4   O13   S    
C27   C33   A    
O21   S1    D    
C35   H11   S    
C79   H26   S    
Cr4   O34   S    
C83   N9    S    
C60   C63   A    
C17   C85   S    
C32   C36   A    
C51   C68   A    
C67   H31   S    
H41   N1    S    
O28   S3    D    
C30   C74   S    
C26   C39   A    
C21   C51   A    
C4    C86   T    
Cr1   O5    S    
H44   N2    S    
C38   H5    S    
C8    C23   S    
C6    C88   S    
C29   O6    A    
C20   C76   A    
H47   N3    S    
C7    C10   T    
Cr2   O3    S    
C39   C42   A    
O38   S6    D    
H60   N6    S    
Cr2   O8    S    
C52   C69   A    
C4    C96   S    
C14   O9    A    
C43   C73   A    
C40   C43   A    
C20   N3    S    
C20   C24   A    
C16   O18   A    
C92   H68   S    
C89   H37   S    
C92   H12   S    
C66   S3    S    
O26   S2    S    
C11   C43   S    
C45   C78   S    
C80   H27   S    
C65   H45   S    
C64   C87   S    
C77   H25   S    
Cr5   O16   S    
C41   C71   A    
C56   H40   S    
Cr4   O17   S    
C61   C71   A    
C58   C61   A    
H65   N9    S    
C77   N4    S    
C45   H39   S    
H58   N5    S    
C16   O41   A    
C25   C68   A    
C80   C83   S    
C67   H35   S    
C53   C70   A    
C78   H36   S    
Cr3   O7    S    
C46   C75   A    
C79   C88   S    
C45   H3    S    
O36   S5    S    
C47   C50   A    
Cr4   O16   S    
C39   H6    S    
C48   C51   A    
C50   C53   A    
C29   O2    A    
C91   H67   S    
C11   O13   A    
C2    C94   S    
C19   C22   A    
C1    C9    S    
H51   O32   S    
C38   C41   A    
Cr2   O12   S    
Cr5   O10   S    
Cr3   O8    S    
C57   H24   S    
C47   S6    S    
C71   H15   S    
Cr5   O18   S    
C57   C60   A    
C63   C73   A    
Cr1   O42   S    
H66   N9    S    
C7    C90   S    
C25   C31   A    
C65   S2    S    
C92   C95   S    
H46   N3    S    
C62   C69   A    
C1    O42   A    
H50   O29   S    
O32   S4    S    
C82   N8    S    
C48   C54   A    
C19   N2    S    
C12   O43   A    
C25   C38   A    
C5    C8    T    
C78   H32   S    
C12   O1    A    
C46   C49   A    
C63   C70   A    
C77   C81   S    
C27   C40   A    
C49   C52   A    
Cr2   O43   S    
H61   N7    S    
C42   C72   A    
Cr6   O11   S    
C62   C72   A    
O25   S2    D    
C15   O40   A    
C33   H10   S    
H53   O39   S    
C44   S4    S    
C56   H4    S    
Cr3   O4    S    
C27   C70   A    
C10   C12   S    
H55   N4    S    
C15   C86   S    
O27   S3    D    
C56   C89   S    
H43   N2    S    
C93   C96   S    
O31   S4    D    
C66   C93   S    
H63   N8    S    
C46   S5    S    
C31   C35   A    
C3    C85   T    
C34   H2    S    
C58   H18   S    
H48   O22   S    
O39   S6    S    
H59   N6    S    
C17   O34   A    
C1    O23   A    
C66   H56   S    
H62   N7    S    
Cr5   O14   S    
C65   C88   S    
C22   C52   A    
C54   C58   A    
C78   C88   S    
C24   C37   A    
C56   C96   S    
Cr3   O44   S    
C93   H69   S    
C59   C62   A    
C82   C95   S    
Cr3   O23   S    
O35   S5    D    
C50   C57   A    
O30   S4    D    
C79   N5    S    
C82   H29   S    
C34   C94   S    
C91   H1    S    
C44   C74   A    
Cr6   O16   S    
C34   C67   S    
C81   N7    S    
C79   C82   S    
C3    C95   S    
Cr1   O1    S    
C40   H7    S    
C21   C35   A    
C18   N1    S    
C24   C53   A    
C22   C36   A    
H42   N1    S    
C67   C87   S    
C13   O11   A    
C14   C42   S    
H57   N5    S    
C11   O10   A    
C30   O7    A    
C19   C75   A    
C28   O4    A    
C64   S1    S    
C83   H30   S    
Cr2   O6    S    
C49   C55   A    
Cr6   O19   S    
C80   N6    S    
C91   C94   S    
C81   C94   S    
C36   H13   S    
C61   C68   A    
C81   H28   S    
H52   O36   S    
C15   O17   A    
C83   C96   S    
C34   H38   S    
C31   H8    S    
C33   C37   A    
C17   O19   A    
O20   S1    D    
H49   O26   S    
C80   C90   S    
C13   O14   A    
O22   S1    S    
C23   O12   A    
C93   H23   S    
C73   H17   S    
C5    C87   S    
C60   H20   S    
C29   C76   S    
C23   O44   A    
C77   C87   S    
C18   C74   A    
C55   H22   S    
C72   H16   S    
C26   C69   A    
O37   S6    D    
H64   N8    S    
O29   S3    S    
C64   C91   S    
C89   C90   S    
C28   O5    A    
C28   C75   S    
O24   S2    D    
C44   C48   A    
Cr6   O41   S    
C45   C95   S    
