data_mof_unit_56624.cif
_audit_creation_date              2013-03-05T16:12:10-0500
_audit_creation_method            fapswitch 2.2
_symmetry_space_group_name_H-M    P1
_symmetry_Int_Tables_number       1
_space_group_crystal_system       triclinic
_cell_length_a                    10.730627
_cell_length_b                    9.47675
_cell_length_c                    27.764866
_cell_angle_alpha                 89.787133
_cell_angle_beta                  88.884328
_cell_angle_gamma                 89.232694
_cell_volume                      2822.64477558

loop_
_atom_site_label
_atom_site_type_symbol
_atom_site_description
_atom_site_fract_x
_atom_site_fract_y
_atom_site_fract_z
_atom_type_partial_charge
O1    O     O_R   0.317570 0.620260 0.500030 -0.575189
O2    O     O_R   0.317570 0.379740 0.500030 -0.599614
C1    C     C_R   0.259712 0.499923 0.499201 0.759528
O3    O     O_R   0.499900 0.620250 0.430280 -0.591399
O4    O     O_R   0.499900 0.379750 0.430280 -0.590415
C2    C     C_R   0.500122 0.500290 0.407512 0.796032
Cu1   Cu    Cu3+1 0.499860 0.642410 0.500020 0.905451
Cu2   Cu    Cu3+1 0.499860 0.357590 0.500020 0.907765
O5    O     O_R   0.682190 0.620260 0.500010 -0.595866
O6    O     O_R   0.682190 0.379740 0.500010 -0.597689
O7    O     O_R   0.499860 0.620280 0.569750 -0.603200
O8    O     O_R   0.499860 0.379720 0.569750 -0.552199
C3    C     C_R   0.739763 0.499019 0.499030 0.759584
C4    C     C_R   0.501226 0.499875 0.592470 0.802061
C5    C     C_R   0.393299 0.486397 0.178283 0.549724
O9    O     O_2   0.287468 0.461894 0.203849 -0.531291
N1    N     N_R   0.502400 0.507221 0.201740 -0.469696
C6    C     C_R   0.610978 0.534158 0.176994 0.538307
C7    C     C_R   0.514013 0.630888 0.278905 -0.104182
C8    C     C_R   0.513074 0.629414 0.329103 -0.225000
C9    C     C_R   0.489190 0.375151 0.328597 -0.225840
C10   C     C_R   0.489603 0.377045 0.278337 -0.099929
C11   C     C_R   0.502201 0.504869 0.253374 0.358076
C12   C     C_R   0.501394 0.518686 0.101521 -0.042126
C13   C     C_R   0.390687 0.492051 0.127732 -0.047274
C14   C     C_R   0.278735 0.479281 0.103321 -0.185075
C15   C     C_R   0.612513 0.540838 0.126473 -0.028477
C16   C     C_R   0.500755 0.501471 0.354452 -0.041417
H1    H     H_    0.479404 0.275061 0.347131 0.143897
H2    H     H_    0.480471 0.279263 0.258742 0.139226
H3    H     H_    0.191923 0.470664 0.123693 0.216308
C17   C     C_R   0.505178 0.500035 0.645423 -0.039696
C18   C     C_R   0.397800 0.472283 0.975111 0.063464
C19   C     C_R   0.610764 0.565811 0.973587 0.047346
C20   C     C_R   0.505388 0.516486 0.949067 0.073521
C21   C     C_R   0.305590 0.399408 0.949932 -0.143781
C22   C     C_R   0.310019 0.389434 0.899956 -0.137460
C23   C     C_R   0.409069 0.447704 0.873513 -0.024418
C24   C     C_R   0.508225 0.509190 0.898041 -0.047833
C25   C     C_R   0.610524 0.562507 0.871539 -0.019902
C26   C     C_R   0.609698 0.557814 0.821017 0.536391
N2    N     N_R   0.511386 0.499823 0.797920 -0.470074
C27   C     C_R   0.412704 0.443798 0.822976 0.540096
C28   C     C_R   0.540849 0.376695 0.720838 -0.108706
C29   C     C_R   0.538970 0.376938 0.670617 -0.228666
C30   C     C_R   0.476658 0.623927 0.671293 -0.233730
C31   C     C_R   0.479336 0.623692 0.721463 -0.102741
C32   C     C_R   0.510677 0.499972 0.746346 0.365738
O10   O     O_2   0.317925 0.385937 0.799017 -0.537658
C33   C     C_R   0.389581 0.494316 0.025737 -0.026696
C34   C     C_R   0.501131 0.523076 0.050473 0.060264
C35   C     C_R   0.612539 0.556542 0.024579 0.040762
C36   C     C_R   0.275450 0.487708 0.052996 -0.031141
H4    H     H_    0.565131 0.281426 0.651510 0.151164
H5    H     H_    0.566255 0.281086 0.739954 0.137613
H6    H     H_    0.235462 0.335511 0.882157 0.188181
H7    H     H_    0.230601 0.345739 0.968535 0.151432
O11   O     O_2   0.717105 0.554010 0.201235 -0.531060
C37   C     C_R   0.722481 0.568996 0.100609 -0.114508
H8    H     H_    0.522395 0.728383 0.347983 0.145614
H9    H     H_    0.523462 0.730055 0.259762 0.138103
H10   H     H_    0.809436 0.584774 0.118913 0.201796
C38   C     C_R   0.711486 0.620426 0.946059 -0.198816
C39   C     C_R   0.710690 0.619719 0.895959 -0.137957
O12   O     O_2   0.706341 0.610338 0.795142 -0.537580
C40   C     C_R   0.722642 0.577206 0.050636 -0.178629
H11   H     H_    0.791052 0.667985 0.962320 0.139600
H12   H     H_    0.451489 0.720742 0.652894 0.139455
H13   H     H_    0.789774 0.663189 0.876424 0.189371
H14   H     H_    0.456309 0.719375 0.741089 0.137011
H15   H     H_    0.811706 0.595368 0.033231 0.164603
C41   C     C_3   0.067389 0.545590 0.548071 -0.385152
C42   C     C_3   0.073183 0.345486 0.489438 -0.375418
H16   H     H_    0.102724 0.649530 0.558697 0.168653
H17   H     H_    0.109799 0.304883 0.454268 0.159905
H18   H     H_    0.097792 0.470042 0.576465 0.160677
H19   H     H_    0.105615 0.271919 0.517918 0.154903
C43   C     C_3   0.924027 0.551068 0.547323 -0.374350
C44   C     C_3   0.930074 0.345291 0.489789 -0.369992
H20   H     H_    0.885540 0.485329 0.577270 0.156094
H21   H     H_    0.896218 0.272929 0.518749 0.161722
H22   H     H_    0.891007 0.661552 0.553460 0.164620
H23   H     H_    0.897204 0.303932 0.454836 0.161319
H24   H     H_    0.105819 0.701380 0.459469 0.154137
H25   H     H_    0.106918 0.550493 0.421836 0.159845
H26   H     H_    0.894012 0.704493 0.463156 0.164079
H27   H     H_    0.894015 0.558444 0.422195 0.158441
C45   C     C_3   0.071806 0.592082 0.457081 -0.376404
C46   C     C_3   0.121349 0.497345 0.498473 0.159659
C47   C     C_3   0.877530 0.497009 0.498403 0.159160
C48   C     C_3   0.928170 0.594163 0.457675 -0.375016
C49   C     C_3   0.626620 0.081958 0.490183 -0.285435
C50   C     C_3   0.627884 0.914873 0.493506 -0.296048
H28   H     H_    0.695675 0.122976 0.515771 0.147542
H29   H     H_    0.688922 0.881179 0.523505 0.143504
H30   H     H_    0.659323 0.115770 0.453684 0.166335
H31   H     H_    0.671151 0.870699 0.459980 0.170940
H32   H     H_    0.542632 0.104423 0.574013 0.071293
H33   H     H_    0.513127 0.877813 0.576553 0.053212
C51   C     C_3   0.463638 0.083663 0.549493 0.275712
C52   C     C_3   0.450530 0.916914 0.547733 0.286554
C53   C     C_3   0.418468 0.084801 0.463490 -0.227489
C54   C     C_3   0.425413 0.918274 0.461307 -0.179249
N3    N     N_3   0.500250 0.143650 0.501060 -0.152135
N4    N     N_3   0.500250 0.856350 0.501060 -0.143177
H34   H     H_    0.321609 0.123758 0.468476 0.132962
H35   H     H_    0.331264 0.872696 0.460634 0.164205
H36   H     H_    0.447317 0.126096 0.427537 0.153308
H37   H     H_    0.468028 0.887423 0.425971 0.136317
N5    N     N_2   0.356862 0.156837 0.571566 -0.378043
H38   H     H_    0.281821 0.184770 0.551359 0.264000
C55   C     C_3   0.331572 0.136528 0.622611 -0.686041
H39   H     H_    0.256724 0.058381 0.628205 0.236926
H40   H     H_    0.299656 0.238194 0.638624 0.240439
H41   H     H_    0.415679 0.099109 0.641792 0.206833
N6    N     N_2   0.326484 0.864606 0.561555 -0.394641
H42   H     H_    0.321859 0.776702 0.583359 0.259470
C56   C     C_3   0.208878 0.908896 0.540967 -0.716902
H43   H     H_    0.138728 0.927500 0.570211 0.215182
H44   H     H_    0.174352 0.826350 0.517495 0.225928
H45   H     H_    0.214784 0.003386 0.518577 0.203468
C57   C     C_2   0.151094 0.512297 0.031529 0.816126
O13   O     O_2   0.059369 0.452708 0.048204 -0.607422
O14   O     O_R   0.138132 0.607515 0.993280 -0.746935
H46   H     H_    0.048986 0.615896 0.982031 0.325830

loop_
_geom_bond_atom_site_label_1
_geom_bond_atom_site_label_2
_geom_bond_distance
_ccdc_geom_bond_type
C51   N5    1.457326 S    
H27   C48   1.113184 S    
C3    C47   1.477950 S    
C17   C29   1.405048 A    
C20   C24   1.418404 A    
C7    C8    1.393587 A    
C12   C15   1.409165 A    
C49   H30   1.113320 S    
C41   H18   1.113602 S    
C55   H40   1.109793 S    
Cu1   Cu2   2.699167 S    
C43   C47   1.547470 S    
Cu1   O7    1.946595 S    
N1    C11   1.433665 S    
C21   C22   1.390969 A    
C36   C57   1.487211 S    
C37   C40   1.389356 A    
C23   C24   1.408254 A    
O7    C4    1.301811 A    
C43   H20   1.113414 S    
C5    C13   1.405159 A    
C5    O9    1.349773 S    
C51   N3    1.505181 S    
C18   C21   1.411939 A    
N6    H42   1.029129 S    
Cu1   O5    1.964941 S    
C19   C20   1.416717 A    
C26   N2    1.367731 A    
O5    C3    1.297352 A    
N5    H38   1.021769 S    
C49   C50   1.585655 S    
C44   C47   1.554980 S    
C41   C43   1.539086 S    
C50   N4    1.495213 S    
C56   H43   1.109385 S    
C22   H6    1.083346 S    
C6    O11   1.349741 S    
C2    C16   1.473083 S    
C31   C32   1.399123 A    
Cu1   N4    2.027830 S    
C53   H36   1.110738 S    
C8    H8    1.082897 S    
C12   C34   1.417840 A    
C14   H3    1.084230 S    
C50   H29   1.112830 S    
C9    C10   1.395449 A    
C42   H17   1.113460 S    
O3    Cu1   1.948443 S    
C55   H39   1.108090 S    
C33   C34   1.421593 A    
C56   H44   1.093076 S    
C52   N4    1.504576 S    
C38   H11   1.078309 S    
C33   C36   1.429058 A    
C34   C35   1.421829 A    
C12   C13   1.406275 A    
O3    C2    1.302770 A    
C21   H7    1.079737 S    
C24   C25   1.407962 A    
C44   H21   1.113541 S    
C27   O10   1.349652 S    
C26   O12   1.349629 S    
C8    C16   1.406152 A    
C18   C33   1.422700 A    
C9    H1    1.082805 S    
O1    C1    1.306227 A    
C56   H45   1.090021 S    
C7    C11   1.399507 A    
C31   H14   1.082886 S    
C30   H12   1.082104 S    
C22   C23   1.398557 A    
C43   H22   1.113495 S    
C40   H15   1.078113 S    
C45   C48   1.540930 S    
Cu2   O8    1.948144 S    
C49   H28   1.111398 S    
N1    C6    1.367556 A    
C42   C44   1.535515 S    
C54   N4    1.491498 S    
N2    C32   1.432125 S    
C39   H13   1.083434 S    
C53   N3    1.490754 S    
Cu2   N3    2.027504 S    
C41   H16   1.103433 S    
C25   C26   1.403811 A    
H33   C52   1.113934 S    
C9    C16   1.406267 A    
O8    C4    1.304177 A    
C29   H4    1.081891 S    
H32   C51   1.117424 S    
N2    C27   1.367757 A    
C57   O14   1.398824 S    
C14   C36   1.400344 A    
C50   H31   1.112704 S    
C35   C40   1.413570 A    
C28   C29   1.394888 A    
H25   C45   1.113278 S    
C5    N1    1.367682 A    
C30   C31   1.393801 A    
C37   H10   1.083529 S    
C10   H2    1.082840 S    
O1    Cu1   1.970105 S    
C17   C30   1.405771 A    
O2    Cu2   1.964515 S    
C6    C15   1.403685 A    
H24   C45   1.105464 S    
C4    C17   1.471668 S    
O6    C3    1.295371 A    
O4    Cu2   1.946893 S    
C54   H35   1.104562 S    
C19   C35   1.418657 A    
C25   C39   1.398452 A    
C54   H37   1.112753 S    
C1    C46   1.485777 S    
O2    C1    1.290194 A    
C13   C14   1.397646 A    
C42   C46   1.558467 S    
C23   C27   1.403559 A    
C15   C37   1.397618 A    
C44   H23   1.113408 S    
C41   C46   1.551528 S    
C28   H5    1.082786 S    
C47   C48   1.550314 S    
O4    C2    1.303533 A    
C7    H9    1.082919 S    
C19   C38   1.414237 A    
C18   C20   1.417521 A    
N6    C56   1.451778 S    
C53   H34   1.104638 S    
C53   C54   1.580222 S    
N5    C55   1.450431 S    
C49   N3    1.495316 S    
C38   C39   1.391276 A    
C45   C46   1.553313 S    
Cu2   O6    1.970531 S    
H26   C48   1.113316 S    
C52   N6    1.470096 S    
C42   H19   1.110202 S    
C10   C11   1.400189 A    
C51   C52   1.589381 S    
C57   O13   1.223610 D    
C55   H41   1.110245 S    
C28   C32   1.399406 A    
O14   H46   1.014073 S    
