data_mof_unit_44145.cif
_audit_creation_date              2012-12-11T17:00:20-0500
_audit_creation_method            fapswitch 2.2
_symmetry_space_group_name_H-M    P1
_symmetry_Int_Tables_number       1
_space_group_crystal_system       triclinic
_cell_length_a                    6.967005
_cell_length_b                    13.805469
_cell_length_c                    20.125765
_cell_angle_alpha                 103.096173
_cell_angle_beta                  89.544813
_cell_angle_gamma                 91.268528
_cell_volume                      1884.9344915

loop_
_atom_site_label
_atom_site_type_symbol
_atom_type_description
_atom_site_fract_x
_atom_site_fract_y
_atom_site_fract_z
_atom_type_partial_charge
O1    O     O_R   0.506770 0.599700 0.449550 -0.521905
O2    O     O_R   0.179980 0.595740 0.587960 -0.549322
O3    O     O_R   0.004580 0.400300 0.550450 -0.536955
C1    C     C_R   0.348182 0.616774 0.615356 0.691030
O4    O     O_R   0.177380 0.611700 0.452380 -0.550164
O5    O     O_R   0.001970 0.416370 0.413900 -0.538046
C2    C     C_R   0.349105 0.640297 0.437350 0.720819
O6    O     O_R   0.509390 0.583630 0.586100 -0.542740
O7    O     O_3   0.337530 0.435890 0.487530 -0.354183
V1    V     V_3+5 0.064660 0.511890 0.502310 1.436719
O8    O     O_R   0.671950 0.404260 0.412040 -0.518767
C3    C     C_R   0.839959 0.378661 0.386201 0.700332
O9    O     O_R   0.674540 0.388300 0.547620 -0.543750
C4    C     C_R   0.841713 0.362591 0.564819 0.682349
V2    V     V_3+5 0.564030 0.488110 0.497690 1.483491
O10   O     O_3   0.841030 0.564110 0.512470 -0.380139
C5    C     C_R   0.815734 0.112381 0.608734 -0.160232
H1    H     H_    0.798712 0.164319 0.516248 0.101400
H2    H     H_    0.788570 0.988527 0.691980 0.120713
H3    H     H_    0.788861 0.035632 0.582562 0.110812
C6    C     C_R   0.846380 0.285226 0.603824 -0.031927
C7    C     C_R   0.901518 0.313233 0.929658 -0.271483
C8    C     C_R   0.949749 0.386115 0.893850 0.433026
C9    C     C_R   0.980966 0.357960 0.822758 -0.118863
C10   C     C_R   0.909179 0.263339 0.785924 -0.037747
C11   C     C_R   0.867172 0.189196 0.823301 0.060273
C12   C     C_R   0.879653 0.238893 0.713637 0.122855
C13   C     C_R   0.840779 0.138376 0.679777 0.142945
C14   C     C_R   0.819676 0.065263 0.717293 -0.201115
C15   C     C_R   0.826971 0.090746 0.788033 -0.163115
C16   C     C_R   0.872237 0.311950 0.674581 -0.139838
C17   C     C_R   0.819960 0.185397 0.570948 -0.173433
C18   C     C_R   0.871529 0.214425 0.895376 -0.131114
H4    H     H_    0.878047 0.390371 0.698548 0.088662
H5    H     H_    0.900188 0.332966 0.984961 0.136628
H6    H     H_    0.799171 0.032663 0.815118 0.109563
C19   C     C_R   0.707969 0.234275 0.207212 0.105519
C20   C     C_R   0.866356 0.175506 0.186730 -0.090649
C21   C     C_R   0.009545 0.175268 0.235691 -0.128541
H7    H     H_    0.129217 0.125720 0.223304 0.118354
C22   C     C_R   0.996848 0.237855 0.301792 -0.149200
H8    H     H_    0.107354 0.235063 0.338761 0.110506
C23   C     C_R   0.845153 0.304835 0.319499 -0.137908
C24   C     C_R   0.697692 0.299472 0.271617 0.095332
C25   C     C_3   0.493937 0.267332 0.279508 -0.215621
C26   C     C_3   0.509068 0.195331 0.210582 -0.454950
H9    H     H_    0.472135 0.230076 0.322646 0.098003
H10   H     H_    0.420443 0.209859 0.168377 0.219935
H11   H     H_    0.504163 0.116365 0.214660 0.148495
C27   C     C_R   0.508020 0.751096 0.704685 0.096574
C28   C     C_R   0.351445 0.687287 0.682891 -0.111189
C29   C     C_R   0.190270 0.695509 0.726490 -0.177441
H12   H     H_    0.067047 0.646707 0.712007 0.145215
C30   C     C_R   0.192926 0.760156 0.791618 -0.176834
H13   H     H_    0.072268 0.759473 0.825523 0.143586
C31   C     C_R   0.356579 0.818851 0.814922 -0.118227
C32   C     C_R   0.510888 0.815168 0.769222 0.114417
C33   C     C_3   0.716308 0.794432 0.779226 -0.416855
C34   C     C_3   0.712622 0.725235 0.709012 -0.413705
H14   H     H_    0.735424 0.755170 0.821083 0.177387
H15   H     H_    0.811370 0.860663 0.781779 0.168187
H16   H     H_    0.729640 0.645693 0.710121 0.171444
H17   H     H_    0.803484 0.752316 0.671038 0.172985
C35   C     C_R   0.566377 0.858754 0.380672 -0.165433
H18   H     H_    0.574223 0.804811 0.472243 0.107978
H19   H     H_    0.663169 0.966408 0.292096 0.122072
H20   H     H_    0.668815 0.918467 0.400245 0.110609
C36   C     C_R   0.373545 0.719574 0.399494 -0.060871
C37   C     C_R   0.225327 0.706750 0.075369 -0.191020
C38   C     C_R   0.167365 0.638889 0.112397 -0.151715
C39   C     C_R   0.219812 0.651924 0.180590 0.001691
C40   C     C_R   0.324929 0.738773 0.215235 0.008793
C41   C     C_R   0.392633 0.805437 0.174840 0.065230
C42   C     C_R   0.370425 0.761505 0.287094 0.080537
C43   C     C_R   0.500828 0.841688 0.313214 0.151649
C44   C     C_R   0.566872 0.904046 0.271958 -0.208946
C45   C     C_R   0.510288 0.887714 0.204485 -0.204549
C46   C     C_R   0.292923 0.708641 0.334572 -0.174194
C47   C     C_R   0.509811 0.795430 0.422290 -0.164862
C48   C     C_R   0.340078 0.788682 0.105213 -0.083308
H21   H     H_    0.174318 0.656706 0.322562 0.114594
H22   H     H_    0.180514 0.695253 0.022621 0.142665
H23   H     H_    0.087666 0.572883 0.086592 0.153024
H24   H     H_    0.565054 0.938958 0.175171 0.124813
O11   O     O_R   0.203450 0.916320 0.913910 -0.541620
O12   O     O_R   0.535520 0.888300 0.047620 -0.549440
O13   O     O_R   0.710860 0.083650 0.086100 -0.543095
C49   C     C_R   0.364539 0.864854 0.066095 0.687062
O14   O     O_R   0.532860 0.904250 0.912040 -0.543141
O15   O     O_R   0.708190 0.099710 0.949550 -0.538441
C50   C     C_R   0.364366 0.883276 0.884634 0.701892
O16   O     O_R   0.206120 0.900260 0.050460 -0.541173
O17   O     O_3   0.375280 0.064080 0.012470 -0.368271
V3    V     V_3+5 0.648180 0.988110 0.997690 1.407841
O18   O     O_R   0.038220 0.111740 0.952370 -0.536772
C51   C     C_R   0.871243 0.137853 0.935532 0.728981
O19   O     O_R   0.040880 0.095790 0.087940 -0.539595
C52   C     C_R   0.873369 0.111876 0.116821 0.696094
V4    V     V_3+5 0.148800 0.011950 0.002300 1.436701
O20   O     O_3   0.871820 0.935920 0.987530 -0.377501
C53   C     C_2   0.359296 0.350442 0.280810 0.861971
O21   O     O_2   0.252229 0.348129 0.232709 -0.554110
O22   O     O_R   0.351174 0.428378 0.338363 -0.630854
H25   H     H_    0.246538 0.476683 0.334984 0.291314
C54   C     C_2   0.192817 0.563719 0.207589 0.747947
O23   O     O_2   0.333638 0.526579 0.226351 -0.538676
O24   O     O_R   0.008163 0.523068 0.210927 -0.659550
H26   H     H_    0.002376 0.467311 0.235931 0.317457
C55   C     C_2   0.122983 0.417552 0.791956 0.761880
O25   O     O_2   0.228972 0.375744 0.746079 -0.564420
O26   O     O_R   0.144251 0.520038 0.817598 -0.655177
H27   H     H_    0.255913 0.549545 0.795763 0.293267
O27   O     O_3   0.993982 0.481869 0.929786 -0.557851
C56   C     C_3   0.822371 0.531807 0.953413 0.094913
H28   H     H_    0.860126 0.594458 0.996827 0.138748
H29   H     H_    0.716290 0.484005 0.973731 0.117202
C57   C     C_3   0.730994 0.574951 0.897545 -0.314094
H30   H     H_    0.836174 0.625820 0.880300 0.213491
H31   H     H_    0.691842 0.513985 0.853123 0.195279
C58   C     C_3   0.550558 0.632337 0.923613 -0.809013
H32   H     H_    0.442252 0.582531 0.940384 0.260584
H33   H     H_    0.487494 0.662225 0.882126 0.228823
H34   H     H_    0.586294 0.695464 0.966980 0.230992

loop_
_geom_bond_atom_site_label_1
_geom_bond_atom_site_label_2
_ccdc_geom_bond_type
O17   V3    S    
H18   C47   S    
C22   H8    S    
O18   C51   A    
C1    O6    A    
C56   H28   S    
O11   C50   A    
C21   C22   A    
C25   C26   S    
C24   C25   S    
C7    H5    S    
C6    C16   A    
C26   H11   S    
C53   O21   D    
C27   C34   S    
C4    C6    S    
C13   C14   A    
C3    C23   S    
C55   O26   S    
O5    C3    A    
C20   C21   A    
O12   C49   A    
C33   H14   S    
V2    O10   S    
O13   V3    S    
C5    H3    S    
C31   C32   A    
O14   V3    S    
C37   H22   S    
O12   V3    S    
C2    C36   S    
O8    V2    S    
C35   C43   A    
C31   C50   S    
C49   O16   A    
C58   H33   S    
O24   H26   S    
O15   V3    S    
C38   C39   A    
O1    V2    S    
O14   C50   A    
C14   C15   A    
O7    V1    S    
O17   V4    S    
C58   H34   S    
C20   C52   S    
O13   C52   A    
C33   H15   S    
C53   O22   S    
O9    C4    A    
C22   C23   A    
O19   V4    S    
C29   C30   A    
O19   C52   A    
C26   H10   S    
C25   H9    S    
C36   C46   A    
C6    C17   A    
C30   C31   A    
C42   C43   A    
C1    C28   S    
C12   C16   A    
C28   C29   A    
C35   H20   S    
C9    C10   A    
C40   C42   A    
C57   C58   S    
C21   H7    S    
O4    C2    A    
C45   H24   S    
C10   C11   A    
O2    C1    A    
C43   C44   A    
C19   C20   A    
O11   V4    S    
C8    O27   S    
C54   O24   S    
C11   C18   A    
V4    O20   S    
O9    V2    S    
V3    O20   S    
C8    C9    A    
H19   C44   S    
C27   C28   A    
C16   H4    S    
C44   C45   A    
C38   H23   S    
O3    C4    A    
C25   C53   S    
C11   C15   A    
O6    V2    S    
C39   C54   S    
C23   C24   A    
C35   C47   A    
H1    C17   S    
O2    V1    S    
C18   C51   S    
O22   H25   S    
C29   H12   S    
O27   C56   S    
C7    C18   A    
C30   H13   S    
C34   H16   S    
O26   H27   S    
O1    C2    A    
C5    C13   A    
C7    C8    A    
C9    C55   S    
C40   C41   A    
O5    V1    S    
C56   H29   S    
O8    C3    A    
O15   C51   A    
C10   C12   A    
C54   O23   D    
C34   H17   S    
C15   H6    S    
C19   C24   A    
C57   H31   S    
C33   C34   S    
O4    V1    S    
C48   C49   S    
O3    V1    S    
V1    O10   S    
C55   O25   D    
C27   C32   A    
C46   H21   S    
C32   C33   S    
C36   C47   A    
C41   C48   A    
O18   V4    S    
O7    V2    S    
C37   C38   A    
C56   C57   S    
C39   C40   A    
C42   C46   A    
C12   C13   A    
C5    C17   A    
C41   C45   A    
C58   H32   S    
C37   C48   A    
C19   C26   S    
C57   H30   S    
O16   V4    S    
H2    C14   S    
