data_mof_unit_32839.cif
_audit_creation_date              2013-03-05T15:42:08-0500
_audit_creation_method            fapswitch 2.2
_symmetry_space_group_name_H-M    P1
_symmetry_Int_Tables_number       1
_space_group_crystal_system       triclinic
_cell_length_a                    21.97829
_cell_length_b                    7.208073
_cell_length_c                    14.971646
_cell_angle_alpha                 90.564104
_cell_angle_beta                  107.074219
_cell_angle_gamma                 90.272109
_cell_volume                      2267.10495852

loop_
_atom_site_label
_atom_site_type_symbol
_atom_site_description
_atom_site_fract_x
_atom_site_fract_y
_atom_site_fract_z
_atom_type_partial_charge
O1    O     O_R   0.584770 0.505770 0.002090 -0.556064
O2    O     O_R   0.415230 0.005770 0.997910 -0.554488
O3    O     O_R   0.467060 0.173340 0.861950 -0.559630
O4    O     O_R   0.532940 0.673340 0.138050 -0.559270
C1    C     C_R   0.455554 0.343300 0.826209 0.803833
C2    C     C_R   0.545157 0.845606 0.173979 0.800990
O5    O     O_R   0.587510 0.175890 0.993210 -0.560993
O6    O     O_R   0.412490 0.675890 0.006790 -0.560650
O7    O     O_R   0.536540 0.008150 0.130100 -0.556592
O8    O     O_R   0.463460 0.508150 0.869900 -0.556883
C3    C     C_R   0.612844 0.345475 0.997268 0.844164
C4    C     C_R   0.386911 0.844793 0.001852 0.843905
O9    O     O_3   0.483140 0.340040 0.044760 -0.285265
O10   O     O_3   0.516860 0.840040 0.955240 -0.284600
V1    V     V_3+5 0.503130 0.064190 0.991700 1.143681
V2    V     V_3+5 0.496870 0.564190 0.008300 1.141870
C5    C     C_2   0.209198 0.726486 0.975584 0.333560
C6    C     C_2   0.783900 0.220519 0.992873 0.328183
C7    C     C_2   0.180462 0.882343 0.995902 -0.253783
C8    C     C_2   0.818993 0.380344 0.001954 -0.280265
H1    H     H_    0.208118 0.007402 0.019995 0.090027
H2    H     H_    0.798250 0.511514 0.012579 0.106794
C9    C     C_2   0.279511 0.714783 0.989350 -0.148979
C10   C     C_2   0.716997 0.214540 0.997875 -0.144603
C11   C     C_2   0.319052 0.861433 0.998655 -0.270889
C12   C     C_2   0.679466 0.362499 0.994805 -0.271142
H3    H     H_    0.298636 0.577329 0.985345 0.146382
H4    H     H_    0.697168 0.077332 0.001242 0.144023
H5    H     H_    0.300932 0.001099 0.997955 0.104877
H6    H     H_    0.696961 0.501436 0.989506 0.100503
C13   C     C_R   0.928114 0.873452 0.723568 -0.136184
C14   C     C_R   0.075259 0.389293 0.275803 -0.110080
C15   C     C_R   0.573808 0.860326 0.275265 -0.066873
C16   C     C_R   0.427748 0.346894 0.725276 -0.062714
C17   C     C_R   0.930340 0.713804 0.581866 -0.097990
C18   C     C_R   0.064755 0.347041 0.430142 -0.080011
C19   C     C_R   0.959344 0.760326 0.674950 -0.181820
C20   C     C_R   0.037310 0.356023 0.334045 -0.170925
C21   C     C_R   0.867100 0.941571 0.677964 0.358959
C22   C     C_R   0.141517 0.413957 0.313709 0.341484
C23   C     C_R   0.832484 0.867025 0.588445 -0.031048
C24   C     C_R   0.171260 0.375329 0.410245 -0.019676
C25   C     C_R   0.867062 0.763516 0.538688 0.017262
C26   C     C_R   0.131083 0.356265 0.468636 0.019142
C27   C     C_R   0.765172 0.886347 0.547619 0.029462
C28   C     C_R   0.238659 0.355338 0.451053 0.026417
C29   C     C_R   0.736296 0.832130 0.452256 0.025767
C30   C     C_R   0.264826 0.354062 0.550348 0.025238
C31   C     C_R   0.774369 0.743607 0.403537 -0.091994
C32   C     C_R   0.222632 0.349400 0.605586 -0.089128
C33   C     C_R   0.837952 0.705903 0.446925 -0.085708
C34   C     C_R   0.157211 0.344830 0.565126 -0.078022
C35   C     C_R   0.725104 0.942817 0.601064 -0.093740
C36   C     C_R   0.280315 0.325713 0.396130 -0.118880
C37   C     C_R   0.660129 0.964617 0.560807 -0.130843
C38   C     C_R   0.345494 0.311756 0.435880 -0.126369
C39   C     C_R   0.632193 0.928260 0.465970 0.071384
C40   C     C_R   0.372099 0.325491 0.532146 0.074440
C41   C     C_R   0.669689 0.860951 0.410082 0.045368
C42   C     C_R   0.332324 0.348871 0.590912 0.046830
C43   C     C_R   0.566688 0.957607 0.426675 -0.072297
C44   C     C_R   0.438329 0.311105 0.570343 -0.074269
C45   C     C_R   0.537829 0.925213 0.331769 -0.099342
C46   C     C_R   0.465909 0.319193 0.666625 -0.101205
C47   C     C_R   0.638983 0.828050 0.313822 -0.112611
C48   C     C_R   0.361907 0.364380 0.688166 -0.112934
H7    H     H_    0.864555 0.629424 0.408275 0.073457
H8    H     H_    0.126684 0.333114 0.610084 0.093909
H9    H     H_    0.664723 0.786091 0.265904 0.056169
H10   H     H_    0.335342 0.389126 0.737214 0.057734
H11   H     H_    0.487579 0.953285 0.302035 0.055981
H12   H     H_    0.516924 0.303555 0.695457 0.055487
H13   H     H_    0.631398 0.009852 0.604600 0.075186
H14   H     H_    0.375334 0.288617 0.390653 0.073784
H15   H     H_    0.956347 0.630366 0.544984 0.081946
H16   H     H_    0.034097 0.328130 0.474421 0.076277
H17   H     H_    0.006416 0.707770 0.709427 0.131236
H18   H     H_    0.986190 0.340842 0.305102 0.078439
H19   H     H_    0.755608 0.691709 0.333030 0.076789
H20   H     H_    0.238584 0.338934 0.680562 0.089824
H21   H     H_    0.742197 0.961706 0.675723 0.159689
H22   H     H_    0.263708 0.303969 0.321744 0.146443
H23   H     H_    0.537915 0.008605 0.469230 0.061559
H24   H     H_    0.468700 0.290758 0.525685 0.061555
O11   O     O_R   0.036450 0.233070 0.130130 -0.576105
O12   O     O_R   0.963550 0.733070 0.869870 -0.567151
O13   O     O_R   0.912470 0.560570 0.006790 -0.534043
O14   O     O_R   0.087530 0.060570 0.993210 -0.535600
C49   C     C_R   0.886730 0.390662 0.001849 0.821774
C50   C     C_R   0.112499 0.891284 0.994671 0.827529
O15   O     O_R   0.032920 0.562940 0.138050 -0.579015
O16   O     O_R   0.967080 0.062940 0.861950 -0.542121
O17   O     O_R   0.084790 0.730500 0.002090 -0.526572
O18   O     O_R   0.915210 0.230500 0.997910 -0.510328
C51   C     C_R   0.045700 0.395576 0.174433 0.861132
C52   C     C_R   0.955140 0.892823 0.825361 0.902900
O19   O     O_3   0.016820 0.396170 0.955260 -0.258805
O20   O     O_3   0.983180 0.896170 0.044740 -0.276493
V3    V     V_3+5 0.996880 0.672090 0.008300 1.219548
V4    V     V_3+5 0.003120 0.172090 0.991700 1.237197
N1    N     N_R   0.172091 0.563745 0.937445 0.106654
O21   O     O_R   0.192904 0.400178 0.967139 -0.377044
O22   O     O_R   0.124032 0.576351 0.862309 -0.377687
N2    N     N_R   0.810367 0.044683 0.978994 0.101813
O23   O     O_R   0.812484 0.911866 0.037999 -0.387641
O24   O     O_R   0.818543 0.004982 0.898389 -0.348786
O25   O     O_3   0.843073 0.080742 0.721803 -0.629746
C53   C     C_3   0.849140 0.251393 0.679251 0.292946
H25   H     H_    0.817644 0.254340 0.605848 0.023239
H26   H     H_    0.899294 0.275460 0.679008 0.020172
C54   C     C_3   0.831242 0.411230 0.734265 -0.103854
H27   H     H_    0.862205 0.408845 0.807629 0.130152
H28   H     H_    0.839845 0.544390 0.703349 0.055944
C55   C     C_3   0.761499 0.402026 0.732628 -0.392075
H29   H     H_    0.729943 0.405068 0.659503 0.115120
H30   H     H_    0.750511 0.523422 0.771323 0.128689
H31   H     H_    0.751862 0.273679 0.766727 0.175498
O26   O     O_3   0.175186 0.470549 0.253544 -0.666972
C56   C     C_3   0.202346 0.648869 0.279542 0.245087
H32   H     H_    0.241327 0.665418 0.246810 0.081518
H33   H     H_    0.224453 0.667985 0.356077 0.036757
C57   C     C_3   0.153251 0.800158 0.243762 -0.201494
H34   H     H_    0.129089 0.774566 0.169288 0.164524
H35   H     H_    0.117122 0.797857 0.282411 0.113756
C58   C     C_3   0.184761 0.989922 0.254849 -0.494279
H36   H     H_    0.203960 0.023879 0.330294 0.137989
H37   H     H_    0.148990 0.093943 0.220327 0.185332
H38   H     H_    0.223741 0.993244 0.221526 0.129283

loop_
_geom_bond_atom_site_label_1
_geom_bond_atom_site_label_2
_geom_bond_distance
_ccdc_geom_bond_type
C40   C44   1.403699 A    
C22   O26   1.386051 S    
N1    O21   1.301139 A    
O14   C50   1.338074 A    
C35   C37   1.387751 A    
C54   H27   1.109672 S    
O1    C3    1.323709 A    
C46   H12   1.083569 S    
O2    C4    1.324121 A    
C16   C48   1.396270 A    
C2    O7    1.335797 A    
N2    O24   1.300596 A    
C55   H29   1.111226 S    
C15   C47   1.399817 A    
C29   C31   1.411980 A    
C21   O25   1.382583 S    
C17   H15   1.084166 S    
C14   C51   1.466320 S    
C5    C9    1.500753 S    
C6    C10   1.494565 S    
C7    H1    1.082492 S    
C10   C12   1.344240 D    
C39   C41   1.419640 A    
C40   C42   1.420163 A    
C13   C52   1.469132 S    
O16   C52   1.331108 A    
C53   H25   1.114104 S    
C35   H21   1.076567 S    
C24   C28   1.435499 A    
C27   C29   1.431261 A    
C49   O18   1.324858 A    
C43   C45   1.392333 A    
C5    N1    1.439262 S    
O26   C56   1.416457 S    
C44   C46   1.390559 A    
C18   H16   1.084104 S    
C53   H26   1.116127 S    
C31   C33   1.386623 A    
C58   H38   1.111041 S    
C32   C34   1.386756 A    
O25   C53   1.414367 S    
C9    H3    1.086057 S    
C17   C25   1.400645 A    
O17   V3    2.004368 S    
C34   H8    1.084475 S    
C15   C45   1.395797 A    
C26   C34   1.392530 A    
C30   C32   1.412671 A    
C42   C48   1.412613 A    
O6    V2    2.019398 S    
C23   C25   1.419879 A    
C24   C26   1.420342 A    
N2    O23   1.300784 A    
C30   C42   1.429291 A    
O13   V3    2.012276 S    
C56   H33   1.112369 S    
C11   H5    1.083404 S    
C36   C38   1.385037 A    
C38   H14   1.084443 S    
O4    C2    1.342443 A    
C43   H23   1.084049 S    
C33   H7    1.084459 S    
O5    V1    2.012180 S    
C20   H18   1.083549 S    
C3    C12   1.480049 S    
C19   H17   1.083632 S    
C27   C35   1.411459 A    
C31   H19   1.076768 S    
O4    V2    2.020076 S    
O5    C3    1.334216 A    
O2    V1    2.004170 S    
C13   C21   1.407383 A    
O18   V4    2.007836 S    
O6    C4    1.337016 A    
C1    C16   1.454743 S    
C28   C36   1.414354 A    
C16   C46   1.394644 A    
C54   H28   1.108905 S    
O1    V2    2.007636 S    
C6    N2    1.435523 S    
O12   V3    2.038296 S    
O14   V4    2.019477 S    
O12   C52   1.322502 A    
C45   H11   1.083516 S    
C12   H6    1.083003 S    
C14   C20   1.393849 A    
C37   C39   1.393158 A    
C58   H36   1.107935 S    
C18   C26   1.402368 A    
C57   H35   1.111536 S    
C36   H22   1.074895 S    
O19   V4    1.762477 S    
O3    V1    2.037827 S    
O16   V4    2.020004 S    
C50   O17   1.327373 A    
C56   C57   1.524356 S    
C44   H24   1.084071 S    
C17   C19   1.388542 A    
C10   H4    1.086454 S    
C8    H2    1.082037 S    
O3    C1    1.336978 A    
C32   H20   1.076789 S    
C55   H30   1.110767 S    
C56   H32   1.111359 S    
C53   C54   1.528525 S    
C39   C43   1.404106 A    
C8    C49   1.490710 S    
C2    C15   1.463820 S    
C4    C11   1.483544 S    
C57   C58   1.515636 S    
C18   C20   1.389441 A    
O7    V1    2.030195 S    
C1    O8    1.336418 A    
C7    C50   1.490116 S    
O8    V2    2.020666 S    
C41   C47   1.417493 A    
O11   C51   1.325370 A    
C25   C33   1.392594 A    
C48   H10   1.078028 S    
C47   H9    1.077897 S    
O11   V4    2.027971 S    
C22   C24   1.431303 A    
C5    C7    1.366128 D    
C38   C40   1.389503 A    
C54   C55   1.526927 S    
C6    C8    1.366542 D    
C14   C22   1.408738 A    
C55   H31   1.110092 S    
C29   C41   1.430934 A    
C37   H13   1.084338 S    
C28   C30   1.427978 A    
C13   C19   1.397443 A    
C9    C11   1.345114 D    
C21   C23   1.430725 A    
O15   C51   1.325616 A    
N1    O22   1.301742 A    
O20   V3    1.755239 S    
O9    V2    1.763220 S    
C58   H37   1.105461 S    
O13   C49   1.338837 A    
C23   C27   1.433266 A    
O10   V1    1.755982 S    
O15   V3    2.037756 S    
C57   H34   1.098444 S    
