data_mof_unit_6205.cif
_audit_creation_date              2012-12-11T14:15:47-0500
_audit_creation_method            fapswitch 2.2
_symmetry_space_group_name_H-M    P1
_symmetry_Int_Tables_number       1
_space_group_crystal_system       triclinic
_cell_length_a                    11.150811
_cell_length_b                    12.719716
_cell_length_c                    23.570727
_cell_angle_alpha                 90.489975
_cell_angle_beta                  96.826294
_cell_angle_gamma                 68.589411
_cell_volume                      3088.1814254

loop_
_atom_site_label
_atom_site_type_symbol
_atom_type_description
_atom_site_fract_x
_atom_site_fract_y
_atom_site_fract_z
_atom_type_partial_charge
Br1   Br    Br    0.618017 0.537726 0.762298 -0.517390
Br2   Br    Br    0.958928 0.125511 0.838674 -0.502153
Br3   Br    Br    0.760358 0.945787 0.269600 -0.539364
C1    C     C_R   0.149327 0.616680 0.428797 0.548004
C2    C     C_2   0.181865 0.232355 0.226619 -0.112301
C3    C     C_2   0.155279 0.165471 0.262971 -0.103194
C4    C     C_R   0.749524 0.604217 0.404026 0.542680
C5    C     C_1   0.132331 0.199511 0.320609 -0.025270
C6    C     C_1   0.210971 0.196544 0.169820 -0.030626
C7    C     C_1   0.115949 0.232636 0.368320 0.013403
C8    C     C_1   0.167889 0.750228 0.123844 0.003106
C9    C     C_2   0.142087 0.690210 0.228046 -0.104443
C10   C     C_2   0.236308 0.676634 0.271663 -0.116938
C11   C     C_1   0.217331 0.652844 0.329175 -0.031638
C12   C     C_R   0.656182 0.561527 0.311271 -0.126908
C13   C     C_1   0.155432 0.721558 0.170906 -0.036438
C14   C     C_1   0.193467 0.635036 0.376084 0.010305
C15   C     C_1   0.626619 0.760401 0.865170 0.033474
C16   C     C_R   0.101066 0.282545 0.423281 0.546945
C17   C     C_2   0.681328 0.736423 0.758745 -0.090982
C18   C     C_2   0.660243 0.654136 0.728151 0.180449
C19   C     C_1   0.680009 0.644599 0.668890 -0.010301
C20   C     C_1   0.656954 0.749336 0.817515 0.011521
C21   C     C_1   0.704524 0.629885 0.620434 -0.002927
C22   C     C_R   0.192179 0.185671 0.855430 0.024665
C23   C     C_R   0.715076 0.728009 0.318365 -0.102331
C24   C     C_R   0.105880 0.237675 0.642797 0.016456
C25   C     C_R   0.008787 0.173016 0.714479 -0.092287
C26   C     C_R   0.015741 0.192946 0.657285 -0.134012
C27   C     C_R   0.187877 0.263568 0.685292 -0.113891
C28   C     C_R   0.146149 0.614474 0.592228 0.544716
C29   C     C_R   0.180148 0.246309 0.742108 0.017039
C30   C     C_R   0.091305 0.199011 0.757688 0.068984
C31   C     C_R   0.092064 0.174574 0.815647 0.153584
C32   C     C_R   0.267812 0.245094 0.839757 -0.146298
C33   C     C_R   0.261375 0.275743 0.783332 -0.138646
C34   C     C_R   0.704745 0.737316 0.258749 0.049870
C35   C     C_R   0.122683 0.743814 0.854343 0.007422
C36   C     C_R   0.175931 0.628688 0.652937 0.011596
C37   C     C_R   0.293709 0.554751 0.745775 -0.108619
C38   C     C_R   0.282537 0.549399 0.686365 -0.117934
C39   C     C_R   0.080009 0.711607 0.679328 -0.116036
C40   C     C_R   0.750631 0.601594 0.566172 0.545166
C41   C     C_R   0.088509 0.715299 0.738018 0.042214
C42   C     C_R   0.197887 0.638475 0.771732 0.048570
C43   C     C_R   0.213063 0.651735 0.830352 -0.114800
C44   C     C_R   0.006403 0.810341 0.821569 -0.105719
C45   C     C_R   0.678459 0.652261 0.226543 0.011262
C46   C     C_R   0.989871 0.796670 0.763295 -0.129305
C47   C     C_R   0.265915 0.109792 0.069515 0.542254
C48   C     C_R   0.600624 0.774520 0.081121 0.544590
C49   C     C_R   0.189765 0.787899 0.069872 0.539665
C50   C     C_R   0.239773 0.115986 0.907960 0.561023
C51   C     C_R   0.574748 0.776525 0.918629 0.549225
C52   C     C_R   0.099629 0.280177 0.585499 0.544581
C53   C     C_R   0.162992 0.785808 0.907876 0.547828
C54   C     C_R   0.668807 0.752816 0.139240 -0.026811
C55   C     C_R   0.696579 0.637128 0.344606 -0.003775
C56   C     C_R   0.673016 0.655653 0.167959 -0.129905
C57   C     C_R   0.650628 0.567257 0.252643 -0.138993
C58   C     C_R   0.697936 0.836921 0.170188 -0.099664
C59   C     C_R   0.720554 0.827716 0.230008 0.145259
C60   C     C_1   0.236089 0.161842 0.123109 0.011718
Cr1   Cr    Cr6+3 0.189770 0.415650 0.511620 1.037211
Cr2   Cr    Cr6+3 0.930400 0.667320 0.496770 1.038601
Cr3   Cr    Cr6+3 0.879870 0.417010 0.491650 1.043270
Cr4   Cr    Cr6+3 0.149500 0.973980 0.985330 1.085448
Cr5   Cr    Cr6+3 0.457000 0.976510 0.994660 1.044458
Cr6   Cr    Cr6+3 0.411170 0.724270 0.995270 1.040091
H1    H     H_    0.051784 0.681342 0.235395 0.153257
H2    H     H_    0.355135 0.482481 0.666742 0.145186
H3    H     H_    0.994869 0.771731 0.654386 0.133996
H4    H     H_    0.625705 0.504445 0.227719 0.122121
H5    H     H_    0.639261 0.491969 0.330533 0.151469
H6    H     H_    0.744013 0.787042 0.344540 0.181735
H7    H     H_    0.153422 0.083846 0.250011 0.151219
H8    H     H_    0.184505 0.313642 0.239779 0.137823
H9    H     H_    0.326262 0.686499 0.264661 0.139981
H10   H     H_    0.655013 0.587868 0.144647 0.146738
H11   H     H_    0.709655 0.798826 0.738660 0.087110
H12   H     H_    0.340216 0.259385 0.870468 0.146232
H13   H     H_    0.696371 0.912028 0.148309 0.165742
H14   H     H_    0.903942 0.854012 0.737667 0.107611
H15   H     H_    0.939406 0.136619 0.723967 0.166831
H16   H     H_    0.326598 0.315142 0.771534 0.118928
H17   H     H_    0.949417 0.175564 0.624494 0.128240
H18   H     H_    0.254753 0.302179 0.674385 0.133794
H19   H     H_    0.301443 0.597931 0.855921 0.140844
H20   H     H_    0.933710 0.879519 0.839866 0.170805
H21   H     H_    0.376609 0.493796 0.771383 0.154983
O1    O     O_R   0.196340 0.303200 0.448500 -0.502969
O2    O     O_R   0.555390 0.700940 0.062700 -0.518778
O3    O     O_R   0.295020 0.731920 0.049950 -0.499397
O4    O     O_R   0.199310 0.519670 0.454880 -0.494113
O5    O     O_R   0.094290 0.884230 0.921550 -0.481227
O6    O     O_R   0.168980 0.069410 0.926940 -0.446254
O7    O     O_R   0.358400 0.089990 0.927950 -0.522879
O8    O     O_R   0.544850 0.873850 0.939920 -0.497868
O9    O     O_R   0.536020 0.701900 0.936430 -0.489509
O10   O     O_R   0.277070 0.732810 0.932890 -0.507005
O11   O     O_3   0.339220 0.891590 0.991750 -0.259282
O12   O     O_R   0.811960 0.658090 0.547150 -0.502305
O13   O     O_R   0.045660 0.691380 0.441680 -0.494168
O14   O     O_R   0.811930 0.659460 0.430950 -0.501687
O15   O     O_R   0.757900 0.507620 0.421760 -0.514600
O16   O     O_R   0.988630 0.322990 0.439840 -0.491756
O17   O     O_R   0.196380 0.301720 0.573850 -0.522005
O18   O     O_R   0.199350 0.518300 0.571080 -0.503348
O19   O     O_R   0.045700 0.689900 0.567030 -0.521463
O20   O     O_R   0.757930 0.506140 0.547110 -0.497563
O21   O     O_R   0.988670 0.321620 0.556040 -0.496626
O22   O     O_3   0.000020 0.499990 0.500010 -0.255973
O23   O     O_R   0.113660 0.883270 0.047820 -0.502777
O24   O     O_R   0.186930 0.068530 0.043990 -0.493760
O25   O     O_R   0.377770 0.089040 0.054220 -0.505111
O26   O     O_R   0.562800 0.872960 0.056970 -0.498980

loop_
_geom_bond_atom_site_label_1
_geom_bond_atom_site_label_2
_ccdc_geom_bond_type
C41   C46   A    
C53   O5    A    
Br1   C18   S    
C25   H15   S    
C28   O18   A    
C32   C33   A    
C34   C59   A    
C32   H12   S    
C44   C46   A    
C42   C43   A    
C9    C10   D    
Cr1   O17   S    
C29   C33   A    
C25   C26   A    
Cr4   O24   S    
C22   C50   S    
Cr6   O3    S    
C58   H13   S    
C2    C3    D    
C24   C52   S    
Cr1   O22   S    
C24   C26   A    
C1    O13   A    
C57   H4    S    
C47   O25   A    
C12   C57   A    
Cr5   O7    S    
C8    C49   S    
C9    C13   S    
C4    O15   A    
Cr1   O18   S    
C48   C54   S    
C40   O20   A    
Cr3   O21   S    
Cr6   O2    S    
C4    C55   S    
C22   C31   A    
C38   H2    S    
Br2   C31   S    
C10   C11   S    
C24   C27   A    
Cr4   O5    S    
C47   C60   S    
C44   H20   S    
C11   C14   T    
C39   C41   A    
Cr2   O12   S    
Cr3   O16   S    
C45   C57   A    
C36   C39   A    
C43   H19   S    
C28   O19   A    
C37   C42   A    
C17   H11   S    
C15   C20   T    
Cr5   O11   S    
C36   C38   A    
C56   H10   S    
C3    C5    S    
C50   O7    A    
C49   O23   A    
C52   O17   A    
C47   O24   A    
C16   O16   A    
Cr2   O22   S    
C2    C6    S    
C48   O2    A    
C8    C13   T    
C17   C20   S    
C7    C16   S    
C39   H3    S    
C30   C31   A    
C26   H17   S    
C49   O3    A    
Cr3   O20   S    
C34   C45   A    
C3    H7    S    
C23   C55   A    
Cr2   O19   S    
C35   C44   A    
C22   C32   A    
C1    O4    A    
C1    C14   S    
Cr6   O9    S    
C5    C7    T    
C37   C38   A    
Cr5   O26   S    
C25   C30   A    
C4    O14   A    
Cr4   O6    S    
C12   C55   A    
C19   C21   T    
C51   O9    A    
C54   C56   A    
C53   O10   A    
Cr3   O15   S    
C2    H8    S    
C41   C42   A    
Cr4   O11   S    
C45   C56   A    
Br3   C59   S    
C9    H1    S    
C10   H9    S    
C52   O21   A    
C6    C60   T    
C23   C34   A    
C54   C58   A    
Cr6   O11   S    
C33   H16   S    
C48   O26   A    
Cr2   O14   S    
C37   H21   S    
C29   C30   A    
C46   H14   S    
Cr4   O23   S    
C40   O12   A    
Cr1   O4    S    
C27   C29   A    
C28   C36   S    
C58   C59   A    
Cr5   O8    S    
C35   C43   A    
C16   O1    A    
C15   C51   S    
Cr5   O25   S    
Cr6   O10   S    
C12   H5    S    
C35   C53   S    
C17   C18   D    
C23   H6    S    
C21   C40   S    
Cr2   O13   S    
C51   O8    A    
Cr1   O1    S    
Cr3   O22   S    
C27   H18   S    
C18   C19   S    
C50   O6    A    
