data_mof_unit_63779.cif
_audit_creation_date              2012-12-10T19:45:52-0500
_audit_creation_method            fapswitch 2.2
_symmetry_space_group_name_H-M    P1
_symmetry_Int_Tables_number       1
_space_group_crystal_system       triclinic
_cell_length_a                    18.401222
_cell_length_b                    18.411674
_cell_length_c                    27.659138
_cell_angle_alpha                 89.967028
_cell_angle_beta                  90.018752
_cell_angle_gamma                 90.065107
_cell_volume                      9370.83319157

loop_
_atom_site_label
_atom_site_type_symbol
_atom_type_description
_atom_site_fract_x
_atom_site_fract_y
_atom_site_fract_z
_atom_type_partial_charge
C1    C     C_1   0.999992 0.500021 0.775521 0.018994
C2    C     C_3   0.224673 0.165691 0.924573 0.308909
C3    C     C_R   0.274139 0.780224 0.548315 0.277473
C4    C     C_1   0.500034 0.999994 0.224518 0.010095
C5    C     C_1   0.000024 0.500035 0.224520 0.011977
C6    C     C_1   0.999989 0.499982 0.724518 0.012636
C7    C     C_1   0.500010 0.000009 0.724520 0.012455
C8    C     C_3   0.804667 0.255384 0.910255 0.304789
C9    C     C_3   0.775892 0.835088 0.925009 0.309036
C10   C     C_3   0.165859 0.225446 0.924375 0.304225
C11   C     C_3   0.255222 0.804751 0.910249 0.304882
C12   C     C_3   0.834718 0.775357 0.924808 0.304362
C13   C     C_3   0.744711 0.195384 0.910253 0.304987
C14   C     C_3   0.698565 0.241302 0.409629 0.302958
C15   C     C_3   0.752551 0.692100 0.410624 0.302418
C16   C     C_3   0.301019 0.758880 0.409564 0.301097
C17   C     C_1   0.499987 0.000007 0.775519 0.018761
C18   C     C_3   0.274708 0.334140 0.424409 0.304064
C19   C     C_3   0.692970 0.752342 0.410341 0.296036
C20   C     C_3   0.758549 0.301282 0.409590 0.301546
C21   C     C_3   0.334442 0.275307 0.424610 0.309050
C22   C     C_3   0.241072 0.698863 0.409599 0.302540
C23   C     C_R   0.499990 0.000000 0.870897 0.528612
C24   C     C_R   0.000000 0.500017 0.870904 0.526527
C25   C     C_R   0.999992 0.500018 0.370897 0.530142
C26   C     C_R   0.500018 0.000019 0.370904 0.529745
C27   C     C_R   0.500003 0.999984 0.129114 0.499574
C28   C     C_1   0.500042 0.000037 0.275521 0.016661
C29   C     C_R   0.000010 0.500004 0.129122 0.509214
C30   C     C_R   0.999993 0.499984 0.629114 0.503327
C31   C     C_R   0.500009 0.000006 0.629121 0.504002
C32   C     C_R   0.641027 0.860892 0.000988 0.526395
C33   C     C_R   0.139151 0.640823 0.000863 0.517021
C34   C     C_R   0.358964 0.139092 0.000978 0.525973
C35   C     C_R   0.860853 0.359188 0.000865 0.516897
C36   C     C_R   0.640832 0.139126 0.000859 0.517823
C37   C     C_R   0.139787 0.359544 0.000540 0.568208
C38   C     C_R   0.359165 0.860859 0.000859 0.517989
C39   C     C_1   0.000005 0.500042 0.275520 0.017146
C40   C     C_R   0.860230 0.640477 0.000539 0.568233
C41   C     C_R   0.140470 0.360222 0.500534 0.568599
C42   C     C_R   0.639180 0.140787 0.500831 0.516245
C43   C     C_R   0.859119 0.639113 0.500876 0.523157
C44   C     C_R   0.360797 0.859237 0.500810 0.517379
C45   C     C_R   0.140793 0.639159 0.500823 0.520285
C46   C     C_R   0.639753 0.859691 0.500419 0.565253
C47   C     C_R   0.859212 0.360806 0.500807 0.513343
C48   C     C_R   0.360888 0.141019 0.500981 0.525655
C49   C     C_1   0.999996 0.500040 0.819078 0.071340
C50   C     C_1   0.500020 0.999966 0.180955 0.052241
C51   C     C_1   0.499977 0.000004 0.819074 0.070426
C52   C     C_1   0.500037 0.000051 0.319078 0.069429
C53   C     C_1   0.999987 0.500037 0.319075 0.069550
C54   C     C_R   0.260180 0.791619 0.963380 0.019337
C55   C     C_R   0.212494 0.264693 0.960164 -0.023753
C56   C     C_R   0.739786 0.208441 0.963381 0.019511
C57   C     C_R   0.787786 0.735686 0.960228 -0.023974
C58   C     C_R   0.264845 0.211622 0.960431 -0.004051
C59   C     C_R   0.208386 0.739801 0.963382 0.019361
C60   C     C_R   0.735407 0.788742 0.960497 -0.004227
C61   C     C_1   0.000028 0.500021 0.180960 0.056891
C62   C     C_R   0.791570 0.260273 0.963383 0.019588
C63   C     C_R   0.761329 0.290427 0.463020 0.020307
C64   C     C_R   0.708006 0.759485 0.463114 0.002689
C65   C     C_R   0.238545 0.709636 0.463022 0.020280
C66   C     C_R   0.288399 0.235147 0.460430 -0.003716
C67   C     C_R   0.759369 0.707379 0.463414 0.020673
C68   C     C_R   0.709523 0.238621 0.463041 0.020240
C69   C     C_R   0.235349 0.287522 0.460160 -0.023665
C70   C     C_R   0.290316 0.761482 0.463005 0.020407
C71   C     C_R   0.300330 0.808791 0.004196 -0.030446
C72   C     C_1   0.999989 0.499962 0.680956 0.055830
C73   C     C_R   0.196281 0.304394 0.001645 0.049368
C74   C     C_R   0.699675 0.191192 0.004195 -0.030398
C75   C     C_R   0.803743 0.695634 0.001641 0.049466
C76   C     C_R   0.302430 0.194111 0.002631 0.019532
C77   C     C_R   0.191230 0.699639 0.004200 -0.029662
C78   C     C_R   0.697536 0.805843 0.002636 0.019740
C79   C     C_R   0.808759 0.300373 0.004200 -0.029546
C80   C     C_R   0.800377 0.308728 0.504091 -0.030214
C81   C     C_R   0.693216 0.802092 0.503142 0.024530
C82   C     C_R   0.199625 0.691227 0.504109 -0.030250
C83   C     C_1   0.500021 0.000009 0.680959 0.055598
C84   C     C_R   0.305835 0.197515 0.502625 0.019758
C85   C     C_R   0.800535 0.691508 0.504019 -0.008659
C86   C     C_R   0.691263 0.199591 0.504119 -0.029913
C87   C     C_R   0.195622 0.303732 0.501639 0.049434
C88   C     C_R   0.308693 0.800423 0.504090 -0.030469
C89   C     C_R   0.281436 0.772933 0.048217 0.276370
C90   C     C_R   0.238339 0.293113 0.043868 0.271787
C91   C     C_R   0.718600 0.226988 0.048215 0.276435
C92   C     C_R   0.761427 0.706546 0.043771 0.271888
C93   C     C_R   0.289779 0.235987 0.045003 0.217565
C94   C     C_3   0.195254 0.744762 0.910251 0.304714
C95   C     C_R   0.227074 0.718542 0.048219 0.276727
C96   C     C_R   0.709969 0.763636 0.044920 0.217479
C97   C     C_R   0.772952 0.281392 0.048217 0.276682
C98   C     C_R   0.780323 0.274060 0.548312 0.276547
C99   C     C_R   0.731317 0.786752 0.546605 0.271037
C100  C     C_R   0.219772 0.725799 0.548324 0.277782
C101  C     C_R   0.263904 0.210147 0.544985 0.217688
C102  C     C_R   0.783856 0.729762 0.547525 0.214272
C103  C     C_R   0.725941 0.219655 0.548325 0.276853
C104  C     C_R   0.206811 0.261624 0.543850 0.272056
H1    H     H_    0.122401 0.777165 0.865310 0.345876
H2    H     H_    0.718165 0.617692 0.367533 0.346006
H3    H     H_    0.371740 0.728493 0.362603 0.346165
H4    H     H_    0.324575 0.425871 0.419923 0.357333
H5    H     H_    0.618387 0.718405 0.367179 0.346668
H6    H     H_    0.727915 0.372070 0.362705 0.346215
H7    H     H_    0.425427 0.326609 0.420134 0.357033
H8    H     H_    0.271440 0.628108 0.362678 0.345793
H9    H     H_    0.326616 0.842744 0.091374 0.329844
H10   H     H_    0.259765 0.324000 0.110202 0.388659
H11   H     H_    0.673465 0.157100 0.091372 0.330028
H12   H     H_    0.173297 0.074792 0.920022 0.355712
H13   H     H_    0.739514 0.675011 0.109917 0.386826
H14   H     H_    0.327725 0.166299 0.091018 0.344455
H15   H     H_    0.157262 0.673291 0.091379 0.331229
H16   H     H_    0.672018 0.832975 0.091078 0.344385
H17   H     H_    0.842788 0.326598 0.091378 0.331057
H18   H     H_    0.825437 0.344635 0.591013 0.328141
H19   H     H_    0.746263 0.811550 0.614752 0.389101
H20   H     H_    0.174668 0.655148 0.591015 0.330871
H21   H     H_    0.333550 0.172158 0.591023 0.343992
H22   H     H_    0.826648 0.659611 0.591411 0.341947
H23   H     H_    0.877495 0.223053 0.865329 0.345595
H24   H     H_    0.655398 0.174438 0.591041 0.328659
H25   H     H_    0.175736 0.240083 0.610138 0.388665
H26   H     H_    0.344777 0.825360 0.590998 0.330503
H27   H     H_    0.827302 0.926042 0.921076 0.355843
H28   H     H_    0.074022 0.175722 0.919820 0.356089
H29   H     H_    0.222749 0.877542 0.865303 0.345829
H30   H     H_    0.926579 0.825162 0.920868 0.356303
H31   H     H_    0.777166 0.122660 0.865323 0.345714
H32   H     H_    0.627582 0.271723 0.362792 0.345993
I1    I     I_    0.216107 0.643196 0.874085 -0.251899
I2    I     I_    0.853133 0.710979 0.372611 -0.235267
I3    I     I_    0.278515 0.861985 0.375765 -0.250762
I4    I     I_    0.210717 0.350555 0.360041 -0.221065
I5    I     I_    0.713198 0.852322 0.371965 -0.243839
I6    I     I_    0.861632 0.279007 0.375692 -0.252000
I7    I     I_    0.352094 0.211461 0.360381 -0.215312
I8    I     I_    0.137767 0.721103 0.375894 -0.232408
I9    I     I_    0.288634 0.148089 0.860366 -0.219027
I10   I     I_    0.783773 0.356997 0.874071 -0.254647
I11   I     I_    0.712519 0.853419 0.860591 -0.218655
I12   I     I_    0.149573 0.289502 0.860028 -0.223931
I13   I     I_    0.356877 0.784009 0.874082 -0.249980
I14   I     I_    0.851592 0.712054 0.860253 -0.223471
I15   I     I_    0.643027 0.216157 0.874070 -0.251591
I16   I     I_    0.720823 0.138188 0.375821 -0.234751
O1    O     O_3   0.500000 0.000000 0.000010 -0.486142
O2    O     O_R   0.500000 0.939270 0.393740 -0.509576
O3    O     O_R   0.060730 0.500000 0.393740 -0.510240
O4    O     O_R   0.500000 0.060730 0.393740 -0.509085
O5    O     O_R   0.500000 0.939230 0.106280 -0.530961
O6    O     O_R   0.060770 0.500000 0.106280 -0.521099
O7    O     O_R   0.500000 0.060770 0.106280 -0.529514
O8    O     O_R   0.939230 0.500000 0.106280 -0.522223
O9    O     O_R   0.000000 0.439230 0.606280 -0.520462
O10   O     O_R   0.560770 0.000000 0.606280 -0.520625
O11   O     O_R   0.000000 0.560770 0.606280 -0.532399
O12   O     O_3   1.000000 0.500000 0.000010 -0.494628
O13   O     O_R   0.439230 0.000000 0.606280 -0.531535
O14   O     O_R   0.646160 0.914520 0.972140 -0.486591
O15   O     O_R   0.085480 0.646160 0.972140 -0.482303
O16   O     O_R   0.353840 0.085480 0.972140 -0.486589
O17   O     O_R   0.914520 0.353840 0.972140 -0.482230
O18   O     O_R   0.646160 0.085480 0.972140 -0.483104
O19   O     O_R   0.085480 0.353840 0.972140 -0.496146
O20   O     O_R   0.353840 0.914520 0.972140 -0.483141
O21   O     O_R   0.914520 0.646160 0.972140 -0.496441
O22   O     O_R   0.146160 0.414520 0.472140 -0.497070
O23   O     O_3   1.000000 0.500000 0.500010 -0.490805
O24   O     O_R   0.585480 0.146160 0.472140 -0.484206
O25   O     O_R   0.853840 0.585480 0.472140 -0.489232
O26   O     O_R   0.414520 0.853840 0.472140 -0.484693
O27   O     O_R   0.146160 0.585480 0.472140 -0.482281
O28   O     O_R   0.585480 0.853840 0.472140 -0.499288
O29   O     O_R   0.853840 0.414520 0.472140 -0.486974
O30   O     O_R   0.414520 0.146160 0.472140 -0.487442
O31   O     O_R   0.414550 0.146120 0.027860 -0.523676
O32   O     O_R   0.853880 0.414550 0.027860 -0.532010
O33   O     O_R   0.585450 0.853880 0.027860 -0.523943
O34   O     O_3   0.500000 0.000000 0.500010 -0.490843
O35   O     O_R   0.146120 0.585450 0.027860 -0.531845
O36   O     O_R   0.414550 0.853880 0.027860 -0.527093
O37   O     O_R   0.853880 0.585450 0.027860 -0.484678
O38   O     O_R   0.585450 0.146120 0.027860 -0.526867
O39   O     O_R   0.146120 0.414550 0.027860 -0.484718
O40   O     O_R   0.914550 0.646120 0.527860 -0.520476
O41   O     O_R   0.353880 0.914550 0.527860 -0.526464
O42   O     O_R   0.085450 0.353880 0.527860 -0.483564
O43   O     O_R   0.646120 0.085450 0.527860 -0.530714
O44   O     O_R   0.914550 0.353880 0.527860 -0.531370
O45   O     O_R   0.439270 0.000000 0.893740 -0.509347
O46   O     O_R   0.353880 0.085450 0.527860 -0.524117
O47   O     O_R   0.085450 0.646120 0.527860 -0.525310
O48   O     O_R   0.646120 0.914550 0.527860 -0.480088
O49   O     O_3   0.125478 0.771770 0.900918 -0.609137
O50   O     O_3   0.200849 0.100550 0.945626 -0.616068
O51   O     O_3   0.874442 0.228402 0.900936 -0.609094
O52   O     O_3   0.799514 0.899993 0.946444 -0.616383
O53   O     O_3   0.100266 0.202840 0.945408 -0.613637
O54   O     O_3   0.228139 0.874464 0.900911 -0.609191
O55   O     O_3   0.900122 0.797733 0.946221 -0.613972
O56   O     O_R   1.000000 0.439270 0.893740 -0.511178
O57   O     O_3   0.771800 0.125689 0.900930 -0.609283
O58   O     O_3   0.629210 0.267882 0.398531 -0.607443
O59   O     O_3   0.724746 0.622163 0.402985 -0.598908
O60   O     O_3   0.370330 0.732363 0.398342 -0.599815
O61   O     O_3   0.297351 0.399648 0.445481 -0.614234
O62   O     O_3   0.622725 0.725280 0.402612 -0.598386
O63   O     O_3   0.731905 0.370558 0.398439 -0.600266
O64   O     O_3   0.399609 0.299032 0.445706 -0.616495
O65   O     O_3   0.267709 0.629614 0.398421 -0.607519
O66   O     O_3   0.312156 0.790973 0.092159 -0.590536
O67   O     O_R   0.560730 0.000000 0.893740 -0.509294
O68   O     O_3   0.223695 0.334321 0.084570 -0.635971
O69   O     O_3   0.687923 0.208871 0.092156 -0.589901
O70   O     O_3   0.775829 0.665015 0.084405 -0.637261
O71   O     O_3   0.322847 0.219742 0.088517 -0.662880
O72   O     O_3   0.209045 0.687804 0.092161 -0.590036
O73   O     O_3   0.676679 0.779537 0.088387 -0.665234
O74   O     O_3   0.791012 0.312062 0.092160 -0.590546
O75   O     O_3   0.809994 0.293179 0.592376 -0.591162
O76   O     O_3   0.714280 0.826097 0.587679 -0.638190
O77   O     O_3   0.190213 0.706569 0.592403 -0.589159
O78   O     O_R   1.000000 0.560730 0.893740 -0.511345
O79   O     O_3   0.280081 0.177035 0.588492 -0.662954
O80   O     O_3   0.816107 0.712329 0.591102 -0.664086
O81   O     O_3   0.706850 0.189982 0.592399 -0.591021
O82   O     O_3   0.165554 0.276246 0.584547 -0.635612
O83   O     O_3   0.293337 0.809789 0.592387 -0.589306
O84   O     O_R   0.939270 0.500000 0.393740 -0.508329
Zn1   Zn    Zn3+2 0.500000 0.913210 0.039810 0.984040
Zn2   Zn    Zn3+2 1.000000 0.586760 0.960200 1.028542
Zn3   Zn    Zn3+2 0.413240 0.000000 0.960200 1.029545
Zn4   Zn    Zn3+2 1.000000 0.413240 0.960200 1.028566
Zn5   Zn    Zn3+2 0.086760 0.500000 0.460200 1.034323
Zn6   Zn    Zn3+2 0.500000 0.086760 0.460200 1.028327
Zn7   Zn    Zn3+2 0.913240 0.500000 0.460200 1.029114
Zn8   Zn    Zn3+2 0.500000 0.913240 0.460200 1.035906
Zn9   Zn    Zn3+2 0.086790 0.500000 0.039810 1.007504
Zn10  Zn    Zn3+2 0.500000 0.086790 0.039810 0.985150
Zn11  Zn    Zn3+2 0.913210 0.500000 0.039810 1.006406
Zn12  Zn    Zn3+2 1.000000 0.413210 0.539810 1.003627
Zn13  Zn    Zn3+2 0.586790 0.000000 0.539810 1.007940
Zn14  Zn    Zn3+2 0.000000 0.586790 0.539810 0.989507
Zn15  Zn    Zn3+2 0.413210 0.000000 0.539810 0.986871
Zn16  Zn    Zn3+2 0.586760 0.000000 0.960200 1.029533

loop_
_geom_bond_atom_site_label_1
_geom_bond_atom_site_label_2
_ccdc_geom_bond_type
C7    C83   T    
C41   O22   A    
C8    C13   S    
C32   O14   A    
C21   C66   S    
O37   Zn11  S    
C18   C21   S    
C68   C86   A    
C26   O4    A    
C45   C82   S    
C2    O50   S    
C47   O29   A    
C70   C88   A    
C59   C77   A    
C65   C82   A    
C58   C76   A    
C22   C65   S    
C36   C74   S    
C2    I9    S    
O23   Zn7   S    
C60   C78   A    
C44   O41   A    
C32   O33   A    
C36   O38   A    
C30   O11   A    
O84   Zn7   S    
C100  O77   S    
C10   O53   S    
C25   C53   S    
C73   C90   A    
O10   Zn13  S    
C24   O78   A    
C40   O21   A    
C76   C93   A    
O40   Zn14  S    
C66   C69   A    
C25   O3    A    
O19   Zn4   S    
C23   C51   S    
C27   O7    A    
C98   C103  A    
C14   I16   S    
O43   Zn13  S    
H26   O83   S    
C92   C96   A    
C31   C83   S    
C14   C20   S    
C33   C77   S    
O12   Zn11  S    
O34   Zn13  S    
C15   O59   S    
O36   Zn1   S    
O22   Zn5   S    
C3    O83   S    
C89   O66   S    
C63   C68   A    
H1    O49   S    
O46   Zn15  S    
C11   I13   S    
O15   Zn2   S    
O33   Zn1   S    
C54   C71   A    
C31   O13   A    
C25   O84   A    
C78   C96   A    
C7    C17   S    
O17   Zn4   S    
O12   Zn4   S    
H8    O65   S    
C42   C86   S    
O6    Zn9   S    
C91   O69   S    
C90   O68   S    
C99   O76   S    
C69   C87   A    
C27   C50   S    
C28   C52   T    
C63   C80   A    
C15   I2    S    
H12   O50   S    
C18   C69   S    
C104  O82   S    
C97   O74   S    
C3    C88   A    
C31   O10   A    
H28   O53   S    
C103  O81   S    
C29   C61   S    
O42   Zn12  S    
O44   Zn12  S    
C102  O80   S    
C84   C101  A    
O56   Zn4   S    
H13   O70   S    
C33   O15   A    
C10   I12   S    
C47   C80   S    
C11   O54   S    
C34   O16   A    
C86   C103  A    
O30   Zn6   S    
C4    C28   S    
C12   I14   S    
C79   C97   A    
O16   Zn3   S    
C23   O67   A    
C54   C59   A    
O28   Zn8   S    
C41   C87   S    
O1    Zn16  S    
O2    Zn8   S    
O38   Zn10  S    
C67   C85   A    
C14   O58   S    
O18   Zn16  S    
C1    C6    S    
C43   C85   S    
C12   O55   S    
C13   O57   S    
C47   O44   A    
C16   O60   S    
C56   C74   A    
H7    O64   S    
C13   I15   S    
O9    Zn12  S    
C33   O35   A    
H5    O62   S    
C3    C100  A    
C44   O26   A    
O34   Zn6   S    
O1    Zn3   S    
O21   Zn2   S    
C26   C52   S    
C57   C60   A    
H19   O76   S    
C16   C70   S    
C35   O32   A    
C6    C72   T    
H2    O59   S    
C77   C95   A    
O14   Zn16  S    
H17   O74   S    
C48   C84   S    
C48   O46   A    
H23   O51   S    
O31   Zn10  S    
C55   C73   A    
C74   C91   A    
C89   C95   A    
C15   C19   S    
C64   C67   A    
O7    Zn10  S    
C41   O42   A    
C10   C55   S    
C9    O52   S    
C20   I6    S    
O48   Zn13  S    
C48   O30   A    
C46   C81   S    
O26   Zn8   S    
C62   C79   A    
O47   Zn14  S    
C46   O48   A    
C71   C89   A    
C19   C64   S    
C15   C67   S    
O1    Zn10  S    
C46   O28   A    
C20   O63   S    
C21   O64   S    
C5    C61   T    
C34   O31   A    
C93   O71   S    
C94   O49   S    
C91   C97   A    
C18   I4    S    
H27   O52   S    
C21   I7    S    
O34   Zn15  S    
O27   Zn5   S    
C11   C54   S    
O4    Zn6   S    
C75   C92   A    
H32   O58   S    
C12   C57   S    
O3    Zn5   S    
C11   C94   S    
O5    Zn1   S    
O23   Zn12  S    
C59   C94   S    
C22   O65   S    
C8    C62   S    
C43   O40   A    
C101  C104  A    
O67   Zn16  S    
C5    C39   S    
O12   Zn9   S    
O39   Zn9   S    
O32   Zn11  S    
C56   C62   A    
C26   O2    A    
C18   O61   S    
C45   O47   A    
O8    Zn11  S    
C22   I8    S    
C2    C10   S    
H9    O66   S    
C32   C78   S    
C29   O8    A    
C90   C93   A    
O24   Zn6   S    
C98   O75   S    
C24   C49   S    
O23   Zn5   S    
C37   C73   S    
C38   C71   S    
C43   O25   A    
C16   C22   S    
C101  O79   S    
C80   C98   A    
H14   O71   S    
O13   Zn15  S    
C82   C100  A    
H11   O69   S    
C8    O51   S    
C8    I10   S    
H20   O77   S    
H10   O68   S    
H21   O79   S    
C37   O19   A    
C30   C72   S    
C2    C58   S    
C38   O20   A    
C29   O6    A    
H3    O60   S    
C17   C51   T    
C27   O5    A    
C81   C99   A    
C23   O45   A    
C36   O18   A    
C95   O72   S    
H31   O57   S    
C40   C75   S    
O1    Zn1   S    
H25   O82   S    
C9    C60   S    
C96   O73   S    
C13   C56   S    
C20   C63   S    
C92   O70   S    
H6    O63   S    
H29   O54   S    
H4    O61   S    
O35   Zn9   S    
C42   O24   A    
O34   Zn8   S    
O45   Zn3   S    
C57   C75   A    
H30   O55   S    
C39   C53   T    
C9    I11   S    
C38   O36   A    
H18   O75   S    
C40   O37   A    
C35   C79   S    
H15   O72   S    
C35   O17   A    
C24   O56   A    
O12   Zn2   S    
C44   C88   S    
O41   Zn15  S    
C42   O43   A    
C9    C12   S    
C64   C81   A    
C19   O62   S    
O78   Zn2   S    
O25   Zn7   S    
C45   O27   A    
C66   C84   A    
C87   C104  A    
C16   I3    S    
O20   Zn3   S    
O29   Zn7   S    
H24   O81   S    
C99   C102  A    
C19   I5    S    
C55   C58   A    
C4    C50   T    
C37   O39   A    
C94   I1    S    
C14   C68   S    
C30   O9    A    
C65   C70   A    
H22   O80   S    
C1    C49   T    
H16   O73   S    
O11   Zn14  S    
C85   C102  A    
O23   Zn14  S    
C34   C76   S    
