data_mof_unit_17243.cif
_audit_creation_date              2012-12-11T16:22:20-0500
_audit_creation_method            fapswitch 2.2
_symmetry_space_group_name_H-M    P1
_symmetry_Int_Tables_number       1
_space_group_crystal_system       triclinic
_cell_length_a                    17.180764
_cell_length_b                    16.905282
_cell_length_c                    19.417868
_cell_angle_alpha                 117.632707
_cell_angle_beta                  61.86175
_cell_angle_gamma                 100.385231
_cell_volume                      4400.67546009

loop_
_atom_site_label
_atom_site_type_symbol
_atom_type_description
_atom_site_fract_x
_atom_site_fract_y
_atom_site_fract_z
_atom_type_partial_charge
C1    C     C_R   0.032373 0.758443 0.015544 0.608701
C2    C     C_R   0.226699 0.589611 0.840396 -0.082623
C3    C     C_3   0.996595 0.741083 0.685590 -0.843093
C4    C     C_3   0.844140 0.879225 0.204850 0.264222
C5    C     C_3   0.848846 0.880930 0.281773 -0.870765
C6    C     C_3   0.216702 0.746800 0.090235 0.265080
C7    C     C_3   0.289335 0.811468 0.102110 -0.306950
C8    C     C_3   0.379541 0.762725 0.051858 -1.050935
C9    C     C_3   0.365268 0.463304 0.812383 0.197479
C10   C     C_3   0.438795 0.497952 0.750682 -0.273692
C11   C     C_3   0.485148 0.422469 0.659812 -1.042568
C12   C     C_R   0.191687 0.436609 0.038128 -0.246100
C13   C     C_R   0.750936 0.458646 0.175502 0.537146
C14   C     C_R   0.044654 0.325009 0.751350 0.507858
C15   C     C_R   0.271248 0.444435 0.975853 -0.102348
C16   C     C_R   0.026267 0.238949 0.745176 -0.055657
C17   C     C_R   0.220838 0.576105 0.767471 0.033585
C18   C     C_R   0.991531 0.233047 0.041166 0.060401
C19   C     C_R   0.160450 0.856779 0.383813 -0.231937
C20   C     C_R   0.142919 0.803579 0.313138 -0.161191
C21   C     C_R   0.742613 0.512891 0.258318 -0.110647
C22   C     C_R   0.056021 0.799215 0.323914 0.202745
C23   C     C_R   0.985816 0.837069 0.406759 -0.221579
C24   C     C_R   0.002181 0.885951 0.478434 0.569815
C25   C     C_R   0.813174 0.518833 0.920749 0.557601
C26   C     C_R   0.090392 0.901960 0.465415 0.008742
C27   C     C_R   0.097430 0.062241 0.514890 0.376568
C28   C     C_R   0.066827 0.144224 0.587503 0.432736
C29   C     C_R   0.057018 0.153877 0.667530 -0.076777
C30   C     C_R   0.075493 0.080629 0.673941 -0.231932
C31   C     C_R   0.098301 0.997191 0.603205 -0.254055
C32   C     C_R   0.735563 0.481386 0.954403 -0.019546
C33   C     C_R   0.105228 0.987515 0.525209 -0.033378
C34   C     C_R   0.512225 0.517116 0.426318 -0.160237
C35   C     C_R   0.593373 0.485670 0.354023 -0.139546
C36   C     C_R   0.659538 0.545273 0.337511 0.183846
C37   C     C_R   0.996918 0.663097 0.246135 0.423650
C38   C     C_R   0.643615 0.636950 0.393590 -0.224740
C39   C     C_R   0.561460 0.668812 0.465460 -0.128037
C40   C     C_R   0.495395 0.608848 0.482478 0.175974
C41   C     C_R   0.417873 0.675099 0.643330 0.533471
C42   C     C_R   0.347980 0.665809 0.714859 -0.374387
C43   C     C_R   0.034685 0.742680 0.252620 -0.260541
C44   C     C_R   0.276128 0.614923 0.706076 0.042480
C45   C     C_R   0.265357 0.591167 0.631689 -0.334879
C46   C     C_R   0.332087 0.604462 0.561400 0.524038
C47   C     C_R   0.412834 0.637325 0.563979 -0.247992
C48   C     C_R   0.658666 0.479772 0.943215 -0.184448
C49   C     C_R   0.745195 0.444301 0.999754 -0.191395
C50   C     C_R   0.355141 0.429322 0.967875 0.129438
C51   C     C_R   0.469288 0.336118 0.935673 -0.150630
C52   C     C_R   0.384008 0.346339 0.948798 -0.218471
C53   C     C_R   0.408515 0.501746 0.976449 -0.157014
C54   C     C_R   0.257484 0.504697 0.952090 0.493515
C55   C     C_R   0.493778 0.491319 0.958478 0.049725
C56   C     C_R   0.525126 0.408627 0.939792 0.034490
C57   C     C_R   0.609679 0.402111 0.929919 0.398130
C58   C     C_R   0.627720 0.560626 0.958267 0.573146
C59   C     C_R   0.546148 0.564626 0.962731 -0.442962
C60   C     C_R   0.788250 0.168759 0.170351 0.054228
C61   C     C_R   0.068287 0.740651 0.171231 0.498870
C62   C     C_R   0.935938 0.859912 0.014888 -0.228775
C63   C     C_R   0.881191 0.951475 0.978631 -0.397344
C64   C     C_R   0.922964 0.872402 0.953935 0.551763
C65   C     C_R   0.969031 0.248344 0.827986 -0.236148
C66   C     C_R   0.908646 0.928943 0.100435 0.423708
C67   C     C_R   0.870436 0.010253 0.123641 -0.009502
C68   C     C_R   0.854941 0.020379 0.062671 0.077441
C69   C     C_R   0.812954 0.099424 0.086959 -0.165364
C70   C     C_R   0.804927 0.159993 0.230185 -0.172509
C71   C     C_R   0.845628 0.081279 0.207329 -0.148640
C72   C     C_R   0.827284 0.535032 0.250772 -0.246726
C73   C     C_R   0.948641 0.690013 0.946711 -0.231345
C74   C     C_R   0.973585 0.773341 0.990911 -0.078994
C75   C     C_3   0.140438 0.851002 0.974436 0.268584
C76   C     C_R   0.150239 0.522538 0.766150 -0.087021
C77   C     C_3   0.222687 0.896371 0.982943 -0.322605
C78   C     C_3   0.199325 0.976300 0.071598 -0.783423
C79   C     C_3   0.189749 0.316040 0.652557 0.320524
C80   C     C_3   0.250685 0.331967 0.572972 -0.893982
C81   C     C_3   0.715473 0.316652 0.107226 0.204093
C82   C     C_3   0.639876 0.258741 0.095380 -0.889381
C83   C     C_3   0.912160 0.889351 0.611819 0.271215
C84   C     C_3   0.842191 0.821046 0.602088 -0.966216
C85   C     C_3   0.185794 0.068222 0.386409 0.300737
C86   C     C_3   0.190301 0.051749 0.300638 -0.886117
C87   C     C_R   0.028547 0.313611 0.073954 -0.125506
C88   C     C_3   0.957664 0.228293 0.611052 0.221269
C89   C     C_3   0.924823 0.166959 0.543233 -0.248711
C90   C     C_3   0.832570 0.197592 0.569478 -1.069919
C91   C     C_3   0.542290 0.662325 0.652933 0.274884
C92   C     C_3   0.634711 0.696724 0.634917 -0.882275
C93   C     C_3   0.899683 0.493150 0.779073 0.152719
C94   C     C_3   0.933650 0.538577 0.718698 -0.256207
C95   C     C_3   0.996874 0.476692 0.626116 -1.014780
C96   C     C_3   0.319485 0.638264 0.465325 0.217422
C97   C     C_3   0.224267 0.676353 0.512311 -0.321190
C98   C     C_R   0.951896 0.246097 0.999014 -0.153672
C99   C     C_3   0.216093 0.743751 0.484008 -1.022927
C100  C     C_3   0.686168 0.266698 0.836872 0.175919
C101  C     C_3   0.701951 0.178723 0.834054 -0.290204
C102  C     C_3   0.746378 0.105392 0.741587 -0.974457
C103  C     C_3   0.639437 0.695354 0.061118 0.282378
C104  C     C_3   0.702513 0.769495 0.077731 -0.894511
C105  C     C_3   0.039825 0.554822 0.262611 0.280000
C106  C     C_3   0.038091 0.534083 0.331575 -0.914154
C107  C     C_3   0.032269 0.822143 0.813784 0.260099
C108  C     C_3   0.026255 0.827964 0.740021 -0.334246
H1    H     H_    0.939697 0.195319 0.847017 0.133931
H2    H     H_    0.068653 0.087191 0.734768 0.151127
H3    H     H_    0.078997 0.765666 0.785911 0.098163
H4    H     H_    0.979077 0.883808 0.767381 0.184559
H5    H     H_    0.092214 0.842591 0.697377 0.154934
H6    H     H_    0.042050 0.684284 0.659190 0.240388
H7    H     H_    0.997441 0.746049 0.630294 0.232438
H8    H     H_    0.928316 0.727952 0.725400 0.284340
H9    H     H_    0.841024 0.808461 0.160702 0.094532
H10   H     H_    0.782178 0.916995 0.230074 0.080262
H11   H     H_    0.850409 0.951004 0.327935 0.255200
H12   H     H_    0.790140 0.849814 0.315806 0.199662
H13   H     H_    0.103898 0.939432 0.611098 0.142813
H14   H     H_    0.909262 0.843083 0.259094 0.259731
H15   H     H_    0.228944 0.716661 0.021417 0.124697
H16   H     H_    0.220829 0.692359 0.105882 0.051304
H17   H     H_    0.292726 0.862266 0.080148 0.213979
H18   H     H_    0.274033 0.847791 0.171830 0.202359
H19   H     H_    0.380777 0.720633 0.081395 0.259917
H20   H     H_    0.431400 0.812172 0.055284 0.276397
H21   H     H_    0.394416 0.720422 0.982601 0.285160
H22   H     H_    0.317716 0.428624 0.785007 0.098738
H23   H     H_    0.396334 0.413796 0.815703 0.107522
H24   H     H_    0.463215 0.469302 0.439804 0.147893
H25   H     H_    0.410533 0.548471 0.746413 0.194398
H26   H     H_    0.487897 0.530299 0.776328 0.203052
H27   H     H_    0.514310 0.370642 0.662023 0.272472
H28   H     H_    0.539021 0.449477 0.616935 0.265156
H29   H     H_    0.437553 0.391504 0.631980 0.270341
H30   H     H_    0.604963 0.414614 0.311900 0.144814
H31   H     H_    0.694076 0.683836 0.380739 0.131296
H32   H     H_    0.549878 0.739687 0.508293 0.153569
H33   H     H_    0.354550 0.691738 0.774148 0.133343
H34   H     H_    0.208358 0.556339 0.624598 0.155934
H35   H     H_    0.491238 0.271993 0.921910 0.154207
H36   H     H_    0.522039 0.626788 0.974405 0.176778
H37   H     H_    0.117260 0.512067 0.727341 0.137570
H38   H     H_    0.341513 0.290274 0.943127 0.131466
H39   H     H_    0.383656 0.567056 0.996146 0.150640
H40   H     H_    0.799301 0.107779 0.041618 0.099901
H41   H     H_    0.785757 0.214259 0.294592 0.122207
H42   H     H_    0.869823 0.958977 0.931553 0.160652
H43   H     H_    0.857208 0.076180 0.255361 0.161072
H44   H     H_    0.700123 0.401645 0.026061 0.231012
H45   H     H_    0.843481 0.574111 0.304037 0.198744
H46   H     H_    0.906662 0.677279 0.916115 0.241891
H47   H     H_    0.098708 0.901572 0.983756 0.085325
H48   H     H_    0.055273 0.330201 0.119166 0.088102
H49   H     H_    0.162689 0.796571 0.906901 0.007453
H50   H     H_    0.266903 0.846701 0.971478 0.184976
H51   H     H_    0.259093 0.920179 0.931740 0.151944
H52   H     H_    0.157759 0.027243 0.081184 0.238215
H53   H     H_    0.260831 0.007169 0.075333 0.218783
H54   H     H_    0.162921 0.954998 0.124510 0.308852
H55   H     H_    0.194625 0.243350 0.632001 0.074561
H56   H     H_    0.214712 0.351239 0.702311 0.073730
H57   H     H_    0.252180 0.404303 0.590137 0.257720
H58   H     H_    0.318825 0.306254 0.546589 0.198207
H59   H     H_    0.908427 0.200437 0.974643 0.081871
H60   H     H_    0.227220 0.296721 0.522200 0.268592
H61   H     H_    0.738760 0.295772 0.141324 0.099311
H62   H     H_    0.770062 0.304324 0.041791 0.102332
H63   H     H_    0.663124 0.187255 0.056909 0.203436
H64   H     H_    0.584776 0.268384 0.159675 0.258644
H65   H     H_    0.615517 0.276823 0.060493 0.278341
H66   H     H_    0.885054 0.941062 0.680260 0.130687
H67   H     H_    0.971008 0.856796 0.600000 0.066750
H68   H     H_    0.868745 0.765755 0.535384 0.266295
H69   H     H_    0.822671 0.792669 0.649042 0.232827
H70   H     H_    0.263658 0.640589 0.870036 0.123236
H71   H     H_    0.782912 0.853562 0.615102 0.272695
H72   H     H_    0.236634 0.023066 0.372314 0.068947
H73   H     H_    0.201045 0.139056 0.418638 0.110244
H74   H     H_    0.143417 0.099049 0.312206 0.259515
H75   H     H_    0.258256 0.061555 0.257215 0.202922
H76   H     H_    0.172475 0.982306 0.268432 0.274868
H77   H     H_    0.946293 0.298456 0.627278 0.134591
H78   H     H_    0.918217 0.221599 0.672657 0.054160
H79   H     H_    0.970894 0.167193 0.479552 0.236641
H80   H     H_    0.922909 0.097539 0.535951 0.230927
H81   H     H_    0.179559 0.399909 0.074919 0.134305
H82   H     H_    0.785325 0.200335 0.633971 0.271872
H83   H     H_    0.809362 0.149902 0.520874 0.283709
H84   H     H_    0.833917 0.264926 0.572239 0.270794
H85   H     H_    0.548984 0.591701 0.603334 0.092820
H86   H     H_    0.510916 0.664631 0.718711 0.094075
H87   H     H_    0.630957 0.766683 0.683891 0.259022
H88   H     H_    0.674089 0.654374 0.638243 0.213797
H89   H     H_    0.668313 0.694533 0.569148 0.261194
H90   H     H_    0.869739 0.429385 0.751521 0.088431
H91   H     H_    0.957130 0.479637 0.784040 0.108720
H92   H     H_    0.228267 0.868347 0.373822 0.138002
H93   H     H_    0.877018 0.560444 0.717777 0.222700
H94   H     H_    0.968747 0.598658 0.744193 0.210176
H95   H     H_    0.051207 0.448837 0.625367 0.297990
H96   H     H_    0.026129 0.514709 0.586571 0.267465
H97   H     H_    0.960616 0.421187 0.596159 0.270047
H98   H     H_    0.341680 0.608717 0.394205 0.137244
H99   H     H_    0.364754 0.692909 0.479930 0.075595
H100  H     H_    0.179878 0.620945 0.498155 0.217840
H101  H     H_    0.202829 0.709944 0.583433 0.191367
H102  H     H_    0.257992 0.801123 0.499827 0.264554
H103  H     H_    0.196807 0.767097 0.250629 0.119422
H104  H     H_    0.146332 0.769266 0.518575 0.270011
H105  H     H_    0.236481 0.711579 0.413085 0.271888
H106  H     H_    0.751019 0.294535 0.808280 0.095140
H107  H     H_    0.649666 0.253293 0.798189 0.093692
H108  H     H_    0.743798 0.190248 0.867153 0.198509
H109  H     H_    0.637405 0.155427 0.869784 0.208472
H110  H     H_    0.707443 0.094897 0.706071 0.268580
H111  H     H_    0.750630 0.041826 0.743621 0.271534
H112  H     H_    0.814275 0.122785 0.706366 0.275135
H113  H     H_    0.629250 0.660152 0.100961 0.076858
H114  H     H_    0.918153 0.829771 0.415576 0.148992
H115  H     H_    0.575288 0.726344 0.082333 0.090833
H116  H     H_    0.715889 0.805230 0.037842 0.271508
H117  H     H_    0.765654 0.740620 0.060848 0.247257
H118  H     H_    0.673095 0.817955 0.147395 0.193319
H119  H     H_    0.109098 0.569315 0.225527 0.090698
H120  H     H_    0.018951 0.495064 0.218914 0.109786
H121  H     H_    0.970243 0.518123 0.369389 0.259143
H122  H     H_    0.083915 0.475771 0.300226 0.212449
H123  H     H_    0.059102 0.592641 0.376340 0.263020
H124  H     H_    0.061993 0.884316 0.845756 0.001486
N1    N     N_R   0.034930 0.670790 0.995440 -0.108989
N2    N     N_R   0.867000 0.509260 0.948460 -0.116560
N3    N     N_R   0.003780 0.616410 0.165900 -0.130364
N4    N     N_R   0.825670 0.461520 0.995440 -0.083410
N5    N     N_R   0.045120 0.664150 0.118920 -0.137565
N6    N     N_R   0.884940 0.497570 0.165910 -0.061083
N7    N     N_R   0.985840 0.628110 0.948460 -0.082719
N8    N     N_R   0.174330 0.538480 0.004560 -0.103803
N9    N     N_R   0.954880 0.335850 0.881080 -0.065996
N10   N     N_R   0.115060 0.502430 0.834090 -0.057434
N11   N     N_R   0.014160 0.371890 0.051540 -0.036011
N12   N     N_R   0.965070 0.329210 0.004560 -0.038091
N13   N     N_R   0.164150 0.545120 0.881070 -0.055051
N14   N     N_R   0.133000 0.490740 0.051540 -0.082873
N15   N     N_R   0.996220 0.383590 0.834100 -0.114915
N16   N     N_R   0.835850 0.454880 0.118930 -0.101886
Ni1   Ni    Ni4+2 0.103690 0.603690 0.000000 0.208377
Ni2   Ni    Ni4+2 0.896310 0.396310 0.000000 0.181308
Ni3   Ni    Ni4+2 0.991110 0.505800 0.892250 0.190891
Ni4   Ni    Ni4+2 0.008890 0.494200 0.107750 0.179893
O1    O     O_3   0.093856 0.816723 0.036823 -0.591956
O2    O     O_3   0.636655 0.326207 0.924534 -0.672450
O3    O     O_3   0.676125 0.636655 0.971568 -0.582699
O4    O     O_3   0.980726 0.628355 0.303480 -0.641155
O5    O     O_3   0.948192 0.805759 0.870285 -0.633804
O6    O     O_3   0.920056 0.917506 0.161316 -0.595776
O7    O     O_3   0.133927 0.794776 0.143525 -0.618134
O8    O     O_3   0.321466 0.536167 0.894675 -0.702314
O9    O     O_3   0.102704 0.348365 0.685371 -0.632863
O10   O     O_3   0.685312 0.407475 0.156162 -0.650398
O11   O     O_3   0.932121 0.932177 0.558148 -0.650480
O12   O     O_3   0.100273 0.050824 0.438433 -0.622469
O13   O     O_3   0.049690 0.214321 0.577625 -0.624865
O14   O     O_3   0.492855 0.717475 0.649386 -0.634003
O15   O     O_3   0.835133 0.550774 0.860288 -0.640149
O16   O     O_3   0.323610 0.568905 0.485197 -0.658447

loop_
_geom_bond_atom_site_label_1
_geom_bond_atom_site_label_2
_ccdc_geom_bond_type
N4    Ni2   S    
C96   O16   S    
C40   C47   S    
C86   H76   S    
C55   C56   A    
C42   C44   A    
C100  H107  S    
C95   H97   S    
C101  C102  S    
C83   H67   S    
C54   O8    S    
C73   C74   A    
C83   O11   S    
C35   C36   A    
C10   H25   S    
C6    H16   S    
C79   H56   S    
C72   H45   S    
C92   H87   S    
N5    Ni1   S    
C81   C82   S    
N1    Ni1   S    
C48   C57   A    
C21   C36   S    
C90   H84   S    
C77   C78   S    
C106  H123  S    
C4    O6    S    
C12   H81   S    
C100  H106  S    
C19   H92   S    
C93   C94   S    
C97   H101  S    
C30   H2    S    
C101  H109  S    
C34   C40   A    
N10   Ni3   S    
N3    Ni4   S    
C28   C29   A    
C93   H91   S    
C2    N13   A    
C24   C26   A    
C51   C56   A    
C49   N4    A    
C55   C59   A    
C3    H8    S    
C35   H30   S    
C85   C86   S    
C38   C39   A    
C91   H85   S    
C88   O13   S    
C105  H120  S    
C101  H108  S    
C95   H95   S    
N11   N12   A    
C53   H39   S    
C103  O3    S    
C56   C57   A    
C34   C35   A    
C41   C42   A    
C15   C50   S    
C57   O2    S    
C19   C26   A    
C62   C64   A    
C8    H19   S    
C103  H115  S    
C46   C47   A    
C87   N11   A    
C8    H20   S    
C71   H43   S    
C83   C84   S    
N16   Ni2   S    
C68   C69   A    
C73   H46   S    
C17   C76   A    
C50   C52   A    
C107  C108  S    
C82   H65   S    
C75   O1    S    
C70   C71   A    
C94   H94   S    
C81   H61   S    
C91   O14   S    
C9    C10   S    
C98   N12   A    
C98   H59   S    
C102  H112  S    
C77   H50   S    
C90   H83   S    
C107  H3    S    
C75   H49   S    
C25   C32   A    
C88   H78   S    
C66   C67   A    
C34   H24   S    
C81   O10   S    
C97   H100  S    
C1    C74   A    
C107  H124  S    
C2    C17   A    
N8    N14   A    
N3    N5    A    
C4    H10   S    
C41   O14   S    
C89   H79   S    
C70   H41   S    
N2    N4    A    
C6    H15   S    
C100  O2    S    
C80   H58   S    
C97   C99   S    
C1    O1    S    
C37   N3    A    
C99   H104  S    
C53   C55   A    
C82   H64   S    
N10   N13   A    
C62   C66   A    
C5    H12   S    
N7    Ni3   S    
C67   C68   A    
C50   C53   A    
C15   C54   A    
C104  H117  S    
C31   H13   S    
C25   N2    A    
N9    Ni2   S    
C1    N1    A    
C91   C92   S    
C91   H86   S    
C96   H99   S    
N14   Ni4   S    
C99   H105  S    
C92   H88   S    
C95   H96   S    
C45   C46   A    
C65   N9    A    
C5    H14   S    
C20   H103  S    
C27   C33   A    
C28   O13   S    
C108  H4    S    
C106  H122  S    
C6    O7    S    
C108  H5    S    
C37   C43   A    
C84   H71   S    
C76   N10   A    
C63   H42   S    
C29   C30   A    
C14   O9    S    
C11   H27   S    
C11   H29   S    
C26   C33   S    
C96   H98   S    
C22   C43   S    
C12   C15   A    
C60   C70   A    
C30   C31   A    
C23   C24   A    
C37   O4    S    
C96   C97   S    
C42   H33   S    
C31   C33   A    
C41   C47   A    
C13   C21   A    
C58   O3    S    
C94   H93   S    
C81   H62   S    
C7    H17   S    
C48   C58   A    
C75   C77   S    
C65   H1    S    
N12   Ni2   S    
C102  H111  S    
C77   H51   S    
C78   H52   S    
C88   H77   S    
C20   C22   A    
C76   H37   S    
C78   H54   S    
N15   Ni3   S    
C86   H75   S    
C79   O9    S    
C89   H80   S    
C14   C16   A    
C4    H9    S    
C9    O8    S    
C61   O7    S    
C85   O12   S    
N6    N16   A    
C92   H89   S    
C80   H57   S    
C103  C104  S    
C64   O5    S    
C43   C61   A    
C14   N15   A    
C90   H82   S    
C38   H31   S    
C73   N7    A    
N13   Ni1   S    
C39   H32   S    
C52   H38   S    
N11   Ni4   S    
C49   H44   S    
N6    Ni4   S    
N9    N15   A    
C23   H114  S    
C22   C23   A    
C44   C45   A    
C10   H26   S    
C79   H55   S    
C4    C5    S    
C66   O6    S    
C3    H6    S    
N2    Ni3   S    
C59   H36   S    
C75   H47   S    
C104  H118  S    
C6    C7    S    
C93   O15   S    
C85   H73   S    
C51   H35   S    
C3    C108  S    
C18   C98   A    
C105  C106  S    
C63   C68   A    
C18   C87   A    
C106  H121  S    
C107  O5    S    
C61   N5    A    
C19   C20   A    
C36   C38   A    
C93   H90   S    
C58   C59   A    
C17   C44   S    
C54   N8    A    
C51   C52   A    
C5    H11   S    
C3    H7    S    
C11   H28   S    
C103  H113  S    
C32   C48   S    
C60   C69   A    
C9    H23   S    
C85   H72   S    
C12   N14   A    
C27   O12   S    
C24   O11   S    
C63   C64   A    
C100  C101  S    
C104  H116  S    
C45   H34   S    
C82   H63   S    
C67   C71   A    
C105  H119  S    
C7    H18   S    
N1    N7    A    
C94   C95   S    
C13   O10   S    
C32   C49   A    
C8    H21   S    
C7    C8    S    
C10   C11   S    
C102  H110  S    
C79   C80   S    
C39   C40   A    
C9    H22   S    
N8    Ni1   S    
C13   N16   A    
C88   C89   S    
C16   C29   S    
C78   H53   S    
C46   O16   S    
C83   H66   S    
C21   C72   A    
C27   C28   A    
C86   H74   S    
C69   H40   S    
C87   H48   S    
C62   C74   S    
C16   C65   A    
C2    H70   S    
C105  O4    S    
C89   C90   S    
C84   H68   S    
C80   H60   S    
C72   N6    A    
C84   H69   S    
C25   O15   S    
C99   H102  S    
