data_mof_unit_23914.cif
_audit_creation_date              2013-03-05T15:50:04-0500
_audit_creation_method            fapswitch 2.2
_symmetry_space_group_name_H-M    P1
_symmetry_Int_Tables_number       1
_space_group_crystal_system       triclinic
_cell_length_a                    18.328873
_cell_length_b                    25.88856
_cell_length_c                    18.276009
_cell_angle_alpha                 90.143588
_cell_angle_beta                  89.844743
_cell_angle_gamma                 89.950775
_cell_volume                      8672.052503

loop_
_atom_site_label
_atom_site_type_symbol
_atom_site_description
_atom_site_fract_x
_atom_site_fract_y
_atom_site_fract_z
_atom_type_partial_charge
Zn1   Zn    Zn3+2 0.249990 0.293780 0.913250 0.972815
Zn2   Zn    Zn3+2 0.249990 0.706220 0.086750 0.959500
Zn3   Zn    Zn3+2 0.249990 0.706220 0.913250 0.971421
Zn4   Zn    Zn3+2 0.249990 0.293780 0.086750 0.967471
Zn5   Zn    Zn3+2 0.749990 0.793780 0.413250 0.983950
Zn6   Zn    Zn3+2 0.749990 0.206220 0.586750 0.965443
Zn7   Zn    Zn3+2 0.749990 0.206220 0.413250 0.963579
Zn8   Zn    Zn3+2 0.749990 0.793780 0.586750 0.964780
Zn9   Zn    Zn3+2 0.336760 0.206240 0.000000 0.946001
Zn10  Zn    Zn3+2 0.336760 0.793760 0.000000 0.943318
Zn11  Zn    Zn3+2 0.836760 0.706240 0.500000 0.951329
Zn12  Zn    Zn3+2 0.836760 0.293760 0.500000 0.947667
Zn13  Zn    Zn3+2 0.163250 0.206230 0.000000 0.965712
Zn14  Zn    Zn3+2 0.163250 0.793770 0.000000 0.979690
Zn15  Zn    Zn3+2 0.663250 0.706230 0.500000 0.965512
Zn16  Zn    Zn3+2 0.663250 0.293770 0.500000 0.980491
O1    O     O_3   0.249990 0.250010 0.000000 -0.488740
O2    O     O_3   0.249990 0.749990 0.000000 -0.488180
O3    O     O_3   0.749990 0.750010 0.500000 -0.490492
O4    O     O_3   0.749990 0.249990 0.500000 -0.489490
O5    O     O_R   0.335430 0.280650 0.146160 -0.622275
O6    O     O_R   0.335430 0.719350 0.853840 -0.630921
O7    O     O_R   0.335430 0.719350 0.146160 -0.643987
O8    O     O_R   0.335430 0.280650 0.853840 -0.625900
O9    O     O_R   0.835430 0.780650 0.646160 -0.637442
O10   O     O_R   0.835430 0.219350 0.353840 -0.635107
O11   O     O_R   0.835430 0.219350 0.646160 -0.639572
O12   O     O_R   0.835430 0.780650 0.353840 -0.621327
O13   O     O_R   0.164550 0.280640 0.853840 -0.627209
O14   O     O_R   0.164550 0.719360 0.146160 -0.642477
O15   O     O_R   0.164550 0.719360 0.853840 -0.640076
O16   O     O_R   0.164550 0.280640 0.146160 -0.635918
O17   O     O_R   0.664550 0.780640 0.353840 -0.628354
O18   O     O_R   0.664550 0.219360 0.646160 -0.642014
O19   O     O_R   0.664550 0.219360 0.353840 -0.644071
O20   O     O_R   0.664550 0.780640 0.646160 -0.631733
O21   O     O_R   0.396160 0.219380 0.914560 -0.649081
O22   O     O_R   0.396160 0.780620 0.085440 -0.632776
O23   O     O_R   0.396160 0.780620 0.914560 -0.658418
O24   O     O_R   0.396160 0.219380 0.085440 -0.647631
O25   O     O_R   0.896160 0.719380 0.414560 -0.646928
O26   O     O_R   0.896160 0.280620 0.585440 -0.631314
O27   O     O_R   0.896160 0.280620 0.414560 -0.652778
O28   O     O_R   0.896160 0.719380 0.585440 -0.636651
O29   O     O_R   0.103840 0.219370 0.085450 -0.640489
O30   O     O_R   0.103840 0.780630 0.914550 -0.625973
O31   O     O_R   0.103840 0.780630 0.085450 -0.624861
O32   O     O_R   0.103840 0.219370 0.914550 -0.635452
O33   O     O_R   0.603840 0.719370 0.585450 -0.640020
O34   O     O_R   0.603840 0.280630 0.414550 -0.621016
O35   O     O_R   0.603840 0.280630 0.585450 -0.625635
O36   O     O_R   0.603840 0.719370 0.414550 -0.641183
O37   O     O_R   0.310730 0.133160 0.000000 -0.655583
O38   O     O_R   0.310730 0.866840 0.000000 -0.647397
O39   O     O_R   0.810730 0.633160 0.500000 -0.650055
O40   O     O_R   0.810730 0.366840 0.500000 -0.643236
O41   O     O_R   0.249970 0.366860 0.060720 -0.646076
O42   O     O_R   0.249970 0.633140 0.939280 -0.641536
O43   O     O_R   0.249970 0.633140 0.060720 -0.644143
O44   O     O_R   0.249970 0.366860 0.939280 -0.645702
O45   O     O_R   0.749970 0.866860 0.560720 -0.647484
O46   O     O_R   0.749970 0.133140 0.439280 -0.642661
O47   O     O_R   0.749970 0.133140 0.560720 -0.641878
O48   O     O_R   0.749970 0.866860 0.439280 -0.638972
O49   O     O_R   0.189290 0.133150 0.000000 -0.637746
O50   O     O_R   0.189290 0.866850 0.000000 -0.645827
O51   O     O_R   0.689290 0.633150 0.500000 -0.638286
O52   O     O_R   0.689290 0.366850 0.500000 -0.645038
C1    C     C_R   0.390114 0.250387 0.139466 0.793242
C2    C     C_R   0.389653 0.750004 0.860073 0.780634
C3    C     C_R   0.389529 0.750094 0.139988 0.783098
C4    C     C_R   0.389851 0.250129 0.860323 0.787127
C5    C     C_R   0.889907 0.750259 0.639701 0.783326
C6    C     C_R   0.889781 0.249879 0.360235 0.771023
C7    C     C_R   0.888888 0.250618 0.640533 0.786369
C8    C     C_R   0.889972 0.750198 0.360464 0.785026
C9    C     C_R   0.110546 0.249766 0.859686 0.787515
C10   C     C_R   0.110160 0.749961 0.139726 0.788050
C11   C     C_R   0.109891 0.749562 0.860352 0.790924
C12   C     C_R   0.110275 0.250026 0.139928 0.781811
C13   C     C_R   0.610499 0.749828 0.359740 0.787960
C14   C     C_R   0.610322 0.249894 0.639886 0.790279
C15   C     C_R   0.609949 0.249719 0.360296 0.788617
C16   C     C_R   0.610267 0.750050 0.639832 0.788824
C17   C     C_R   0.250376 0.109268 0.998879 0.793539
C18   C     C_R   0.249972 0.890612 0.999988 0.788581
C19   C     C_R   0.750303 0.609327 0.498830 0.788267
C20   C     C_R   0.749835 0.390652 0.500649 0.785601
C21   C     C_R   0.249942 0.391410 0.999985 0.740648
C22   C     C_R   0.250036 0.608592 0.999883 0.766008
C23   C     C_R   0.750096 0.891394 0.500166 0.756600
C24   C     C_R   0.750164 0.108577 0.500042 0.769747
C25   C     C_3   0.181773 0.470261 0.040498 -0.385914
C26   C     C_3   0.248990 0.529532 0.920142 -0.362129
C27   C     C_3   0.182168 0.530024 0.040952 -0.359714
C28   C     C_3   0.248773 0.470175 0.920173 -0.366690
C29   C     C_3   0.748314 0.970424 0.580125 -0.372986
C30   C     C_3   0.682653 0.029754 0.459564 -0.343753
C31   C     C_3   0.748656 0.029811 0.580039 -0.367808
C32   C     C_3   0.682584 0.970037 0.459423 -0.356749
H1    H     H_    0.180823 0.455925 0.097855 0.182032
H2    H     H_    0.297693 0.543482 0.889497 0.174517
H3    H     H_    0.182225 0.544083 0.098559 0.177046
H4    H     H_    0.297248 0.455859 0.889344 0.179245
H5    H     H_    0.796441 0.956182 0.611201 0.178995
H6    H     H_    0.681879 0.044066 0.402199 0.187854
H7    H     H_    0.797112 0.043869 0.610806 0.178804
H8    H     H_    0.682618 0.955813 0.401908 0.191642
H9    H     H_    0.131277 0.456118 0.013356 0.185681
H10   H     H_    0.199855 0.543793 0.890863 0.226650
H11   H     H_    0.131466 0.544725 0.015066 0.233419
H12   H     H_    0.199249 0.456083 0.891187 0.200841
H13   H     H_    0.698460 0.956486 0.608869 0.198099
H14   H     H_    0.632465 0.043971 0.486997 0.253283
H15   H     H_    0.699150 0.044204 0.609093 0.211271
H16   H     H_    0.631752 0.955686 0.485904 0.215370
H17   H     H_    0.177810 0.905286 0.119396 0.139605
H18   H     H_    0.180595 0.095703 0.119738 0.142354
H19   H     H_    0.678382 0.405867 0.620533 0.136142
H20   H     H_    0.685927 0.596344 0.622056 0.133555
H21   H     H_    0.321565 0.456060 0.095609 0.186162
H22   H     H_    0.369179 0.544117 0.009146 0.155288
H23   H     H_    0.322085 0.544346 0.095293 0.186199
H24   H     H_    0.369026 0.455499 0.009664 0.150158
H25   H     H_    0.869417 0.955600 0.491444 0.153466
H26   H     H_    0.822656 0.043723 0.404714 0.186643
H27   H     H_    0.869502 0.044225 0.490764 0.159250
H28   H     H_    0.823048 0.955430 0.405152 0.187960
C33   C     C_3   0.319353 0.470110 0.038153 -0.394793
C34   C     C_3   0.319543 0.529916 0.037943 -0.399348
C35   C     C_3   0.820055 0.969902 0.462476 -0.393938
C36   C     C_3   0.820023 0.029711 0.462180 -0.393591
C37   C     C_3   0.249968 0.449162 0.999760 0.176754
C38   C     C_3   0.250126 0.550846 0.999679 0.163355
C39   C     C_3   0.750277 0.949114 0.500568 0.155322
C40   C     C_3   0.750429 0.050797 0.500396 0.144213
H29   H     H_    0.913364 0.365981 0.935064 0.149218
H30   H     H_    0.164786 0.884299 0.319624 0.149418
H31   H     H_    0.114778 0.914992 0.731784 0.149806
H32   H     H_    0.878357 0.305054 0.032948 0.140157
H33   H     H_    0.377138 0.800635 0.469732 0.157723
H34   H     H_    0.652190 0.394013 0.808131 0.129351
H35   H     H_    0.627041 0.409694 0.219597 0.146692
H36   H     H_    0.676481 0.627226 0.831089 0.150694
C41   C     C_R   0.130239 0.195131 0.722950 -0.240188
C42   C     C_R   0.990660 0.678499 0.132879 -0.255134
C43   C     C_R   0.022472 0.658660 0.833070 -0.214246
C44   C     C_R   0.145413 0.223401 0.288637 -0.246873
C45   C     C_R   0.646671 0.729936 0.207744 -0.246063
C46   C     C_R   0.510711 0.164720 0.652921 -0.259142
C47   C     C_R   0.511057 0.163836 0.344610 -0.224794
C48   C     C_R   0.485836 0.816727 0.627746 -0.287073
C49   C     C_R   0.138560 0.165904 0.658703 0.382411
C50   C     C_R   0.933609 0.642434 0.129479 0.368223
C51   C     C_R   0.979877 0.614408 0.820992 0.397188
C52   C     C_R   0.163735 0.211144 0.360998 0.358872
C53   C     C_R   0.664638 0.719509 0.134569 0.367933
C54   C     C_R   0.461792 0.123309 0.657996 0.353729
C55   C     C_R   0.463904 0.121391 0.337233 0.361463
C56   C     C_R   0.425888 0.850164 0.621339 0.338060
C57   C     C_R   0.608901 0.714528 0.083296 -0.215102
C58   C     C_R   0.404123 0.126308 0.707755 -0.009248
C59   C     C_R   0.412201 0.121565 0.281272 -0.162629
C60   C     C_R   0.371406 0.848917 0.675084 -0.146692
C61   C     C_R   0.079891 0.160870 0.610829 -0.232665
C62   C     C_R   0.881398 0.641887 0.185390 -0.049932
C63   C     C_R   0.923281 0.616603 0.770123 -0.220998
C64   C     C_R   0.108725 0.210170 0.413883 -0.211227
C65   C     C_R   0.536760 0.722971 0.103691 -0.219206
C66   C     C_R   0.398175 0.168096 0.755445 -0.161757
C67   C     C_R   0.406610 0.163518 0.234337 -0.146598
C68   C     C_R   0.377089 0.815597 0.734533 -0.227595
C69   C     C_R   0.015737 0.188079 0.623473 -0.227735
C70   C     C_R   0.885736 0.676693 0.243405 -0.149964
C71   C     C_R   0.911099 0.661316 0.729989 -0.209347
C72   C     C_R   0.037048 0.221853 0.395353 -0.219063
C73   C     C_R   0.518204 0.737615 0.176173 0.083991
C74   C     C_R   0.449391 0.208843 0.753709 0.047994
C75   C     C_R   0.453252 0.206765 0.241474 0.096427
C76   C     C_R   0.438103 0.782634 0.742487 0.067259
C77   C     C_R   0.007810 0.219982 0.685944 0.090348
C78   C     C_R   0.942407 0.713643 0.246939 0.075105
C79   C     C_R   0.955982 0.705360 0.738811 0.085125
C80   C     C_R   0.018259 0.236475 0.323183 0.080360
C81   C     C_R   0.064394 0.221723 0.738104 0.021426
C82   C     C_R   0.996054 0.714148 0.191523 0.009442
C83   C     C_R   0.011506 0.704497 0.792097 0.010522
C84   C     C_R   0.073033 0.236959 0.268943 0.010165
C85   C     C_R   0.573491 0.739481 0.229650 0.023234
C86   C     C_R   0.505157 0.207922 0.700443 0.007430
C87   C     C_R   0.506839 0.206701 0.296724 0.023921
C88   C     C_R   0.492941 0.782977 0.688248 0.018339
C89   C     C_R   0.445604 0.749803 0.196043 -0.135011
C90   C     C_R   0.446097 0.250120 0.804273 -0.121471
C91   C     C_R   0.446234 0.250261 0.195490 -0.126536
C92   C     C_R   0.445677 0.749902 0.803795 -0.136433
C93   C     C_R   0.944668 0.250160 0.696811 -0.127973
C94   C     C_R   0.946215 0.750065 0.304447 -0.117558
C95   C     C_R   0.945670 0.750216 0.696108 -0.132410
C96   C     C_R   0.945896 0.249778 0.304141 -0.147801
C97   C     C_R   0.426940 0.763003 0.268894 0.069178
C98   C     C_R   0.498791 0.289899 0.803691 0.072906
C99   C     C_R   0.493220 0.293244 0.202502 0.072010
C100  C     C_R   0.507080 0.717387 0.811714 0.077111
C101  C     C_R   0.935592 0.280554 0.760470 0.066395
C102  C     C_R   0.003750 0.786235 0.308526 0.070939
C103  C     C_R   0.989673 0.794500 0.706087 0.074130
C104  C     C_R   0.927350 0.263908 0.231875 0.060570
C105  C     C_R   0.990660 0.280460 0.814477 0.076430
C106  C     C_R   0.058375 0.786044 0.253926 0.079583
C107  C     C_R   0.044282 0.794161 0.760434 0.074797
C108  C     C_R   0.981902 0.263838 0.177292 0.068414
C109  C     C_R   0.481615 0.762903 0.323185 0.059520
C110  C     C_R   0.553927 0.289486 0.749605 0.077225
C111  C     C_R   0.547874 0.292847 0.256838 0.073747
C112  C     C_R   0.561633 0.717316 0.757067 0.071348
C113  C     C_R   0.054346 0.250509 0.803357 -0.121308
C114  C     C_R   0.053964 0.750069 0.195848 -0.112167
C115  C     C_R   0.054239 0.749411 0.803646 -0.125589
C116  C     C_R   0.054225 0.250145 0.196208 -0.135584
C117  C     C_R   0.554382 0.750495 0.303409 -0.127993
C118  C     C_R   0.554966 0.249512 0.696812 -0.110227
C119  C     C_R   0.553995 0.249737 0.303865 -0.123461
C120  C     C_R   0.554120 0.750164 0.695930 -0.119369
C121  C     C_R   0.354889 0.777672 0.288597 -0.150265
C122  C     C_R   0.498952 0.329453 0.857390 -0.150085
C123  C     C_R   0.488007 0.336337 0.155130 -0.152398
C124  C     C_R   0.515264 0.684689 0.873193 -0.165184
C125  C     C_R   0.872604 0.311369 0.771354 -0.149387
C126  C     C_R   0.008397 0.822481 0.366505 -0.151291
C127  C     C_R   0.981572 0.838935 0.661625 -0.156382
C128  C     C_R   0.855705 0.279845 0.213236 -0.152992
C129  C     C_R   0.337301 0.790660 0.360487 -0.132634
C130  C     C_R   0.553695 0.366755 0.858445 -0.134747
C131  C     C_R   0.535710 0.377954 0.161725 -0.140683
C132  C     C_R   0.575957 0.652585 0.879883 -0.141357
C133  C     C_R   0.864859 0.341722 0.833975 -0.112763
C134  C     C_R   0.066032 0.857485 0.370164 -0.126828
C135  C     C_R   0.026046 0.881995 0.671383 -0.136238
C136  C     C_R   0.838453 0.294189 0.142011 -0.113374
C137  C     C_R   0.919232 0.341945 0.886863 -0.123197
C138  C     C_R   0.119994 0.857154 0.316558 -0.154682
C139  C     C_R   0.079829 0.881664 0.724757 -0.120056
C140  C     C_R   0.891943 0.293716 0.088146 -0.133969
C141  C     C_R   0.390882 0.790226 0.413989 -0.068804
C142  C     C_R   0.608839 0.365696 0.806128 -0.155309
C143  C     C_R   0.589716 0.377473 0.214928 -0.127584
C144  C     C_R   0.629479 0.652287 0.825842 -0.117505
C145  C     C_R   0.981354 0.311458 0.877786 -0.154155
C146  C     C_R   0.116476 0.821936 0.258884 -0.169150
C147  C     C_R   0.089366 0.838287 0.768672 -0.149762
C148  C     C_R   0.963083 0.279293 0.105337 -0.157854
C149  C     C_R   0.462418 0.777161 0.395777 -0.115524
C150  C     C_R   0.608688 0.328035 0.751505 -0.154096
C151  C     C_R   0.596154 0.335444 0.261959 -0.152217
C152  C     C_R   0.622711 0.684232 0.764962 -0.158708
H37   H     H_    0.175955 0.197267 0.760210 0.151888
H38   H     H_    0.030886 0.678351 0.089466 0.167617
H39   H     H_    0.064016 0.656691 0.874802 0.182404
H40   H     H_    0.188413 0.221859 0.248170 0.177343
H41   H     H_    0.690904 0.730447 0.246622 0.174980
H42   H     H_    0.553680 0.162222 0.612388 0.178528
H43   H     H_    0.550606 0.163179 0.388392 0.166635
H44   H     H_    0.527340 0.817839 0.585594 0.163777
H45   H     H_    0.621285 0.705345 0.026778 0.184749
H46   H     H_    0.364680 0.095312 0.711583 0.206024
H47   H     H_    0.374987 0.089476 0.274369 0.180130
H48   H     H_    0.324416 0.874145 0.671616 0.184125
H49   H     H_    0.084796 0.137578 0.561779 0.176324
H50   H     H_    0.836847 0.614473 0.184359 0.185962
H51   H     H_    0.888738 0.583371 0.760557 0.181659
H52   H     H_    0.121280 0.200643 0.469993 0.189107
H53   H     H_    0.496048 0.718296 0.061499 0.152102
H54   H     H_    0.353303 0.167734 0.794034 0.137130
H55   H     H_    0.364226 0.161834 0.193347 0.145159
H56   H     H_    0.333628 0.816587 0.774731 0.131584
H57   H     H_    0.972872 0.184274 0.583204 0.135590
H58   H     H_    0.843652 0.674603 0.284941 0.122617
H59   H     H_    0.866117 0.660661 0.691819 0.149988
H60   H     H_    0.996880 0.219275 0.438606 0.157677
H61   H     H_    0.311398 0.779892 0.248889 0.136320
H62   H     H_    0.457776 0.331407 0.899861 0.114393
H63   H     H_    0.447614 0.338216 0.112161 0.119903
H64   H     H_    0.474979 0.683539 0.916565 0.112638
H65   H     H_    0.829009 0.312537 0.731551 0.112719
H66   H     H_    0.967835 0.824037 0.409610 0.111982
H67   H     H_    0.941493 0.840839 0.618395 0.125904
H68   H     H_    0.812376 0.282176 0.253363 0.131031
H69   H     H_    0.816571 0.365307 0.841340 0.139310
H70   H     H_    0.068891 0.884902 0.414885 0.141477
H71   H     H_    0.019111 0.915597 0.636941 0.137535
H72   H     H_    0.783441 0.306120 0.128725 0.141927
H73   H     H_    0.281953 0.801556 0.374559 0.149931
H74   H     H_    0.553752 0.396259 0.900528 0.130397
H75   H     H_    0.531027 0.410557 0.125049 0.132437
H76   H     H_    0.581423 0.627811 0.927189 0.141885
H77   H     H_    0.022220 0.312968 0.920367 0.113366
H78   H     H_    0.159728 0.823124 0.218486 0.108661
H79   H     H_    0.133082 0.839662 0.808244 0.129359
H80   H     H_    0.002940 0.281183 0.061735 0.135541
H81   H     H_    0.502245 0.779237 0.439181 0.147275
H82   H     H_    0.652843 0.328716 0.712090 0.106202
H83   H     H_    0.639674 0.336658 0.301794 0.124117
H84   H     H_    0.665754 0.682696 0.724346 0.112023
H85   H     H_    0.117326 0.048727 0.214612 0.145142
H86   H     H_    0.115913 0.953436 0.214447 0.145878
H87   H     H_    0.623409 0.549863 0.718034 0.141513
H88   H     H_    0.618330 0.454858 0.716470 0.141750
C153  C     C_R   0.341791 0.051831 0.897268 -0.368961
C154  C     C_R   0.332472 0.945152 0.891944 -0.371638
C155  C     C_R   0.829540 0.552028 0.388223 -0.354626
C156  C     C_R   0.819239 0.445106 0.383921 -0.366540
C157  C     C_R   0.390158 0.023881 0.853048 0.446652
C158  C     C_R   0.384406 0.970429 0.848815 0.467720
C159  C     C_R   0.869429 0.524239 0.336057 0.452833
C160  C     C_R   0.863064 0.470565 0.332357 0.439126
C161  C     C_R   0.292253 0.972218 0.946499 0.019325
C162  C     C_R   0.295017 0.026427 0.947831 0.019287
C163  C     C_R   0.786130 0.472284 0.442803 0.025732
C164  C     C_R   0.789098 0.526488 0.443731 0.011298
C165  C     C_R   0.250195 0.946182 0.999859 -0.103019
C166  C     C_R   0.251959 0.053534 0.000081 -0.108010
C167  C     C_R   0.749309 0.446303 0.499915 -0.100568
C168  C     C_R   0.751441 0.553666 0.499758 -0.104026
C169  C     C_R   0.212971 0.973031 0.056229 0.064951
C170  C     C_R   0.213593 0.027346 0.056169 0.063188
C171  C     C_R   0.714446 0.473364 0.557613 0.063808
C172  C     C_R   0.715767 0.527679 0.557618 0.067409
C173  C     C_R   0.177635 0.946865 0.114684 -0.141698
C174  C     C_R   0.179006 0.054140 0.114728 -0.144888
C175  C     C_R   0.679648 0.447475 0.616537 -0.145276
C176  C     C_R   0.683559 0.554770 0.617222 -0.145030
C177  C     C_R   0.142626 0.974050 0.170437 -0.129914
C178  C     C_R   0.143351 0.027604 0.170483 -0.124427
C179  C     C_R   0.645896 0.475035 0.672778 -0.135086
C180  C     C_R   0.648320 0.528549 0.673436 -0.135440
H89   H     H_    0.344558 0.093258 0.892645 0.191292
H90   H     H_    0.326182 0.904134 0.883189 0.170429
H91   H     H_    0.832830 0.593588 0.385078 0.187027
H92   H     H_    0.811586 0.404014 0.377183 0.159503
O53   O     O_3   0.443480 0.048869 0.813190 -0.596122
C181  C     C_3   0.503380 0.058484 0.859733 0.098872
H93   H     H_    0.523460 0.022067 0.885170 0.135779
H94   H     H_    0.488199 0.086497 0.903588 0.150753
C182  C     C_3   0.565742 0.081413 0.815449 -0.768778
H95   H     H_    0.550217 0.120126 0.794887 0.250885
H96   H     H_    0.614734 0.085569 0.850568 0.204472
H97   H     H_    0.579262 0.055838 0.768424 0.274905
O54   O     O_3   0.429298 0.943742 0.800809 -0.567852
C183  C     C_3   0.475370 0.909990 0.840247 0.094956
H98   H     H_    0.447181 0.872605 0.849369 0.171048
H99   H     H_    0.492323 0.926096 0.894341 0.118203
C184  C     C_3   0.544358 0.900236 0.795892 -0.741102
H100  H     H_    0.576061 0.936606 0.790824 0.248932
H101  H     H_    0.578501 0.870692 0.823457 0.208238
H102  H     H_    0.530245 0.886276 0.740341 0.272207
O55   O     O_3   0.914567 0.550051 0.287819 -0.592987
C185  C     C_3   0.986127 0.549177 0.316538 0.118381
H103  H     H_    0.005049 0.508897 0.326612 0.145726
H104  H     H_    0.988728 0.571496 0.368706 0.140661
C186  C     C_3   0.038670 0.573528 0.262153 -0.789840
H105  H     H_    0.027229 0.615403 0.257389 0.249410
H106  H     H_    0.095619 0.568606 0.281530 0.204860
H107  H     H_    0.033135 0.554848 0.207636 0.273064
O56   O     O_3   0.896964 0.444622 0.275045 -0.579002
C187  C     C_3   0.940070 0.403347 0.301354 0.094104
H108  H     H_    0.905806 0.368317 0.308244 0.155055
H109  H     H_    0.967200 0.412719 0.354365 0.129983
C188  C     C_3   0.999583 0.391414 0.245669 -0.770747
H110  H     H_    0.034988 0.425780 0.237950 0.248436
H111  H     H_    0.033572 0.358773 0.265304 0.214845
H112  H     H_    0.974811 0.380769 0.192351 0.267342
N1    N     N_R   0.207784 0.143654 0.640364 0.206905
O57   O     O_R   0.211845 0.103586 0.597391 -0.341525
O58   O     O_R   0.267114 0.168435 0.656843 -0.402254
N2    N     N_R   0.929219 0.606212 0.069794 0.223631
O59   O     O_R   0.876280 0.572817 0.066484 -0.341858
O60   O     O_R   0.978417 0.606069 0.018377 -0.379913
N3    N     N_R   0.994487 0.567251 0.859818 0.241687
O61   O     O_R   0.948347 0.529084 0.857820 -0.368536
O62   O     O_R   0.055763 0.561061 0.894440 -0.421472
N4    N     N_R   0.238055 0.199912 0.380683 0.210234
O63   O     O_R   0.253666 0.181790 0.445169 -0.318563
O64   O     O_R   0.291134 0.210032 0.335568 -0.408590
N5    N     N_R   0.739576 0.715318 0.112226 0.194926
O65   O     O_R   0.757069 0.691137 0.052160 -0.379402
O66   O     O_R   0.789713 0.740833 0.147229 -0.399038
N6    N     N_R   0.472621 0.077420 0.614996 0.250770
O67   O     O_R   0.419499 0.044816 0.605204 -0.257017
O68   O     O_R   0.537779 0.064982 0.592704 -0.397224
N7    N     N_R   0.468043 0.078495 0.386914 0.226048
O69   O     O_R   0.427073 0.037948 0.377794 -0.325560
O70   O     O_R   0.511736 0.080068 0.442738 -0.370281
N8    N     N_R   0.420839 0.885612 0.560917 0.216366
O71   O     O_R   0.363919 0.915216 0.553505 -0.325666
O72   O     O_R   0.473521 0.889184 0.513292 -0.393637

loop_
_geom_bond_atom_site_label_1
_geom_bond_atom_site_label_2
_geom_bond_distance
_ccdc_geom_bond_type
O55   C185  1.414250 S    
C87   C119  1.416648 A    
C94   C102  1.412890 A    
C109  C149  1.419500 A    
C148  H80   1.080815 S    
C172  C176  1.420913 A    
C149  H81   1.080742 S    
C99   C123  1.417172 A    
C75   C91   1.412772 A    
C177  C178  1.386520 A    
C97   C121  1.419071 A    
O26   C7    1.279933 A    
C73   C89   1.413588 A    
C66   C74   1.413030 A    
C130  H74   1.082583 S    
C99   C111  1.412496 A    
C158  O54   1.384253 S    
C4    C90   1.451352 S    
O30   C11   1.278904 A    
C22   C38   1.494956 S    
C30   H14   1.108613 S    
C91   C99   1.413445 A    
C136  C140  1.387490 A    
C89   C97   1.414772 A    
C185  C186  1.520473 S    
C153  H89   1.077258 S    
Zn12  O26   1.936642 S    
C110  C118  1.413192 A    
C51   C63   1.396082 A    
H34   C142  1.082179 S    
C169  C173  1.421363 A    
C92   C100  1.412800 A    
C43   C51   1.404233 A    
C76   C92   1.413552 A    
C32   C39   1.550553 S    
C188  H112  1.110358 S    
C29   H5    1.113478 S    
C96   C104  1.413625 A    
C34   C38   1.551452 S    
C44   H40   1.079985 S    
O11   C7    1.275581 A    
C45   H41   1.079537 S    
C184  H101  1.110508 S    
O34   C15   1.277246 A    
C136  H72   1.082693 S    
C186  H107  1.111342 S    
C163  C167  1.413455 A    
C62   C70   1.392211 A    
C41   H37   1.082543 S    
C159  O55   1.381363 S    
C137  C145  1.394167 A    
Zn14  O30   1.935849 S    
Zn1   O44   1.949672 S    
C25   H1    1.112995 S    
C153  C157  1.398100 A    
C181  H93   1.114890 S    
C108  C116  1.415871 A    
C141  C149  1.393077 A    
Zn5   O48   1.949672 S    
H32   C140  1.080991 S    
Zn6   O47   1.949673 S    
C112  C120  1.412794 A    
Zn7   O46   1.951985 S    
C46   C86   1.417763 A    
C60   H48   1.082541 S    
C11   C115  1.456105 S    
C42   C50   1.403857 A    
C104  C108  1.410485 A    
C155  C164  1.419825 A    
Zn12  O4    1.953580 S    
Zn1   O13   1.937866 S    
C156  C163  1.418912 A    
C98   C110  1.411739 A    
C182  H97   1.110924 S    
C26   C28   1.536685 S    
Zn4   O16   1.934063 S    
O41   C21   1.280465 A    
C104  C128  1.418770 A    
C9    C113  1.458435 S    
C33   C37   1.551746 S    
C6    C96   1.450200 S    
C28   H4    1.113496 S    
C125  C133  1.393510 A    
C164  C168  1.418302 A    
C31   H7    1.113410 S    
C71   C79   1.415719 A    
C154  C158  1.398284 A    
C72   C80   1.416465 A    
C74   C90   1.412173 A    
C71   H59   1.081556 S    
C181  C182  1.520668 S    
C14   C118  1.451302 S    
C44   C84   1.419555 A    
C45   C85   1.420024 A    
C30   H6    1.112942 S    
Zn10  O22   1.936642 S    
C105  C113  1.414727 A    
N1    O58   1.298787 A    
C132  H76   1.082579 S    
C48   C88   1.417195 A    
C133  H69   1.082714 S    
O56   C187  1.414355 S    
O25   C8    1.277199 A    
Zn13  O29   1.930751 S    
C129  C141  1.387789 A    
Zn6   O4    1.951062 S    
Zn10  O2    1.953580 S    
C31   C40   1.555178 S    
O29   C12   1.277454 A    
C167  C171  1.415250 A    
Zn15  O33   1.930751 S    
C18   C165  1.438647 S    
C151  H83   1.081835 S    
C183  H98   1.110245 S    
C152  H84   1.082409 S    
C67   H55   1.081482 S    
N8    O71   1.301560 A    
C179  C180  1.386174 A    
C80   C84   1.409055 A    
C75   C87   1.410567 A    
C26   H2    1.113468 S    
C41   C81   1.415250 A    
C135  C139  1.388742 A    
O48   C23   1.279884 A    
C10   C114  1.451642 S    
N5    O66   1.300821 A    
C171  C175  1.419979 A    
O54   C183  1.414674 S    
C155  C159  1.397481 A    
C132  C144  1.390184 A    
C101  C125  1.416041 A    
Zn16  O35   1.932459 S    
C77   C93   1.409116 A    
C70   C78   1.414167 A    
C82   C114  1.414010 A    
Zn7   O10   1.934018 S    
O33   C16   1.276458 A    
C25   C37   1.551359 S    
C86   C118  1.413802 A    
Zn8   O20   1.934063 S    
O40   C20   1.274606 A    
C52   C64   1.395098 A    
C1    C91   1.453313 S    
H85   C178  1.082715 S    
C55   N7    1.438293 S    
C102  C106  1.411640 A    
C187  H108  1.110776 S    
H35   C143  1.082624 S    
N6    O67   1.301574 A    
C80   C96   1.414634 A    
Zn5   O17   1.937866 S    
H33   C141  1.082160 S    
H31   C139  1.082647 S    
C150  H82   1.082192 S    
C57   C65   1.389791 A    
C25   C27   1.547205 S    
C103  C107  1.412054 A    
C67   C75   1.415243 A    
C169  C170  1.406181 A    
C65   C73   1.417390 A    
C50   N2    1.439142 S    
C32   H8    1.112920 S    
Zn8   O3    1.946441 S    
C21   C37   1.495125 S    
O38   C18   1.271907 A    
C146  H78   1.082355 S    
O5    C1    1.277055 A    
C47   C55   1.405024 A    
O32   C9    1.281871 A    
C185  H104  1.114753 S    
C153  C162  1.421676 A    
H25   C35   1.113082 S    
C187  C188  1.520801 S    
H26   C36   1.112923 S    
C36   C40   1.550812 S    
Zn15  O51   1.950812 S    
C111  C151  1.417577 A    
Zn11  O28   1.935596 S    
Zn12  O40   1.950770 S    
C56   N8    1.440710 S    
C20   C167  1.440852 S    
H17   C173  1.080073 S    
C52   N4    1.439465 S    
H23   C34   1.112933 S    
C42   H38   1.081625 S    
C108  C148  1.418907 A    
C29   C39   1.554144 S    
C155  H91   1.079331 S    
H28   C35   1.112941 S    
O8    C4    1.277909 A    
C63   C71   1.390144 A    
C33   C34   1.548318 S    
C64   C72   1.390822 A    
C49   C61   1.394138 A    
C123  H63   1.081884 S    
O50   C18   1.271483 A    
O37   C17   1.268053 A    
C154  C161  1.421303 A    
C107  C115  1.415675 A    
C100  C112  1.411310 A    
Zn1   O1    1.951063 S    
C122  C130  1.393329 A    
C133  C137  1.390223 A    
Zn2   O14   1.932631 S    
C15   C119  1.456431 S    
C68   C76   1.414175 A    
C166  C170  1.416098 A    
C45   C53   1.401961 A    
H29   C137  1.082340 S    
C157  O53   1.379818 S    
O9    C5    1.275735 A    
C43   H39   1.080453 S    
O36   C13   1.282005 A    
C60   C68   1.393038 A    
O13   C9    1.277206 A    
Zn1   O8    1.932588 S    
C2    C92   1.451423 S    
Zn2   O7    1.937823 S    
C173  C177  1.391897 A    
Zn3   O6    1.934018 S    
O18   C14   1.275015 A    
O31   C10   1.277575 A    
C106  C146  1.416863 A    
C53   N5    1.435815 S    
C25   H9    1.113063 S    
C188  H111  1.110315 S    
N4    O63   1.302032 A    
C110  C150  1.416436 A    
C93   C101  1.412280 A    
C32   H16   1.113271 S    
C184  H100  1.110797 S    
C134  H70   1.082563 S    
N3    O61   1.301655 A    
C98   C122  1.416591 A    
Zn15  O3    1.953279 S    
C186  H106  1.110486 S    
Zn11  O3    1.951994 S    
C61   H49   1.082605 S    
C56   C60   1.399267 A    
Zn16  O34   1.935849 S    
C72   H60   1.080998 S    
C31   H15   1.113537 S    
C74   C86   1.409769 A    
C181  H94   1.114135 S    
C3    C89   1.453151 S    
Zn2   O2    1.951062 S    
O15   C11   1.275436 A    
C90   C98   1.412491 A    
N7    O70   1.299291 A    
C78   C82   1.409770 A    
H87   C180  1.082855 S    
C109  C117  1.417301 A    
C170  C174  1.421366 A    
C121  H61   1.081030 S    
C182  H96   1.110314 S    
C59   C67   1.389557 A    
C47   H43   1.081294 S    
C48   H44   1.081643 S    
C84   C116  1.416678 A    
C69   C77   1.414561 A    
C159  C160  1.396006 A    
C112  C152  1.416866 A    
Zn8   O9    1.938305 S    
C127  H67   1.081462 S    
C24   C40   1.495865 S    
C128  H68   1.081065 S    
C68   H56   1.082422 S    
C19   C168  1.441277 S    
C69   H57   1.082355 S    
C7    C93   1.452269 S    
H20   C176  1.080608 S    
C162  C166  1.420844 A    
C138  C146  1.393581 A    
O7    C3    1.276974 A    
C65   H53   1.081145 S    
C88   C120  1.413701 A    
C95   C103  1.414002 A    
C16   C120  1.450696 S    
O19   C15   1.277009 A    
C83   C115  1.418204 A    
C142  C150  1.393678 A    
C183  C184  1.520738 S    
C43   C83   1.419203 A    
O53   C181  1.412572 S    
C26   H10   1.112086 S    
C27   C38   1.552141 S    
C147  H79   1.081380 S    
Zn6   O18   1.932631 S    
Zn10  O23   1.930502 S    
C79   C83   1.410696 A    
C58   C66   1.391583 A    
C168  C172  1.413836 A    
Zn15  O36   1.936895 S    
C183  H99   1.116953 S    
O42   C22   1.278331 A    
C97   C109  1.412140 A    
C28   C37   1.554411 S    
N8    O72   1.301737 A    
C46   H42   1.081542 S    
C54   N6    1.436108 S    
Zn4   O1    1.946441 S    
C30   C32   1.545977 S    
Zn9   O37   1.951565 S    
C35   C36   1.548368 S    
O12   C8    1.278810 A    
H86   C177  1.082562 S    
C53   C57   1.393977 A    
C184  H102  1.108153 S    
Zn11  O39   1.951565 S    
N5    O65   1.301566 A    
C58   H46   1.082813 S    
C51   N3    1.438910 S    
C46   C54   1.401269 A    
C59   H47   1.082675 S    
Zn2   O43   1.949673 S    
C42   C82   1.416336 A    
H21   C33   1.112970 S    
Zn5   O3    1.951063 S    
Zn13  O1    1.953279 S    
C13   C117  1.457365 S    
C121  C129  1.392312 A    
C139  C147  1.393095 A    
C171  C172  1.406372 A    
C8    C94   1.450878 S    
C130  C142  1.389659 A    
C157  C158  1.389881 A    
C129  H73   1.082851 S    
H24   C33   1.113077 S    
Zn9   O24   1.935596 S    
O28   C5    1.277049 A    
C17   C166  1.443348 S    
C163  C164  1.404428 A    
Zn3   O42   1.951985 S    
C161  C165  1.414124 A    
C23   C39   1.494299 S    
N6    O68   1.300765 A    
Zn7   O4    1.946443 S    
O21   C4    1.278294 A    
C50   C62   1.398191 A    
C44   C52   1.402406 A    
C175  C179  1.392971 A    
C105  C145  1.416267 A    
C143  C151  1.393420 A    
C145  H77   1.082240 S    
C48   C56   1.403541 A    
C102  C126  1.416403 A    
Zn14  O2    1.951694 S    
C78   C94   1.412142 A    
C122  H62   1.082219 S    
N7    O69   1.301817 A    
Zn13  O49   1.950812 S    
O44   C21   1.277212 A    
C28   H12   1.113506 S    
C81   C113  1.416203 A    
C63   H51   1.082760 S    
Zn12  O27   1.930502 S    
C35   C39   1.551849 S    
C64   H52   1.080652 S    
C85   C117  1.420027 A    
N3    O62   1.300579 A    
O16   C12   1.277601 A    
C61   C69   1.388717 A    
C30   C40   1.549527 S    
H19   C175  1.080099 S    
Zn3   O2    1.946443 S    
C127  C135  1.392958 A    
H27   C36   1.112976 S    
C160  O56   1.387991 S    
O10   C6    1.277602 A    
C27   H3    1.113102 S    
O46   C24   1.281057 A    
Zn4   O41   1.951985 S    
Zn16  O52   1.951607 S    
C100  C124  1.416683 A    
H88   C179  1.079868 S    
H30   C138  1.082613 S    
Zn16  O4    1.951694 S    
Zn8   O45   1.951985 S    
C41   C49   1.403142 A    
C124  H64   1.082322 S    
O27   C6    1.276552 A    
C47   C87   1.417183 A    
C125  H65   1.082506 S    
O39   C19   1.268488 A    
C62   H50   1.082525 S    
C185  H103  1.114590 S    
C131  C143  1.389495 A    
C29   C31   1.537480 S    
C156  H92   1.079920 S    
C131  H75   1.082630 S    
C73   C85   1.410539 A    
O24   C1    1.275497 A    
C76   C88   1.409831 A    
C57   H45   1.082757 S    
C77   C81   1.411251 A    
C79   C95   1.413617 A    
C156  C160  1.402734 A    
N2    O60   1.300601 A    
O43   C22   1.279277 A    
O47   C24   1.276957 A    
Zn3   O15   1.938349 S    
Zn5   O12   1.932588 S    
Zn6   O11   1.937823 S    
C101  C105  1.413664 A    
C126  H66   1.082385 S    
Zn9   O21   1.932210 S    
Zn14  O50   1.951607 S    
C135  H71   1.082644 S    
O35   C14   1.281201 A    
H18   C174  1.080087 S    
Zn9   O1    1.951994 S    
C70   H58   1.082262 S    
H36   C144  1.082632 S    
O52   C20   1.269854 A    
C55   C59   1.396199 A    
C126  C134  1.394047 A    
C29   H13   1.113580 S    
C66   H54   1.082043 S    
C154  H90   1.079816 S    
N2    O59   1.301586 A    
C188  H110  1.110720 S    
O22   C3    1.279291 A    
N4    O64   1.300825 A    
C140  C148  1.392942 A    
Zn7   O19   1.938349 S    
C176  C180  1.390718 A    
C111  C119  1.414912 A    
C12   C116  1.451771 S    
Zn13  O32   1.936895 S    
C144  C152  1.393728 A    
O49   C17   1.278631 A    
Zn14  O31   1.932459 S    
C123  C131  1.393331 A    
C186  H105  1.107690 S    
C134  C138  1.390274 A    
O51   C19   1.276727 A    
C106  C114  1.412881 A    
C27   H11   1.111299 S    
N1    O57   1.301460 A    
Zn4   O5    1.938305 S    
C103  C127  1.417992 A    
O20   C16   1.277490 A    
C165  C169  1.414836 A    
C5    C95   1.453666 S    
C26   C38   1.553738 S    
O23   C2    1.277078 A    
O6    C2    1.277491 A    
Zn11  O25   1.932210 S    
C161  C162  1.404505 A    
Zn10  O38   1.950770 S    
C187  H109  1.116425 S    
C124  C132  1.393880 A    
C54   C58   1.394479 A    
O14   C10   1.278665 A    
C174  C178  1.392121 A    
C128  C136  1.391685 A    
C107  C147  1.418412 A    
C182  H95   1.108415 S    
O17   C13   1.276948 A    
H22   C34   1.113015 S    
O45   C23   1.277375 A    
C49   N1    1.431603 S    
