data_mof_unit_23325.cif
_audit_creation_date              2012-12-10T19:42:14-0500
_audit_creation_method            fapswitch 2.2
_symmetry_space_group_name_H-M    P1
_symmetry_Int_Tables_number       1
_space_group_crystal_system       triclinic
_cell_length_a                    10.941886
_cell_length_b                    11.003871
_cell_length_c                    9.754692
_cell_angle_alpha                 91.298499
_cell_angle_beta                  91.002462
_cell_angle_gamma                 90.268964
_cell_volume                      1173.99862746

loop_
_atom_site_label
_atom_site_type_symbol
_atom_type_description
_atom_site_fract_x
_atom_site_fract_y
_atom_site_fract_z
_atom_type_partial_charge
C1    C     C_R   0.496751 0.266576 0.498427 0.836027
C2    C     C_R   0.206636 0.485136 0.970888 -0.130704
C3    C     C_R   0.931184 0.492882 0.379104 -0.245436
C4    C     C_R   0.871757 0.498116 0.504569 -0.090530
C5    C     C_R   0.942266 0.507512 0.627386 -0.002741
C6    C     C_R   0.068425 0.516250 0.620017 -0.247252
C7    C     C_R   0.128142 0.507293 0.494816 -0.087427
C8    C     C_R   0.057528 0.497792 0.371840 -0.001642
C9    C     C_R   0.896689 0.607061 0.853417 -0.132250
C10   C     C_R   0.843883 0.604032 0.982675 -0.145476
C11   C     C_R   0.785455 0.497904 0.024586 -0.149136
C12   C     C_R   0.262328 0.502965 0.498309 0.785323
C13   C     C_R   0.784449 0.392950 0.940700 -0.103149
C14   C     C_R   0.836804 0.395645 0.811387 -0.084565
C15   C     C_R   0.890041 0.503853 0.765613 0.136276
C16   C     C_2   0.515096 0.932444 0.399160 -0.233889
C17   C     C_2   0.502588 0.866536 0.513184 0.129595
C18   C     C_2   0.524958 0.065693 0.397283 -0.167499
C19   C     C_2   0.479039 0.137449 0.496484 -0.296295
C20   C     C_2   0.494694 0.401699 0.921100 -0.177655
C21   C     C_2   0.475484 0.404324 0.074056 -0.006544
C22   C     C_R   0.499328 0.734338 0.502256 0.801510
C23   C     C_R   0.737643 0.498600 0.501611 0.791450
C24   C     C_R   0.221001 0.590583 0.052625 -0.122191
C25   C     C_R   0.170781 0.595747 0.183087 -0.078303
C26   C     C_R   0.109310 0.493706 0.233256 0.135080
C27   C     C_R   0.091809 0.389624 0.148346 -0.141496
C28   C     C_R   0.140448 0.385609 0.017160 -0.137249
Cu1   Cu    Cu3+1 0.500020 0.500020 0.638630 0.921087
Cu2   Cu    Cu3+1 0.499980 0.499980 0.361370 0.926712
H1    H     H_    0.248335 0.479876 0.872337 0.141295
H2    H     H_    0.739612 0.497161 0.121401 0.156859
H3    H     H_    0.740357 0.310570 0.974606 0.123926
H4    H     H_    0.833148 0.314758 0.745444 0.105164
H5    H     H_    0.424801 0.104472 0.579818 0.184376
H6    H     H_    0.435227 0.416637 0.833399 0.281178
H7    H     H_    0.543586 0.573020 0.891278 0.231513
H8    H     H_    0.448226 0.319514 0.120195 0.156583
H9    H     H_    0.272628 0.667415 0.015657 0.113836
H10   H     H_    0.527725 0.577145 0.108178 0.191360
H11   H     H_    0.182663 0.677453 0.246661 0.107281
H12   H     H_    0.041523 0.311577 0.184314 0.118168
H13   H     H_    0.128267 0.305028 0.951984 0.123237
H14   H     H_    0.879314 0.485074 0.284563 0.160445
H15   H     H_    0.119896 0.528123 0.714147 0.158515
H16   H     H_    0.846768 0.684299 0.049531 0.125494
N1    N     N_2   0.498640 0.498660 0.846910 -0.423614
N2    N     N_2   0.498610 0.498630 0.153040 -0.293448
O1    O     O_R   0.500020 0.321960 0.617040 -0.589470
O2    O     O_R   0.499980 0.321920 0.382900 -0.580748
O3    O     O_R   0.319660 0.500030 0.617070 -0.612181
O4    O     O_R   0.319620 0.499990 0.382930 -0.562078
O5    O     O_R   0.500020 0.678080 0.617100 -0.562893
O6    O     O_R   0.499980 0.678040 0.382960 -0.606754
O7    O     O_R   0.680380 0.500010 0.617070 -0.557474
O8    O     O_R   0.680340 0.499970 0.382930 -0.596067
H17   H     H_    0.523319 0.886217 0.300045 0.141994
N3    N     N_2   0.506289 0.920504 0.648424 -0.417923
H18   H     H_    0.587863 0.960539 0.687800 0.248899
C29   C     C_3   0.399144 0.910006 0.734789 -0.682610
H19   H     H_    0.417749 0.956623 0.836211 0.209888
H20   H     H_    0.374905 0.813179 0.753758 0.242988
H21   H     H_    0.318844 0.953645 0.683895 0.212192
H22   H     H_    0.570356 0.105584 0.309809 0.152804
H23   H     H_    0.940708 0.690018 0.820752 0.115630

loop_
_geom_bond_atom_site_label_1
_geom_bond_atom_site_label_2
_ccdc_geom_bond_type
C14   H4    S    
C25   H11   S    
C13   H3    S    
Cu1   Cu2   S    
C6    H15   S    
H7    N1    S    
C8    C26   S    
C1    O2    A    
C28   H13   S    
C17   C22   S    
C17   N3    S    
C21   N2    D    
C24   H9    S    
C29   H19   S    
Cu2   O2    S    
C23   O8    A    
C22   O6    A    
Cu1   O1    S    
C13   C14   A    
C24   C25   A    
C23   O7    A    
Cu2   O6    S    
C27   H12   S    
C18   H22   S    
C26   C27   A    
C6    C7    A    
C19   H5    S    
Cu1   O5    S    
Cu1   N1    S    
C29   H21   S    
C5    C6    A    
C16   C18   S    
C12   O4    A    
Cu1   O3    S    
C11   H2    S    
C3    C8    A    
C22   O5    A    
C16   H17   S    
C2    C24   A    
C7    C12   S    
C9    H23   S    
C3    H14   S    
C5    C15   S    
C20   N1    D    
C7    C8    A    
C10   C11   A    
N3    C29   S    
C3    C4    A    
C20   H6    S    
C10   H16   S    
C11   C13   A    
C12   O3    A    
C20   C21   S    
C29   H20   S    
C18   C19   D    
C9    C10   A    
C1    C19   S    
Cu2   N2    S    
C27   C28   A    
H10   N2    S    
C4    C23   S    
Cu2   O4    S    
C14   C15   A    
C4    C5    A    
C2    C28   A    
Cu1   O7    S    
C25   C26   A    
C9    C15   A    
N3    H18   S    
Cu2   O8    S    
C21   H8    S    
C16   C17   D    
C2    H1    S    
C1    O1    A    
