data_mof_unit_27063.cif
_audit_creation_date              2012-12-11T15:41:13-0500
_audit_creation_method            fapswitch 2.2
_symmetry_space_group_name_H-M    P1
_symmetry_Int_Tables_number       1
_space_group_crystal_system       triclinic
_cell_length_a                    19.081256
_cell_length_b                    10.959524
_cell_length_c                    18.808476
_cell_angle_alpha                 90.026103
_cell_angle_beta                  90.319039
_cell_angle_gamma                 89.854215
_cell_volume                      3933.18230383

loop_
_atom_site_label
_atom_site_type_symbol
_atom_type_description
_atom_site_fract_x
_atom_site_fract_y
_atom_site_fract_z
_atom_type_partial_charge
C1    C     C_R   0.709960 0.999420 0.861178 0.556260
C2    C     C_R   0.290082 0.999601 0.138782 0.556688
C3    C     C_R   0.227317 0.455941 0.853329 0.543272
C4    C     C_R   0.772678 0.455841 0.146678 0.544195
C5    C     C_R   0.694107 0.460695 0.040135 0.068661
C6    C     C_R   0.305759 0.460603 0.959987 0.068765
C7    C     C_R   0.211527 0.000684 0.032020 0.019524
C8    C     C_R   0.788407 0.000198 0.968003 0.019642
C9    C     C_R   0.689500 0.444821 0.967200 0.010550
C10   C     C_R   0.310312 0.444726 0.032921 0.010573
C11   C     C_R   0.199839 0.977466 0.960387 -0.015738
C12   C     C_R   0.800058 0.976900 0.039635 -0.015392
C13   C     C_R   0.787809 0.306986 0.972315 -0.153463
C14   C     C_R   0.212226 0.307300 0.027664 -0.153645
C15   C     C_R   0.321892 0.926854 0.946406 -0.154838
C16   C     C_R   0.678045 0.926959 0.053506 -0.155205
C17   C     C_R   0.790622 0.318604 0.045661 -0.161707
C18   C     C_R   0.209490 0.318879 0.954318 -0.161334
C19   C     C_R   0.332779 0.946218 0.018878 -0.159827
C20   C     C_R   0.667198 0.946437 0.981038 -0.159689
C21   C     C_3   0.670663 0.590968 0.034390 -0.032191
C22   C     C_3   0.328994 0.590776 0.965798 -0.032102
C23   C     C_3   0.140684 0.952173 0.051736 -0.042556
C24   C     C_3   0.859257 0.951077 0.948294 -0.043058
C25   C     C_3   0.665464 0.572485 0.954395 -0.230443
C26   C     C_3   0.334114 0.572314 0.045796 -0.230104
C27   C     C_3   0.127978 0.928220 0.973083 -0.220550
C28   C     C_3   0.871934 0.927053 0.026938 -0.220520
C29   C     C_R   0.740541 0.377864 0.931565 0.005947
C30   C     C_R   0.259356 0.377949 0.068488 0.005459
C31   C     C_R   0.253722 0.931866 0.917666 0.010883
C32   C     C_R   0.746181 0.931629 0.082302 0.010601
C33   C     C_R   0.480721 0.169809 0.432139 0.006351
C34   C     C_R   0.491308 0.172768 0.579347 0.000576
C35   C     C_R   0.980724 0.669807 0.432137 0.006335
C36   C     C_R   0.991312 0.672769 0.579345 0.001025
C37   C     C_R   0.477622 0.279172 0.469242 0.025788
C38   C     C_R   0.482306 0.282117 0.541497 0.049315
C39   C     C_R   0.977630 0.779171 0.469239 0.025686
C40   C     C_R   0.982315 0.782117 0.541493 0.049458
C41   C     C_R   0.480639 0.061355 0.544258 -0.177426
C42   C     C_R   0.476975 0.059741 0.470102 -0.168385
C43   C     C_R   0.980640 0.561356 0.544257 -0.177200
C44   C     C_R   0.976975 0.559740 0.470100 -0.168424
C45   C     C_R   0.529232 0.177951 0.850435 0.547681
C46   C     C_R   0.470776 0.177769 0.149570 0.547318
C47   C     C_R   0.030385 0.677675 0.850998 0.557033
C48   C     C_R   0.969675 0.677483 0.149040 0.556476
C49   C     C_3   0.518874 0.393378 0.458502 -0.006398
C50   C     C_3   0.525790 0.397484 0.538695 0.001471
C51   C     C_3   0.018886 0.893371 0.458495 -0.006461
C52   C     C_3   0.025805 0.897476 0.538688 0.001352
C53   C     C_R   0.752124 0.420478 0.423817 0.028188
C54   C     C_R   0.247608 0.402035 0.579829 0.011816
C55   C     C_R   0.252126 0.920477 0.423817 0.026804
C56   C     C_R   0.747607 0.902033 0.579830 0.010831
C57   C     C_R   0.782507 0.318898 0.456223 0.006694
C58   C     C_R   0.196783 0.339272 0.540283 0.020920
C59   C     C_R   0.282515 0.818904 0.456226 0.007054
C60   C     C_R   0.696776 0.839290 0.540279 0.020904
C61   C     C_R   0.781291 0.307924 0.528860 0.035170
C62   C     C_R   0.201865 0.329828 0.467977 0.020417
C63   C     C_R   0.281301 0.807937 0.528865 0.035981
C64   C     C_R   0.701858 0.829851 0.467972 0.021018
C65   C     C_R   0.708920 0.486874 0.539711 -0.168005
C66   C     C_R   0.315159 0.424232 0.471698 -0.150230
C67   C     C_R   0.208922 0.986878 0.539712 -0.168043
C68   C     C_R   0.815161 0.924220 0.471700 -0.150102
C69   C     C_R   0.712122 0.501599 0.465923 -0.114200
C70   C     C_R   0.310321 0.433256 0.546067 -0.158349
C71   C     C_R   0.212122 0.001597 0.465923 -0.114966
C72   C     C_R   0.810324 0.933237 0.546070 -0.158743
C73   C     C_3   0.855097 0.267335 0.452018 -0.269599
C74   C     C_3   0.118991 0.356614 0.535479 -0.264693
C75   C     C_3   0.355107 0.767352 0.452023 -0.269347
C76   C     C_3   0.618986 0.856656 0.535473 -0.264797
C77   C     C_3   0.854721 0.261247 0.532333 -0.257494
C78   C     C_3   0.125161 0.344384 0.455733 -0.281807
C79   C     C_3   0.354732 0.761272 0.532339 -0.257798
C80   C     C_3   0.625157 0.844427 0.455726 -0.282144
C81   C     C_R   0.747662 0.393412 0.572057 0.013991
C82   C     C_R   0.257511 0.381525 0.431544 0.013892
C83   C     C_R   0.247667 0.893422 0.572060 0.014478
C84   C     C_R   0.757510 0.881534 0.431542 0.014437
C85   C     C_R   0.736267 0.356125 0.855552 0.545541
C86   C     C_R   0.263708 0.356007 0.144474 0.545646
C87   C     C_R   0.238616 0.865626 0.852115 0.537994
C88   C     C_R   0.761345 0.865485 0.147887 0.538292
C89   C     C_R   0.727901 0.953556 0.648155 0.550678
C90   C     C_R   0.272694 0.957350 0.353097 0.557179
C91   C     C_R   0.227896 0.453567 0.648148 0.545078
C92   C     C_R   0.772698 0.457360 0.353102 0.551773
C93   C     C_R   0.528344 0.176976 0.645976 0.543619
C94   C     C_R   0.466917 0.176235 0.357268 0.544241
C95   C     C_R   0.028344 0.676977 0.645977 0.544512
C96   C     C_R   0.966919 0.676235 0.357267 0.545047
C97   C     C_R   0.739323 0.361301 0.646060 0.546948
C98   C     C_R   0.262498 0.356014 0.356012 0.547766
C99   C     C_R   0.239325 0.861306 0.646061 0.544510
C100  C     C_R   0.762496 0.856021 0.356010 0.545624
C101  C     C_2   0.497540 0.171859 0.921134 -0.103097
C102  C     C_2   0.502437 0.171459 0.078857 -0.103535
C103  C     C_2   0.999100 0.668817 0.921463 -0.108943
C104  C     C_2   0.001052 0.668311 0.078617 -0.110123
C105  C     C_2   0.497413 0.070134 0.039138 -0.171625
C106  C     C_2   0.502341 0.070275 0.960661 -0.171481
C107  C     C_2   0.991946 0.568447 0.038125 -0.166879
C108  C     C_2   0.007792 0.568514 0.961698 -0.166502
C109  C     C_R   0.748695 0.405958 0.079384 -0.001059
C110  C     C_R   0.251315 0.406052 0.920655 -0.000662
C111  C     C_R   0.277169 0.978835 0.063194 0.016045
C112  C     C_R   0.722814 0.978751 0.936782 0.016190
Cr1   Cr    Cr6+3 0.769260 0.163750 0.750730 1.006082
Cr2   Cr    Cr6+3 0.230740 0.163750 0.249270 1.007637
Cr3   Cr    Cr6+3 0.269260 0.663750 0.750730 1.000834
Cr4   Cr    Cr6+3 0.730740 0.663750 0.249270 1.002278
Cr5   Cr    Cr6+3 0.612640 0.009910 0.748780 1.000102
Cr6   Cr    Cr6+3 0.387360 0.009910 0.251220 1.000974
Cr7   Cr    Cr6+3 0.112640 0.509910 0.748780 1.008411
Cr8   Cr    Cr6+3 0.887360 0.509910 0.251220 1.009328
Cr9   Cr    Cr6+3 0.614190 0.322400 0.747710 1.008226
Cr10  Cr    Cr6+3 0.385810 0.322400 0.252290 1.012563
Cr11  Cr    Cr6+3 0.114190 0.822400 0.747710 1.003917
Cr12  Cr    Cr6+3 0.885810 0.822400 0.252290 1.008339
H1    H     H_    0.488743 0.983245 0.065031 0.130573
H2    H     H_    0.510938 0.983360 0.934622 0.130697
H3    H     H_    0.971499 0.484738 0.060810 0.156456
H4    H     H_    0.027828 0.484476 0.938781 0.156384
H5    H     H_    0.988119 0.969502 0.434604 0.164513
H6    H     H_    0.080364 0.887041 0.558707 0.182756
H7    H     H_    0.488106 0.469507 0.434610 0.164502
H8    H     H_    0.580349 0.387059 0.558714 0.182673
H9    H     H_    0.678131 0.549755 0.571258 0.122820
H10   H     H_    0.362725 0.453087 0.445825 0.135263
H11   H     H_    0.178130 0.049756 0.571258 0.122444
H12   H     H_    0.862731 0.953063 0.445827 0.135365
H13   H     H_    0.686066 0.579534 0.442364 0.158849
H14   H     H_    0.353069 0.471204 0.576510 0.157675
H15   H     H_    0.186061 0.079525 0.442362 0.158603
H16   H     H_    0.853077 0.971167 0.576514 0.157702
H17   H     H_    0.894495 0.331617 0.431378 0.156869
H18   H     H_    0.103474 0.449764 0.552069 0.170005
H19   H     H_    0.394502 0.831635 0.431380 0.156642
H20   H     H_    0.603480 0.949811 0.552064 0.169830
H21   H     H_    0.855740 0.176130 0.426270 0.133882
H22   H     H_    0.089620 0.280697 0.560601 0.126485
H23   H     H_    0.355755 0.676144 0.426280 0.134471
H24   H     H_    0.589606 0.780748 0.560592 0.126766
H25   H     H_    0.858121 0.167711 0.553477 0.160922
H26   H     H_    0.100563 0.259863 0.434639 0.141650
H27   H     H_    0.358137 0.667739 0.553488 0.161053
H28   H     H_    0.600553 0.759912 0.434630 0.141491
H29   H     H_    0.891101 0.327172 0.557899 0.134709
H30   H     H_    0.111860 0.429531 0.426415 0.139472
H31   H     H_    0.391108 0.827205 0.557903 0.134234
H32   H     H_    0.611865 0.929578 0.426408 0.138754
H33   H     H_    0.518422 0.257244 0.055268 0.127908
H34   H     H_    0.481677 0.257776 0.944863 0.127994
H35   H     H_    0.022644 0.750817 0.055856 0.143636
H36   H     H_    0.977885 0.751669 0.944442 0.143392
H37   H     H_    0.824771 0.245240 0.947650 0.142709
H38   H     H_    0.175330 0.245731 0.052267 0.142707
H39   H     H_    0.365549 0.895008 0.914811 0.132405
H40   H     H_    0.634401 0.895344 0.085051 0.132497
H41   H     H_    0.831047 0.269181 0.074411 0.140314
H42   H     H_    0.169186 0.269561 0.925516 0.140417
H43   H     H_    0.383466 0.926991 0.041170 0.127809
H44   H     H_    0.616542 0.927532 0.958695 0.128302
H45   H     H_    0.105237 0.022355 0.074775 0.144826
H46   H     H_    0.894708 0.020940 0.925292 0.144669
H47   H     H_    0.710795 0.658821 0.050930 0.154983
H48   H     H_    0.288784 0.658793 0.949217 0.154951
H49   H     H_    0.611097 0.575756 0.932833 0.172657
H50   H     H_    0.388446 0.575403 0.067438 0.172933
H51   H     H_    0.123287 0.829992 0.958958 0.159678
H52   H     H_    0.876630 0.828789 0.041021 0.159674
H53   H     H_    0.704242 0.627205 0.924191 0.109106
H54   H     H_    0.295201 0.627191 0.075964 0.109121
H55   H     H_    0.086623 0.987892 0.949836 0.115764
H56   H     H_    0.913274 0.986378 0.050226 0.116301
H57   H     H_    0.483472 0.975898 0.572936 0.121869
H58   H     H_    0.475102 0.973470 0.442594 0.126619
H59   H     H_    0.983469 0.475899 0.572935 0.122078
H60   H     H_    0.975095 0.473469 0.442594 0.126630
O1    O     O_R   0.784290 0.290360 0.830540 -0.531616
O2    O     O_R   0.215710 0.290360 0.169460 -0.531020
O3    O     O_R   0.284290 0.790360 0.830540 -0.538242
O4    O     O_R   0.715710 0.790360 0.169460 -0.537648
O5    O     O_R   0.554690 0.080440 0.673480 -0.509110
O6    O     O_R   0.445310 0.080440 0.326520 -0.507763
O7    O     O_R   0.054690 0.580440 0.673480 -0.508828
O8    O     O_R   0.945310 0.580440 0.326520 -0.507347
O9    O     O_R   0.543980 0.282110 0.666770 -0.533179
O10   O     O_R   0.456020 0.282110 0.333230 -0.529095
O11   O     O_R   0.043980 0.782110 0.666770 -0.533098
O12   O     O_R   0.956020 0.782110 0.333230 -0.528964
O13   O     O_R   0.679070 0.374030 0.674430 -0.510381
O14   O     O_R   0.320930 0.374030 0.325570 -0.507757
O15   O     O_R   0.179070 0.874030 0.674430 -0.511857
O16   O     O_R   0.820930 0.874030 0.325570 -0.509399
O17   O     O_3   0.665360 0.165350 0.749070 -0.263439
O18   O     O_3   0.334640 0.165350 0.250930 -0.267165
O19   O     O_3   0.165360 0.665350 0.749070 -0.245300
O20   O     O_3   0.834640 0.665350 0.250930 -0.248846
O21   O     O_R   0.762610 0.041070 0.825230 -0.510597
O22   O     O_R   0.237390 0.041070 0.174770 -0.509698
O23   O     O_R   0.262610 0.541070 0.825230 -0.508190
O24   O     O_R   0.737390 0.541070 0.174770 -0.507581
O25   O     O_R   0.667390 0.924160 0.829970 -0.522469
O26   O     O_R   0.332610 0.924160 0.170030 -0.521919
O27   O     O_R   0.167390 0.424160 0.829970 -0.524442
O28   O     O_R   0.832610 0.424160 0.170030 -0.524182
O29   O     O_R   0.553980 0.081420 0.821780 -0.513271
O30   O     O_R   0.446020 0.081420 0.178220 -0.513237
O31   O     O_R   0.053980 0.581420 0.821780 -0.496375
O32   O     O_R   0.946020 0.581420 0.178220 -0.496262
O33   O     O_R   0.543210 0.283170 0.826740 -0.507884
O34   O     O_R   0.456790 0.283170 0.173260 -0.507631
O35   O     O_R   0.043210 0.783170 0.826740 -0.517116
O36   O     O_R   0.956790 0.783170 0.173260 -0.516706
O37   O     O_R   0.678350 0.375000 0.822720 -0.495793
O38   O     O_R   0.321650 0.375000 0.177280 -0.494968
O39   O     O_R   0.178350 0.875000 0.822720 -0.498924
O40   O     O_R   0.821650 0.875000 0.177280 -0.498094
O41   O     O_R   0.785060 0.289300 0.670580 -0.513853
O42   O     O_R   0.214940 0.289300 0.329420 -0.516332
O43   O     O_R   0.285060 0.789300 0.670580 -0.515957
O44   O     O_R   0.714940 0.789300 0.329420 -0.518473
O45   O     O_R   0.763330 0.040090 0.676940 -0.501443
O46   O     O_R   0.236670 0.040090 0.323060 -0.502892
O47   O     O_R   0.263330 0.540090 0.676940 -0.503874
O48   O     O_R   0.736670 0.540090 0.323060 -0.505559
O49   O     O_R   0.668160 0.923110 0.670000 -0.517915
O50   O     O_R   0.331840 0.923110 0.330000 -0.521301
O51   O     O_R   0.168160 0.423110 0.670000 -0.521897
O52   O     O_R   0.831840 0.423110 0.330000 -0.525368
N1    N     N_3   0.586074 0.372560 0.423216 -0.659407
H61   H     H_    0.609003 0.290897 0.440665 0.231055
H62   H     H_    0.577324 0.364961 0.368534 0.252836
N2    N     N_3   0.488949 0.501934 0.569019 -0.678932
H63   H     H_    0.489695 0.492706 0.624315 0.250378
H64   H     H_    0.518123 0.579983 0.557420 0.218058
N3    N     N_3   0.086083 0.872543 0.423204 -0.659081
H65   H     H_    0.109012 0.790880 0.440655 0.231314
H66   H     H_    0.077330 0.864936 0.368522 0.253180
N4    N     N_3   0.988970 0.001932 0.569013 -0.678758
H67   H     H_    0.989710 0.992699 0.624308 0.250447
H68   H     H_    0.018151 0.079975 0.557418 0.218018
N5    N     N_3   0.602092 0.609134 0.066834 -0.616390
H69   H     H_    0.609351 0.613084 0.121908 0.255806
H70   H     H_    0.583601 0.694932 0.051188 0.219604
N6    N     N_3   0.397585 0.608611 0.933458 -0.616512
H71   H     H_    0.390395 0.612635 0.878378 0.255629
H72   H     H_    0.415958 0.694294 0.949199 0.219740
N7    N     N_3   0.143531 0.839095 0.093355 -0.646424
H73   H     H_    0.183418 0.781815 0.074746 0.238105
H74   H     H_    0.155184 0.861099 0.146132 0.264321
N8    N     N_3   0.856418 0.838010 0.906625 -0.645886
H75   H     H_    0.816553 0.781054 0.925223 0.238161
H76   H     H_    0.844736 0.860100 0.853864 0.264559

loop_
_geom_bond_atom_site_label_1
_geom_bond_atom_site_label_2
_ccdc_geom_bond_type
Cr8   O28   S    
C39   C51   S    
C4    C109  S    
C48   O32   A    
C67   C83   A    
C46   O34   A    
Cr3   O23   S    
C14   H38   S    
C69   H13   S    
C45   O33   A    
C41   C42   A    
C14   C18   A    
C35   C39   A    
C34   C93   S    
C53   C69   A    
C33   C94   S    
C75   H19   S    
Cr12  O36   S    
C51   H5    S    
C9    C25   S    
C73   H17   S    
C35   C96   S    
C16   H40   S    
Cr7   O31   S    
C49   H7    S    
C78   H26   S    
N5    H69   S    
C5    C109  A    
Cr1   O45   S    
Cr4   O44   S    
C33   C42   A    
C13   C29   A    
C27   H55   S    
C15   C19   A    
C55   C90   S    
C55   C59   A    
Cr8   O8    S    
C1    C112  S    
C48   O36   A    
Cr1   O1    S    
C25   H53   S    
C103  H36   S    
C66   C82   A    
Cr5   O49   S    
C92   O48   A    
C3    C110  S    
C89   O49   A    
N3    H65   S    
C48   C104  S    
C24   N8    S    
C65   C69   A    
C37   C49   S    
C90   O50   A    
C102  C105  D    
Cr3   O43   S    
C96   O12   A    
C57   C73   S    
C57   C61   A    
C100  O44   A    
C10   C30   A    
Cr10  O14   S    
C64   C84   A    
Cr2   O46   S    
C21   C25   S    
Cr4   O4    S    
C77   H29   S    
C64   C80   S    
C65   C81   A    
Cr8   O32   S    
Cr12  O40   S    
C61   C77   S    
N3    H66   S    
Cr3   O19   S    
C73   H21   S    
C45   O29   A    
C107  C108  S    
Cr2   O18   S    
C4    O24   A    
C103  C108  D    
C2    O22   A    
C91   O51   A    
Cr1   O17   S    
C30   C86   S    
C24   H46   S    
C44   H60   S    
Cr3   O47   S    
C8    C12   A    
N7    H74   S    
C10   C26   S    
C6    C22   S    
C85   O37   A    
C74   H18   S    
Cr10  O38   S    
C11   C31   A    
C94   O10   A    
N1    H61   S    
Cr4   O48   S    
C85   O1    A    
C65   H9    S    
C82   C98   S    
C41   H57   S    
Cr6   O18   S    
C88   O4    A    
C19   H43   S    
Cr10  O10   S    
Cr5   O17   S    
C46   C102  S    
C102  H33   S    
N2    H64   S    
Cr4   O20   S    
C74   H22   S    
C80   H32   S    
C26   H54   S    
C79   H31   S    
C3    O27   A    
C20   H44   S    
N4    H68   S    
C2    C111  S    
C2    O26   A    
C47   C103  S    
C98   O14   A    
C1    O25   A    
C51   C52   S    
C68   C84   A    
C97   O13   A    
C36   C40   A    
C31   C87   S    
C17   H41   S    
C23   N7    S    
C27   H51   S    
C39   C40   A    
C53   C57   A    
C107  H3    S    
C28   H52   S    
C87   O3    A    
C7    C111  A    
C18   H42   S    
C56   C72   A    
C40   C52   S    
C47   O35   A    
C92   O52   A    
N6    H71   S    
C42   H58   S    
Cr2   O22   S    
C47   O31   A    
C68   C72   A    
C46   O30   A    
C5    C21   S    
Cr1   O21   S    
C6    C110  A    
C67   H11   S    
C43   C44   A    
C94   O6    A    
C6    C10   A    
C22   N6    S    
C37   C38   A    
C54   C70   A    
Cr2   O42   S    
C86   O2    A    
Cr3   O3    S    
Cr6   O50   S    
Cr6   O26   S    
Cr1   O41   S    
C50   N2    S    
C23   H45   S    
C11   C27   S    
C16   C20   A    
C63   C83   A    
Cr12  O12   S    
C53   C92   S    
C88   O40   A    
Cr7   O19   S    
Cr6   O30   S    
C50   H8    S    
C68   H12   S    
C15   C31   A    
C35   C44   A    
C28   H56   S    
Cr9   O13   S    
C106  H2    S    
Cr4   O24   S    
C63   C79   S    
Cr5   O5    S    
C58   C62   A    
C52   N4    S    
C76   H20   S    
C49   N1    S    
C56   C89   S    
C12   C28   S    
C101  H34   S    
C70   H14   S    
N5    H70   S    
C23   C27   S    
N1    H62   S    
C74   C78   S    
Cr8   O20   S    
C59   C63   A    
C104  H35   S    
C52   H6    S    
C12   C32   A    
C72   H16   S    
C77   H25   S    
N7    H73   S    
Cr9   O9    S    
C59   C75   S    
N8    H76   S    
C45   C101  S    
C1    O21   A    
C58   C74   S    
C24   C28   S    
N6    H72   S    
C54   C58   A    
C79   H27   S    
C15   H39   S    
C101  C106  D    
C80   H28   S    
Cr11  O35   S    
N4    H67   S    
C95   O11   A    
C93   O5    A    
Cr10  O34   S    
C51   N3    S    
C34   C38   A    
Cr9   O37   S    
C29   C85   S    
C62   C78   S    
C78   H30   S    
C76   C80   S    
Cr7   O7    S    
C19   C111  A    
C17   C109  A    
Cr11  O15   S    
C84   C100  S    
C71   H15   S    
N2    H63   S    
C13   H37   S    
C38   C50   S    
C95   O7    A    
C16   C32   A    
Cr9   O33   S    
C86   O38   A    
C105  C106  S    
Cr12  O16   S    
Cr7   O27   S    
Cr11  O39   S    
Cr2   O2    S    
C99   O43   A    
C97   O41   A    
C60   C64   A    
C75   H23   S    
C105  H1    S    
Cr5   O25   S    
N8    H75   S    
C87   O39   A    
C14   C30   A    
C54   C91   S    
C34   C41   A    
C21   H47   S    
Cr8   O52   S    
C21   N5    S    
C9    C29   A    
Cr11  O11   S    
C36   C95   S    
C96   O8    A    
C66   C70   A    
C81   C97   S    
C99   O15   A    
C7    C23   S    
C4    O28   A    
Cr6   O6    S    
C43   H59   S    
C3    O23   A    
C8    C24   S    
C8    C112  A    
C60   C76   S    
C33   C37   A    
C67   C71   A    
C62   C82   A    
C22   H48   S    
Cr12  O20   S    
C100  O16   A    
Cr9   O17   S    
C13   C17   A    
C25   H49   S    
Cr10  O18   S    
Cr5   O29   S    
C56   C60   A    
C76   H24   S    
C73   C77   S    
C18   C110  A    
C49   C50   S    
C22   C26   S    
C20   C112  A    
C91   O47   A    
C93   O9    A    
C26   H50   S    
C90   O46   A    
C36   C43   A    
C61   C81   A    
C5    C9    A    
C108  H4    S    
Cr11  O19   S    
C89   O45   A    
C66   H10   S    
C75   C79   S    
C104  C107  D    
C55   C71   A    
Cr7   O51   S    
C7    C11   A    
C83   C99   S    
C98   O42   A    
C32   C88   S    
