data_mof_unit_28720.cif
_audit_creation_date              2013-03-05T16:14:30-0500
_audit_creation_method            fapswitch 2.2
_symmetry_space_group_name_H-M    P1
_symmetry_Int_Tables_number       1
_space_group_crystal_system       triclinic
_cell_length_a                    10.645832
_cell_length_b                    10.645324
_cell_length_c                    9.423812
_cell_angle_alpha                 90.078263
_cell_angle_beta                  90.324792
_cell_angle_gamma                 90.284427
_cell_volume                      1067.95352843

loop_
_atom_site_label
_atom_site_type_symbol
_atom_site_description
_atom_site_fract_x
_atom_site_fract_y
_atom_site_fract_z
_atom_type_partial_charge
O1    O     O_R   0.500060 0.316850 0.620870 -0.579179
O2    O     O_R   0.499940 0.683150 0.379130 -0.579178
O3    O     O_R   0.500000 0.316860 0.379090 -0.576214
O4    O     O_R   0.500000 0.683140 0.620910 -0.576214
C1    C     C_R   0.501200 0.259723 0.499859 0.896111
C2    C     C_R   0.498800 0.740277 0.500141 0.896111
O5    O     O_R   0.316880 0.499960 0.620870 -0.578554
O6    O     O_R   0.683120 0.500040 0.379130 -0.578554
O7    O     O_R   0.316830 0.499970 0.379090 -0.576831
O8    O     O_R   0.683170 0.500030 0.620910 -0.576831
C3    C     C_R   0.259719 0.501030 0.499643 0.895663
C4    C     C_R   0.740281 0.498970 0.500356 0.895664
Cu1   Cu    Cu3+1 0.500030 0.499990 0.643150 1.001064
Cu2   Cu    Cu3+1 0.499970 0.500010 0.356850 1.001064
C5    C     C_3   0.043779 0.397254 0.568395 -0.245878
C6    C     C_3   0.956221 0.602746 0.431605 -0.245878
C7    C     C_3   0.960123 0.398062 0.435034 0.400547
C8    C     C_3   0.039877 0.601938 0.564966 0.400547
H1    H     H_    0.080992 0.312325 0.622083 0.191434
H2    H     H_    0.919008 0.687675 0.377917 0.191434
C9    C     C_3   0.876688 0.498366 0.500862 -0.140362
C10   C     C_3   0.123311 0.501634 0.499138 -0.140362
C11   C     C_3   0.959271 0.500069 0.635938 -0.232963
C12   C     C_3   0.040729 0.499931 0.364062 -0.232963
H3    H     H_    0.925080 0.502041 0.747005 0.183100
H4    H     H_    0.074920 0.497959 0.252995 0.183100
C13   C     C_3   0.600500 0.039377 0.568481 0.401506
C14   C     C_3   0.399500 0.960623 0.431519 0.401506
C15   C     C_3   0.604229 0.956496 0.434986 -0.250791
C16   C     C_3   0.395771 0.043504 0.565014 -0.250791
H5    H     H_    0.690275 0.919492 0.384036 0.191671
H6    H     H_    0.309725 0.080507 0.615964 0.191671
C17   C     C_3   0.498208 0.876682 0.500406 -0.139875
C18   C     C_3   0.501792 0.123318 0.499594 -0.139875
C19   C     C_3   0.496940 0.958477 0.635724 -0.231981
C20   C     C_3   0.503060 0.041522 0.364276 -0.231981
H7    H     H_    0.496295 0.923607 0.746712 0.187040
H8    H     H_    0.503705 0.076393 0.253288 0.187040
C21   C     C_3   0.528921 0.609867 0.050786 -0.032862
C22   C     C_3   0.471079 0.390133 0.949214 -0.032862
C23   C     C_3   0.419499 0.579521 0.948927 -0.017580
C24   C     C_3   0.580501 0.420479 0.051073 -0.017580
H9    H     H_    0.351799 0.646465 0.901106 0.169990
H10   H     H_    0.648200 0.353535 0.098893 0.169990
H11   H     H_    0.553530 0.702515 0.097763 0.142251
H12   H     H_    0.446470 0.297485 0.902237 0.142251
N1    N     N_3   0.500090 0.499970 0.858290 -0.173999
N2    N     N_3   0.499910 0.500030 0.141710 -0.173999
C25   C     C_3   0.609524 0.530305 0.950362 -0.031800
C26   C     C_3   0.390476 0.469695 0.049638 -0.031800
H13   H     H_    0.701830 0.556129 0.904288 0.141253
H14   H     H_    0.298170 0.443871 0.095712 0.141253
N3    N     N_R   0.918653 0.283905 0.362669 0.142499
O9    O     O_R   0.001541 0.207230 0.311319 -0.291103
O10   O     O_R   0.799847 0.257315 0.349451 -0.355491
N4    N     N_R   0.081347 0.716095 0.637331 0.142499
O11   O     O_R   0.998459 0.792770 0.688681 -0.291102
O12   O     O_R   0.200153 0.742684 0.650549 -0.355491
N5    N     N_R   0.712958 0.080229 0.644949 0.144160
O13   O     O_R   0.787975 0.996901 0.699239 -0.291388
O14   O     O_R   0.739508 0.198915 0.659304 -0.341440
N6    N     N_R   0.287042 0.919771 0.355051 0.144160
O15   O     O_R   0.212025 0.003099 0.300762 -0.291388
O16   O     O_R   0.260492 0.801085 0.340695 -0.341440

loop_
_geom_bond_atom_site_label_1
_geom_bond_atom_site_label_2
_geom_bond_distance
_ccdc_geom_bond_type
C22   N1    1.482866 S    
C26   H14   1.110057 S    
O7    Cu2   1.962088 S    
C6    C9    1.541563 S    
C17   C19   1.543315 S    
C7    N3    1.458003 S    
C13   C15   1.536410 S    
C8    C10   1.525707 S    
C23   H9    1.110254 S    
C6    C12   1.557828 S    
C3    C10   1.452197 S    
C22   C24   1.538012 S    
C2    C17   1.452113 S    
O6    C4    1.291422 A    
C21   H11   1.110072 S    
C22   C26   1.537378 S    
C1    C18   1.452113 S    
C25   H13   1.110057 S    
C20   H8    1.110375 S    
C23   N1    1.482012 S    
N5    O13   1.300021 A    
C21   C23   1.538012 S    
C13   N5    1.458049 S    
N3    O9    1.299987 A    
C15   H5    1.110347 S    
N2    C26   1.482714 S    
O7    C3    1.291631 A    
C15   C20   1.557716 S    
N6    O15   1.300020 A    
O3    Cu2   1.961210 S    
C24   H10   1.110254 S    
C16   C19   1.557716 S    
O1    C1    1.291819 A    
O8    C4    1.291632 A    
C6    C8    1.536267 S    
C6    H2    1.110340 S    
C21   C25   1.537378 S    
N4    O12   1.299958 A    
C14   C17   1.525561 S    
O5    C3    1.291423 A    
C18   C20   1.543315 S    
C9    C11   1.542949 S    
C13   C18   1.525561 S    
O2    Cu2   1.960575 S    
C10   C12   1.542949 S    
N5    O14   1.300015 A    
C7    C12   1.535880 S    
O1    Cu1   1.960575 S    
C5    C11   1.557828 S    
C22   H12   1.110072 S    
C24   C25   1.538135 S    
C8    C11   1.535880 S    
C16   H6    1.110347 S    
C15   C17   1.541330 S    
C23   C26   1.538135 S    
O5    Cu1   1.959872 S    
C11   H3    1.110306 S    
C24   N2    1.482011 S    
N4    O11   1.299988 A    
C14   C20   1.535800 S    
N1    C25   1.482714 S    
O4    C2    1.291206 A    
C19   H7    1.110375 S    
O4    Cu1   1.961210 S    
C5    C7    1.536267 S    
Cu2   N2    2.027437 S    
C16   C18   1.541330 S    
C8    N4    1.458003 S    
C21   N2    1.482866 S    
N6    O16   1.300015 A    
O6    Cu2   1.959872 S    
Cu1   Cu2   2.698034 S    
C13   C19   1.535801 S    
C5    H1    1.110340 S    
N3    O10   1.299958 A    
Cu1   N1    2.027435 S    
C4    C9    1.452197 S    
C5    C10   1.541563 S    
C7    C9    1.525707 S    
O2    C2    1.291819 A    
C12   H4    1.110306 S    
C14   C16   1.536410 S    
O3    C1    1.291205 A    
O8    Cu1   1.962089 S    
C14   N6    1.458049 S    
