data_mof_unit_30347.cif
_audit_creation_date              2012-12-11T15:12:45-0500
_audit_creation_method            fapswitch 2.2
_symmetry_space_group_name_H-M    P1
_symmetry_Int_Tables_number       1
_space_group_crystal_system       triclinic
_cell_length_a                    22.253409
_cell_length_b                    6.978833
_cell_length_c                    19.434222
_cell_angle_alpha                 90.000041
_cell_angle_beta                  99.200455
_cell_angle_gamma                 90.000018
_cell_volume                      2979.36055718

loop_
_atom_site_label
_atom_site_type_symbol
_atom_type_description
_atom_site_fract_x
_atom_site_fract_y
_atom_site_fract_z
_atom_type_partial_charge
O1    O     O_R   0.448420 0.506120 0.415750 -0.533571
O2    O     O_R   0.551580 0.006120 0.584250 -0.533571
O3    O     O_R   0.436490 0.174470 0.555610 -0.538251
O4    O     O_R   0.563510 0.674470 0.444390 -0.538251
C1    C     C_R   0.420947 0.344436 0.575485 0.717087
C2    C     C_R   0.579053 0.844436 0.424515 0.717087
O5    O     O_R   0.441310 0.176330 0.414520 -0.538421
O6    O     O_R   0.558690 0.676330 0.585480 -0.538422
O7    O     O_R   0.556430 0.007110 0.442150 -0.532883
O8    O     O_R   0.443570 0.507110 0.557850 -0.532883
C3    C     C_R   0.426723 0.345903 0.388612 0.686090
C4    C     C_R   0.573276 0.845903 0.611388 0.686090
O9    O     O_3   0.537770 0.339560 0.509230 -0.366255
O10   O     O_3   0.462230 0.839560 0.490770 -0.366255
V1    V     V_3+5 0.492990 0.064280 0.498290 1.428609
V2    V     V_3+5 0.507010 0.564280 0.501710 1.428609
C5    C     C_R   0.872095 0.845173 0.698984 0.418098
C6    C     C_R   0.127905 0.345178 0.301016 0.418098
H1    H     H_    0.958880 0.883967 0.763717 0.125592
H2    H     H_    0.041120 0.383972 0.236283 0.125592
H3    H     H_    0.789220 0.785808 0.584677 0.152397
H4    H     H_    0.210779 0.285818 0.415323 0.152397
C7    C     C_R   0.885575 0.933235 0.821246 -0.099016
C8    C     C_R   0.114425 0.433235 0.178754 -0.099016
C9    C     C_R   0.588176 0.904735 0.737437 -0.156813
C10   C     C_R   0.411824 0.404728 0.262563 -0.156815
C11   C     C_R   0.624114 0.947247 0.800779 -0.129053
C12   C     C_R   0.375886 0.447235 0.199220 -0.129051
C13   C     C_R   0.687350 0.947897 0.807093 -0.167681
C14   C     C_R   0.312650 0.447887 0.192906 -0.167681
C15   C     C_R   0.716765 0.902237 0.749830 0.108521
C16   C     C_R   0.283235 0.402234 0.250170 0.108520
C17   C     C_R   0.679372 0.859527 0.684534 0.074187
C18   C     C_R   0.320628 0.359527 0.315466 0.074187
C19   C     C_R   0.781896 0.900151 0.755100 0.026545
C20   C     C_R   0.218103 0.400151 0.244900 0.026545
C21   C     C_R   0.808049 0.854876 0.694818 0.034853
C22   C     C_R   0.191951 0.354879 0.305182 0.034853
C23   C     C_R   0.770166 0.817865 0.631283 -0.188997
C24   C     C_R   0.229833 0.317871 0.368718 -0.188998
C25   C     C_R   0.707165 0.819794 0.626223 -0.210863
C26   C     C_R   0.292834 0.319800 0.373778 -0.210862
C27   C     C_R   0.822142 0.938161 0.818338 -0.228503
C28   C     C_R   0.177858 0.438159 0.181662 -0.228501
C29   C     C_R   0.909925 0.889360 0.761429 -0.253155
C30   C     C_R   0.090075 0.389364 0.238571 -0.253155
C31   C     C_R   0.614734 0.861574 0.678795 -0.087110
C32   C     C_R   0.385266 0.361572 0.321205 -0.087110
H5    H     H_    0.805926 0.966943 0.866648 0.103215
H6    H     H_    0.194074 0.466940 0.133352 0.103214
H7    H     H_    0.539080 0.910230 0.733649 0.106005
H8    H     H_    0.460920 0.410222 0.266350 0.106005
H9    H     H_    0.711804 0.986324 0.857534 0.103621
H10   H     H_    0.288196 0.486308 0.142464 0.103622
H11   H     H_    0.602701 0.982921 0.845381 0.124035
H12   H     H_    0.397299 0.482905 0.154617 0.124035
H13   H     H_    0.680264 0.788817 0.575951 0.111230
H14   H     H_    0.319736 0.288825 0.424049 0.111229
C33   C     C_3   0.812029 0.764022 0.266257 -0.321204
C34   C     C_3   0.187971 0.264023 0.733744 -0.321203
C35   C     C_3   0.783123 0.110894 0.245530 -0.211649
C36   C     C_3   0.216878 0.610894 0.754471 -0.211649
C37   C     C_3   0.738784 0.083726 0.299914 -0.385943
C38   C     C_3   0.261217 0.583727 0.700087 -0.385943
H15   H     H_    0.783046 0.749100 0.368882 0.141919
H16   H     H_    0.216954 0.249102 0.631118 0.141919
H17   H     H_    0.854964 0.812010 0.299179 0.133496
H18   H     H_    0.145036 0.312011 0.700821 0.133496
H19   H     H_    0.827925 0.159619 0.274133 0.112328
H20   H     H_    0.172075 0.659620 0.725867 0.112328
H21   H     H_    0.764895 0.103434 0.353282 0.141613
H22   H     H_    0.235105 0.603436 0.646719 0.141612
H23   H     H_    0.702372 0.194298 0.294641 0.180185
H24   H     H_    0.297629 0.694298 0.705360 0.180185
C39   C     C_1   0.625399 0.853296 0.379723 -0.189809
C40   C     C_1   0.374601 0.353296 0.620278 -0.189809
C41   C     C_3   0.791711 0.915875 0.208461 0.141155
C42   C     C_3   0.208289 0.415875 0.791539 0.141155
C43   C     C_3   0.762312 0.733640 0.313136 -0.338747
C44   C     C_3   0.237688 0.233641 0.686864 -0.338747
C45   C     C_3   0.710046 0.880294 0.294291 0.219244
C46   C     C_3   0.289954 0.380294 0.705709 0.219243
C47   C     C_3   0.680490 0.843029 0.217422 -0.339685
C48   C     C_3   0.319510 0.343028 0.782578 -0.339685
C49   C     C_3   0.728459 0.855491 0.166923 0.354385
C50   C     C_3   0.271541 0.355491 0.833078 0.354384
C51   C     C_1   0.663762 0.863093 0.341713 -0.064822
C52   C     C_1   0.336238 0.363093 0.658287 -0.064822
C53   C     C_1   0.838460 0.930395 0.161247 -0.024238
C54   C     C_1   0.161540 0.430395 0.838754 -0.024239
C55   C     C_1   0.876160 0.940453 0.122425 -0.159360
C56   C     C_1   0.123840 0.440453 0.877575 -0.159361
H25   H     H_    0.712298 0.968384 0.127744 0.047038
H26   H     H_    0.287702 0.468383 0.872257 0.047039
H27   H     H_    0.658273 0.699642 0.213173 0.173920
H28   H     H_    0.341726 0.199641 0.786827 0.173920
H29   H     H_    0.822235 0.625320 0.242702 0.206423
H30   H     H_    0.177765 0.125320 0.757298 0.206422
H31   H     H_    0.744006 0.585263 0.306085 0.162218
H32   H     H_    0.255994 0.085264 0.693914 0.162218
H33   H     H_    0.643799 0.950040 0.201613 0.130941
H34   H     H_    0.356201 0.450039 0.798388 0.130941
O11   O     O_R   0.056480 0.288780 0.942210 -0.534080
O12   O     O_R   0.943520 0.788780 0.057790 -0.534079
O13   O     O_R   0.058700 0.616820 0.085490 -0.539044
O14   O     O_R   0.941300 0.116820 0.914510 -0.539044
C57   C     C_R   0.072964 0.447800 0.111675 0.717603
C58   C     C_R   0.927036 0.947800 0.888325 0.717603
O15   O     O_R   0.063520 0.618570 0.944410 -0.532269
O16   O     O_R   0.936480 0.118570 0.055590 -0.532269
O17   O     O_R   0.948420 0.787670 0.915740 -0.537828
O18   O     O_R   0.051580 0.287670 0.084260 -0.537828
C59   C     C_R   0.078607 0.449977 0.923734 0.713081
C60   C     C_R   0.921393 0.949977 0.076266 0.713081
O19   O     O_3   0.962260 0.453430 0.990800 -0.367302
O20   O     O_3   0.037740 0.953430 0.009200 -0.367302
V3    V     V_3+5 0.007000 0.728750 0.001710 1.437377
V4    V     V_3+5 0.993000 0.228750 0.998290 1.437377
C61   C     C_2   0.760287 0.262503 0.192141 0.754497
O21   O     O_2   0.795873 0.338026 0.158638 -0.555574
O22   O     O_R   0.697801 0.299375 0.175813 -0.677456
H35   H     H_    0.685909 0.360864 0.128579 0.307404
C62   C     C_2   0.239713 0.762504 0.807860 0.754498
O23   O     O_2   0.204127 0.838027 0.841363 -0.555575
O24   O     O_R   0.302199 0.799374 0.824188 -0.677456
H36   H     H_    0.314091 0.860864 0.871423 0.307405
O25   O     O_3   0.733324 0.675023 0.135023 -0.552633
C63   C     C_3   0.725416 0.686455 0.061350 0.101552
H37   H     H_    0.745530 0.554450 0.042583 0.175474
H38   H     H_    0.750788 0.808781 0.042852 0.088521
C64   C     C_3   0.657577 0.695790 0.029947 -0.374296
H39   H     H_    0.630689 0.601047 0.059443 0.205502
H40   H     H_    0.640688 0.844679 0.033571 0.181191
C65   C     C_3   0.647012 0.633647 0.953731 -0.821316
H41   H     H_    0.657621 0.478926 0.949577 0.230138
H42   H     H_    0.676489 0.717475 0.923996 0.234411
H43   H     H_    0.598650 0.657597 0.930658 0.233325
O26   O     O_3   0.266676 0.175022 0.864977 -0.552633
C66   C     C_3   0.274582 0.186455 0.938650 0.101553
H44   H     H_    0.254468 0.054450 0.957416 0.175478
H45   H     H_    0.249211 0.308780 0.957147 0.088518
C67   C     C_3   0.342421 0.195789 0.970054 -0.374298
H46   H     H_    0.369310 0.101059 0.940555 0.205507
H47   H     H_    0.359309 0.344682 0.966436 0.181190
C68   C     C_3   0.352986 0.133625 0.046268 -0.821327
H48   H     H_    0.342378 0.978904 0.050416 0.230139
H49   H     H_    0.323510 0.217443 0.076005 0.234415
H50   H     H_    0.401348 0.157570 0.069342 0.233326
O27   O     O_3   0.898624 0.798538 0.641416 -0.578969
C69   C     C_3   0.903468 0.596648 0.636311 0.066446
H51   H     H_    0.900901 0.561117 0.580190 0.145079
H52   H     H_    0.865221 0.517875 0.654516 0.110487
C70   C     C_3   0.964776 0.525654 0.675529 -0.329775
H53   H     H_    0.002398 0.608445 0.658349 0.204688
H54   H     H_    0.966635 0.547405 0.732422 0.186432
C71   C     C_3   0.973997 0.312869 0.662437 -0.796895
H55   H     H_    0.936764 0.227734 0.679234 0.247896
H56   H     H_    0.018040 0.264962 0.692680 0.222345
H57   H     H_    0.974729 0.286577 0.606209 0.235070
O28   O     O_3   0.101376 0.298546 0.358584 -0.578969
C72   C     C_3   0.096532 0.096657 0.363691 0.066446
H58   H     H_    0.099099 0.061129 0.419812 0.145079
H59   H     H_    0.134779 0.017883 0.345487 0.110487
C73   C     C_3   0.035225 0.025660 0.324473 -0.329777
H60   H     H_    0.997602 0.108450 0.341652 0.204687
H61   H     H_    0.033365 0.047410 0.267579 0.186433
C74   C     C_3   0.026004 0.812875 0.337564 -0.796893
H62   H     H_    0.063238 0.727740 0.320767 0.247896
H63   H     H_    0.981961 0.764966 0.307322 0.222345
H64   H     H_    0.025272 0.786583 0.393793 0.235070

loop_
_geom_bond_atom_site_label_1
_geom_bond_atom_site_label_2
_ccdc_geom_bond_type
O18   V4    S    
H15   C43   S    
C11   C13   A    
C48   H34   S    
C57   O18   A    
O1    C3    A    
C64   C65   S    
O2    C4    A    
C63   H37   S    
C33   C41   S    
C65   H43   S    
C72   H58   S    
C12   H12   S    
O15   V3    S    
C2    C39   S    
C23   C25   A    
C42   C54   S    
O5    C3    A    
O13   C57   A    
C41   C53   S    
C13   H9    S    
C37   C45   S    
C7    C29   A    
C16   C20   A    
C43   H31   S    
C73   H60   S    
O11   C59   A    
C5    C29   A    
C34   H30   S    
C39   C51   T    
C66   C67   S    
C11   H11   S    
C62   O24   S    
C35   C61   S    
C17   C31   A    
C7    C27   A    
O20   V3    S    
C36   H20   S    
C48   H28   S    
C35   C37   S    
C36   C38   S    
C26   H14   S    
C50   H26   S    
C33   H17   S    
C49   H25   S    
C71   H56   S    
C35   C41   S    
O19   V3    S    
C69   C70   S    
C18   C26   A    
C15   C17   A    
O10   V2    S    
C53   C55   T    
C19   C27   A    
C56   C59   S    
O16   C60   A    
C46   C52   S    
C10   C32   A    
C42   C50   S    
C24   C26   A    
C41   C49   S    
O6    V2    S    
C22   C24   A    
O14   V4    S    
C67   C68   S    
O13   V3    S    
C3    C32   S    
C2    O7    A    
C4    C31   S    
C6    C30   A    
C36   C62   S    
C72   H59   S    
C68   H48   S    
C74   H64   S    
C61   O22   S    
C44   H32   S    
C68   H49   S    
C62   O23   D    
C6    O28   S    
C74   H63   S    
C33   C43   S    
C74   H62   S    
C43   C45   S    
H4    C24   S    
C27   H5    S    
C65   H42   S    
C37   H23   S    
O3    C1    A    
C16   C18   A    
O4    V2    S    
C9    H7    S    
O2    V1    S    
C10   H8    S    
C14   H10   S    
C54   C56   T    
H3    C23   S    
O6    C4    A    
O19   V4    S    
C34   C42   S    
C8    C57   S    
C5    C21   A    
C47   H27   S    
C70   C71   S    
O16   V4    S    
C38   C46   S    
O22   H35   S    
C45   C51   S    
O12   C60   A    
O4    C2    A    
C47   C49   S    
C37   H21   S    
C46   C48   S    
O9    V1    S    
O24   H36   S    
C33   H29   S    
C69   H52   S    
C20   C28   A    
O11   V4    S    
C70   H54   S    
C64   H39   S    
C63   C64   S    
C72   C73   S    
O3    V1    S    
C68   H50   S    
O12   V3    S    
C35   H19   S    
C40   C52   T    
C9    C31   A    
C34   C44   S    
C47   H33   S    
C19   C21   A    
C67   H46   S    
C36   C42   S    
C71   H57   S    
C5    O27   S    
C48   C50   S    
C64   H40   S    
C63   H38   S    
C45   C47   S    
C66   H44   S    
H1    C29   S    
C65   H41   S    
O15   C59   A    
C9    C11   A    
H16   C44   S    
C18   C32   A    
C10   C12   A    
C69   H51   S    
C58   O17   A    
O17   V3    S    
C17   C25   A    
O28   C72   S    
C1    C40   S    
C73   H61   S    
C6    C22   A    
C8    C30   A    
C12   C14   A    
C13   C15   A    
O8    V2    S    
O27   C69   S    
C20   C22   A    
C14   C16   A    
C66   H45   S    
O14   C58   A    
C8    C28   A    
C7    C58   S    
C15   C19   A    
O5    V1    S    
C44   C46   S    
O20   V4    S    
C67   H47   S    
C73   C74   S    
O7    V1    S    
C49   O25   S    
O26   C66   S    
C50   O26   S    
C25   H13   S    
C1    O8    A    
C71   H55   S    
C34   H18   S    
C28   H6    S    
C21   C23   A    
C61   O21   D    
O9    V2    S    
C38   H24   S    
O10   V1    S    
O1    V2    S    
C70   H53   S    
C55   C60   S    
H2    C30   S    
O25   C63   S    
C38   H22   S    
