data_mof_unit_51436.cif
_audit_creation_date              2012-12-11T14:51:51-0500
_audit_creation_method            fapswitch 2.2
_symmetry_space_group_name_H-M    P1
_symmetry_Int_Tables_number       1
_space_group_crystal_system       triclinic
_cell_length_a                    6.939796
_cell_length_b                    16.666266
_cell_length_c                    16.932709
_cell_angle_alpha                 101.357799
_cell_angle_beta                  90.252471
_cell_angle_gamma                 90.385557
_cell_volume                      1920.01583892

loop_
_atom_site_label
_atom_site_type_symbol
_atom_type_description
_atom_site_fract_x
_atom_site_fract_y
_atom_site_fract_z
_atom_type_partial_charge
O1    O     O_R   0.506340 0.439070 0.579550 -0.536675
O2    O     O_R   0.170010 0.404890 0.412100 -0.539516
O3    O     O_R   0.005010 0.560930 0.420450 -0.537277
C1    C     C_R   0.339426 0.381627 0.383197 0.703760
O4    O     O_R   0.176280 0.429360 0.578400 -0.540373
O5    O     O_R   0.011320 0.585570 0.587940 -0.540398
C2    C     C_R   0.344017 0.414213 0.605409 0.704278
O6    O     O_R   0.500030 0.414430 0.412060 -0.538288
O7    O     O_3   0.340950 0.551220 0.502940 -0.371313
V1    V     V_3+5 0.064020 0.490500 0.499460 1.422157
O8    O     O_R   0.681910 0.595110 0.587900 -0.543217
C3    C     C_R   0.851563 0.618392 0.616702 0.674925
O9    O     O_R   0.675640 0.570640 0.421600 -0.542807
C4    C     C_R   0.843023 0.586134 0.394597 0.705388
V2    V     V_3+5 0.564670 0.509500 0.500540 1.418097
O10   O     O_3   0.837610 0.448780 0.497060 -0.363949
C5    C     C_R   0.921716 0.862169 0.167794 -0.093493
C6    C     C_R   0.841191 0.637155 0.331555 -0.084593
C7    C     C_R   0.663064 0.680473 0.221334 -0.019996
C8    C     C_R   0.687983 0.627544 0.275841 -0.199779
C9    C     C_R   0.974941 0.700483 0.331487 -0.220596
C10   C     C_R   0.953298 0.754807 0.277782 0.138400
C11   C     C_R   0.797486 0.745245 0.221662 0.074472
C12   C     C_R   0.785585 0.799117 0.166344 -0.203935
C13   C     C_R   0.070583 0.871747 0.225419 -0.130413
C14   C     C_R   0.086062 0.818954 0.279729 -0.123282
H1    H     H_    0.677954 0.790496 0.119170 0.156379
H2    H     H_    0.177914 0.919653 0.227537 0.135211
H3    H     H_    0.204645 0.827482 0.322496 0.120935
H4    H     H_    0.582845 0.579204 0.276382 0.147511
H5    H     H_    0.092023 0.709181 0.375018 0.116422
C15   C     C_3   0.808301 0.817814 0.731242 -0.139987
C16   C     C_3   0.978134 0.768520 0.687115 -0.139572
H6    H     H_    0.056152 0.783439 0.634690 0.102505
H7    H     H_    0.746954 0.874343 0.716208 0.099355
C17   C     C_3   0.865753 0.688636 0.687510 -0.008420
C18   C     C_3   0.695770 0.737111 0.730831 -0.117365
C19   C     C_3   0.787949 0.731338 0.813032 -0.137568
C20   C     C_3   0.957780 0.682038 0.768900 -0.137153
C21   C     C_3   0.070310 0.762744 0.769314 -0.116283
C22   C     C_3   0.900329 0.811222 0.812629 -0.005924
H8    H     H_    0.541438 0.726200 0.714470 0.106483
H9    H     H_    0.709944 0.716426 0.865465 0.108072
H10   H     H_    0.019127 0.625508 0.783934 0.103297
H11   H     H_    0.224640 0.773655 0.785681 0.106034
C23   C     C_3   0.555306 0.282392 0.275850 -0.156501
C24   C     C_3   0.492215 0.193009 0.273175 0.018958
H12   H     H_    0.698365 0.308822 0.296669 0.129104
C25   C     C_3   0.409407 0.188155 0.188203 -0.078203
C26   C     C_3   0.470179 0.277608 0.190134 -0.141094
C27   C     C_3   0.273004 0.307293 0.227618 -0.104450
C28   C     C_3   0.211722 0.217220 0.225189 -0.114471
C29   C     C_3   0.296198 0.221886 0.311024 -0.185532
C30   C     C_3   0.357378 0.311142 0.312541 -0.032466
H13   H     H_    0.542631 0.300457 0.140476 0.135645
H14   H     H_    0.180788 0.354604 0.209092 0.124409
H15   H     H_    0.068799 0.190606 0.204437 0.135417
H16   H     H_    0.223913 0.198912 0.360659 0.135587
C31   C     C_R   0.420758 0.142283 0.836006 -0.144984
C32   C     C_R   0.342818 0.364391 0.668961 -0.065756
C33   C     C_R   0.174684 0.324763 0.781651 -0.151000
C34   C     C_R   0.193438 0.375496 0.725639 -0.167427
C35   C     C_R   0.475999 0.301665 0.669927 -0.213409
C36   C     C_R   0.455735 0.248787 0.725163 0.137099
C37   C     C_R   0.302687 0.259464 0.781698 0.082062
C38   C     C_R   0.285034 0.206037 0.837702 -0.074202
C39   C     C_R   0.568970 0.132859 0.778630 -0.142475
C40   C     C_R   0.586404 0.185168 0.724181 -0.139812
H17   H     H_    0.674037 0.084647 0.776300 0.134526
H18   H     H_    0.058139 0.337277 0.824337 0.151336
H19   H     H_    0.703724 0.176040 0.681380 0.129250
H20   H     H_    0.089339 0.423826 0.726417 0.119469
H21   H     H_    0.590923 0.292217 0.625963 0.128439
O11   O     O_R   0.266070 0.085680 0.087850 -0.536377
O12   O     O_R   0.590090 0.070660 0.921580 -0.543540
O13   O     O_R   0.754780 0.914400 0.912080 -0.544018
C41   C     C_R   0.421965 0.087675 0.895959 0.722839
O14   O     O_R   0.596110 0.095130 0.087880 -0.529524
O15   O     O_R   0.760850 0.939050 0.079570 -0.524004
C42   C     C_R   0.426752 0.118258 0.116896 0.765782
O16   O     O_R   0.260010 0.061030 0.920360 -0.530283
O17   O     O_3   0.425070 0.948840 0.997010 -0.373906
V3    V     V_3+5 0.702100 0.009490 0.000550 1.467612
O18   O     O_R   0.090200 0.929250 0.078500 -0.542397
C43   C     C_R   0.922554 0.913695 0.105308 0.715452
O19   O     O_R   0.084180 0.904770 0.912200 -0.546977
C44   C     C_R   0.914526 0.881506 0.883391 0.663449
V4    V     V_3+5 0.201420 0.990350 0.999580 1.464341
O20   O     O_3   0.928580 0.051150 0.002990 -0.359176
C45   C     C_2   0.616870 0.131246 0.301702 0.709023
O21   O     O_2   0.677022 0.145142 0.371031 -0.561452
O22   O     O_R   0.663500 0.058298 0.249415 -0.672352
H22   H     H_    0.748658 0.021852 0.275833 0.288235
C46   C     C_2   0.132197 0.218896 0.899854 0.742152
O23   O     O_2   0.176130 0.232219 0.971304 -0.565200
O24   O     O_R   0.938415 0.215069 0.876524 -0.669130
H23   H     H_    0.847842 0.224345 0.924227 0.298031
C47   C     C_2   0.491387 0.666782 0.167384 0.730538
O25   O     O_2   0.439832 0.596914 0.137969 -0.555383
O26   O     O_R   0.383159 0.732901 0.152990 -0.673014
H24   H     H_    0.268250 0.715150 0.116370 0.298254

loop_
_geom_bond_atom_site_label_1
_geom_bond_atom_site_label_2
_ccdc_geom_bond_type
C33   H18   S    
C29   H16   S    
C6    C9    A    
C4    C6    S    
O2    C1    A    
C7    C8    A    
C12   H1    S    
C1    O6    A    
C31   C41   S    
C24   C25   S    
C8    H4    S    
C29   C30   S    
C13   H2    S    
C9    H5    S    
C32   C35   A    
C5    C43   S    
C36   C40   A    
C17   C18   S    
C31   C38   A    
O5    C3    A    
C19   C20   S    
O19   V4    S    
V2    O10   S    
C47   O25   D    
C16   C17   S    
C32   C34   A    
C27   H14   S    
C18   H8    S    
O22   H22   S    
C31   C39   A    
O8    V2    S    
O14   V3    S    
C11   C12   A    
O1    V2    S    
C3    C17   S    
O7    V1    S    
C24   C29   S    
O11   C42   A    
O9    C4    A    
C46   O23   D    
V3    O20   S    
O13   V3    S    
C7    C47   S    
C16   H6    S    
C21   H11   S    
C22   C44   S    
C23   H12   S    
C5    C12   A    
C27   C28   S    
C16   C21   S    
C15   H7    S    
O18   C43   A    
C19   C22   S    
C20   C21   S    
O4    C2    A    
O19   C44   A    
C35   H21   S    
C13   C14   A    
C39   C40   A    
C39   H17   S    
C7    C11   A    
C18   C19   S    
C45   O22   S    
C41   O16   A    
C15   C22   S    
C25   C28   S    
O24   H23   S    
C23   C30   S    
C26   C27   S    
O14   C42   A    
C34   H20   S    
C15   C18   S    
C46   O24   S    
O12   C41   A    
O13   C44   A    
O3    C4    A    
C21   C22   S    
O17   V3    S    
O6    V2    S    
C47   O26   S    
O9    V2    S    
C24   C45   S    
O2    V1    S    
C2    C32   S    
O15   C43   A    
C28   C29   S    
C23   C24   S    
C1    C30   S    
O1    C2    A    
C17   C20   S    
O18   V4    S    
O5    V1    S    
O8    C3    A    
C20   H10   S    
C23   C26   S    
C26   H13   S    
C25   C42   S    
C38   C46   S    
C27   C30   S    
C5    C13   A    
C15   C16   S    
O7    V2    S    
C19   H9    S    
O3    V1    S    
V1    O10   S    
C36   C37   A    
O15   V3    S    
O12   V3    S    
C45   O21   D    
C40   H19   S    
O17   V4    S    
O26   H24   S    
C6    C8    A    
C37   C38   A    
C33   C34   A    
O16   V4    S    
C28   H15   S    
C35   C36   A    
C33   C37   A    
O4    V1    S    
V4    O20   S    
C14   H3    S    
C25   C26   S    
C10   C14   A    
C10   C11   A    
O11   V4    S    
C9    C10   A    
