data_mof_unit_64712.cif
_audit_creation_date              2012-12-11T15:45:07-0500
_audit_creation_method            fapswitch 2.2
_symmetry_space_group_name_H-M    P1
_symmetry_Int_Tables_number       1
_space_group_crystal_system       triclinic
_cell_length_a                    22.821882
_cell_length_b                    30.362651
_cell_length_c                    19.039337
_cell_angle_alpha                 89.997816
_cell_angle_beta                  123.651697
_cell_angle_gamma                 89.997429
_cell_volume                      10982.1228145

loop_
_atom_site_label
_atom_site_type_symbol
_atom_type_description
_atom_site_fract_x
_atom_site_fract_y
_atom_site_fract_z
_atom_type_partial_charge
C1    C     C_R   0.126340 0.388765 0.065370 -0.066559
C2    C     C_R   0.944179 0.388756 0.076016 -0.081987
C3    C     C_R   0.728820 0.000019 0.274325 -0.229173
C4    C     C_R   0.016194 0.463137 0.223466 -0.045303
C5    C     C_R   0.016181 0.536874 0.223444 -0.054130
C6    C     C_R   0.516190 0.963137 0.223463 -0.046458
C7    C     C_R   0.516174 0.036873 0.223440 -0.054798
C8    C     C_R   0.808384 0.535897 0.770783 0.383488
C9    C     C_R   0.808382 0.464117 0.770772 0.383403
C10   C     C_R   0.308330 0.035900 0.770839 0.383216
C11   C     C_R   0.308323 0.964119 0.770822 0.383686
C12   C     C_R   0.444368 0.111333 0.076044 -0.086708
C13   C     C_R   0.444176 0.888759 0.076018 -0.082289
C14   C     C_R   0.011618 0.500008 0.263331 0.025315
C15   C     C_R   0.511610 0.000007 0.263325 0.026302
C16   C     C_R   0.772331 0.500012 0.723910 -0.141398
C17   C     C_R   0.272226 0.000018 0.724005 -0.140948
C18   C     C_R   0.885233 0.367824 0.008127 0.028776
C19   C     C_R   0.885444 0.632299 0.008163 0.031704
C20   C     C_R   0.385231 0.867826 0.008130 0.028830
C21   C     C_R   0.126246 0.611299 0.065363 -0.074781
C22   C     C_R   0.385446 0.132299 0.008168 0.032296
C23   C     C_3   0.461974 0.541539 0.430216 -0.378844
C24   C     C_3   0.461930 0.458363 0.431079 -0.379694
C25   C     C_3   0.961464 0.044920 0.442089 -0.418599
C26   C     C_3   0.961815 0.962792 0.421329 -0.378225
C27   C     C_3   0.543114 0.458392 0.485021 -0.375377
C28   C     C_3   0.543164 0.541471 0.484165 -0.378732
C29   C     C_3   0.043000 0.962846 0.475276 -0.379673
C30   C     C_3   0.042643 0.044884 0.495938 -0.353197
C31   C     C_1   0.705591 0.500030 0.649000 0.174188
C32   C     C_R   0.626356 0.888776 0.065373 -0.068798
C33   C     C_1   0.205357 0.000042 0.649292 0.174261
C34   C     C_3   0.433880 0.500116 0.450185 0.341854
C35   C     C_3   0.933593 0.000062 0.450794 0.364141
C36   C     C_3   0.570067 0.500084 0.540805 0.365413
C37   C     C_3   0.069779 0.000075 0.541348 0.363109
C38   C     C_R   0.059405 0.609199 0.926300 -0.104563
C39   C     C_R   0.059467 0.390840 0.926307 -0.105481
C40   C     C_R   0.559413 0.109196 0.926303 -0.104883
C41   C     C_R   0.559474 0.890845 0.926309 -0.105855
C42   C     C_3   0.541306 0.500413 0.598192 -0.405745
C43   C     C_R   0.626252 0.111292 0.065366 -0.074515
C44   C     C_3   0.041075 0.992479 0.597827 -0.408795
C45   C     C_3   0.460228 0.500432 0.544181 -0.359062
C46   C     C_3   0.959988 0.992481 0.543851 -0.353304
C47   C     C_1   0.645246 0.500058 0.594280 -0.108498
C48   C     C_1   0.144963 0.000067 0.594734 -0.111076
C49   C     C_1   0.358708 0.500118 0.397715 -0.098795
C50   C     C_1   0.858427 0.000040 0.398286 -0.118483
C51   C     C_1   0.297735 0.500089 0.345613 0.244662
C52   C     C_1   0.797500 0.000022 0.345992 0.194449
C53   C     C_1   0.158399 0.665973 0.992905 -0.010307
C54   C     C_R   0.871964 0.386754 0.934431 -0.090120
C55   C     C_1   0.158588 0.334149 0.992926 -0.009674
C56   C     C_1   0.658416 0.165963 0.992911 -0.005988
C57   C     C_1   0.658609 0.834162 0.992930 -0.010746
C58   C     C_1   0.193702 0.696505 0.995362 0.018600
C59   C     C_1   0.193940 0.303644 0.995387 0.020422
C60   C     C_1   0.693719 0.196494 0.995366 0.021887
C61   C     C_1   0.693960 0.803657 0.995390 0.019512
C62   C     C_1   0.235993 0.732383 0.000479 0.008123
C63   C     C_1   0.236275 0.267790 0.000510 0.010312
C64   C     C_1   0.736008 0.232373 0.000480 0.010680
C65   C     C_R   0.872071 0.613319 0.934453 -0.090630
C66   C     C_1   0.736291 0.767801 0.000510 0.009307
C67   C     C_1   0.772028 0.263045 0.005219 0.009651
C68   C     C_1   0.772333 0.737139 0.005255 0.009024
C69   C     C_1   0.272015 0.763054 0.005221 0.007733
C70   C     C_1   0.272322 0.237131 0.005258 0.010194
C71   C     C_1   0.813566 0.299248 0.009765 0.018940
C72   C     C_1   0.813874 0.700935 0.009806 0.019225
C73   C     C_1   0.313557 0.799255 0.009768 0.017597
C74   C     C_1   0.313869 0.200930 0.009811 0.020579
C75   C     C_R   0.977706 0.463059 0.773646 -0.086267
C76   C     C_R   0.371966 0.886753 0.934434 -0.090228
C77   C     C_R   0.977713 0.536946 0.773652 -0.086276
C78   C     C_R   0.477704 0.963059 0.773645 -0.086941
C79   C     C_R   0.477711 0.036946 0.773651 -0.086339
C80   C     C_1   0.847515 0.330346 0.011212 -0.018339
C81   C     C_1   0.847800 0.669820 0.011255 -0.015369
C82   C     C_1   0.347510 0.830351 0.011216 -0.019395
C83   C     C_1   0.347799 0.169818 0.011261 -0.013403
C84   C     C_1   0.007553 0.500010 0.336261 0.002805
C85   C     C_1   0.507543 0.000009 0.336254 0.002874
C86   C     C_1   0.003028 0.500010 0.396583 0.023775
C87   C     C_R   0.372075 0.113321 0.934457 -0.090461
C88   C     C_1   0.503019 0.000009 0.396576 0.023828
C89   C     C_1   0.997028 0.500009 0.466795 0.011258
C90   C     C_1   0.497020 0.000009 0.466789 0.011011
C91   C     C_1   0.991899 0.500009 0.526670 0.011480
C92   C     C_1   0.491892 0.000008 0.526664 0.011017
C93   C     C_1   0.986458 0.500007 0.597297 0.019977
C94   C     C_1   0.486452 0.000007 0.597293 0.019414
C95   C     C_1   0.982919 0.500006 0.658336 -0.015986
C96   C     C_1   0.482914 0.000006 0.658333 -0.016624
C97   C     C_R   0.191413 0.535991 0.229312 0.445833
C98   C     C_R   0.944367 0.611335 0.076042 -0.087128
C99   C     C_R   0.191511 0.464056 0.229320 0.436533
C100  C     C_R   0.691401 0.035981 0.229360 0.353504
C101  C     C_R   0.691440 0.964043 0.229370 0.453767
C102  C     C_R   0.118158 0.370535 0.994103 0.023311
C103  C     C_R   0.118040 0.629545 0.994092 0.029226
C104  C     C_R   0.618175 0.870546 0.994106 0.024409
C105  C     C_R   0.618053 0.129537 0.994096 0.027427
C106  C     C_R   0.980728 0.500004 0.732590 0.060646
C107  C     C_R   0.480726 0.000004 0.732588 0.060786
C108  C     C_R   0.228909 0.500045 0.274229 -0.252689
Cl1   Cl    Cl    0.801541 0.588327 0.728094 -0.688356
Cl2   Cl    Cl    0.801541 0.411695 0.728058 -0.685502
Cl3   Cl    Cl    0.301427 0.088327 0.728107 -0.687851
Cl4   Cl    Cl    0.301408 0.911703 0.728058 -0.687877
H1    H     H_    0.164303 0.378498 0.128950 0.196139
H2    H     H_    0.442400 0.571945 0.443441 0.186583
H3    H     H_    0.942281 0.930228 0.426905 0.188692
H4    H     H_    0.941860 0.072166 0.462976 0.177355
H5    H     H_    0.562775 0.428277 0.525081 0.181228
H6    H     H_    0.562856 0.571797 0.523603 0.179869
H7    H     H_    0.062731 0.930383 0.507153 0.181261
H8    H     H_    0.062297 0.072116 0.542897 0.177090
H9    H     H_    0.440368 0.530165 0.558892 0.175174
H10   H     H_    0.440339 0.470948 0.559512 0.176940
H11   H     H_    0.940101 0.018910 0.565984 0.173179
H12   H     H_    0.164152 0.621603 0.128930 0.197739
H13   H     H_    0.940155 0.960438 0.551090 0.178392
H14   H     H_    0.560639 0.530083 0.639514 0.170252
H15   H     H_    0.560607 0.470975 0.640130 0.170780
H16   H     H_    0.060378 0.018814 0.646530 0.168421
H17   H     H_    0.060449 0.960449 0.631663 0.173846
H18   H     H_    0.033649 0.618296 0.860808 0.115344
H19   H     H_    0.033732 0.381748 0.860818 0.116094
H20   H     H_    0.533661 0.118292 0.860811 0.115603
H21   H     H_    0.533742 0.881752 0.860821 0.115468
H22   H     H_    0.971077 0.429366 0.752285 0.126430
H23   H     H_    0.664337 0.878522 0.128957 0.195821
H24   H     H_    0.971096 0.570641 0.752302 0.126174
H25   H     H_    0.471074 0.929366 0.752284 0.125766
H26   H     H_    0.471094 0.070641 0.752301 0.126317
H27   H     H_    0.021411 0.429455 0.244331 0.134003
H28   H     H_    0.021394 0.570563 0.244273 0.140577
H29   H     H_    0.521407 0.929455 0.244330 0.133729
H30   H     H_    0.521382 0.070562 0.244267 0.140525
H31   H     H_    0.834013 0.375418 0.871346 0.181038
H32   H     H_    0.834146 0.624678 0.871373 0.180461
H33   H     H_    0.334022 0.875410 0.871354 0.180909
H34   H     H_    0.664155 0.121587 0.128937 0.204402
H35   H     H_    0.334156 0.124688 0.871383 0.180619
H36   H     H_    0.972316 0.621801 0.141047 0.130731
H37   H     H_    0.971933 0.378334 0.141027 0.122302
H38   H     H_    0.472316 0.121799 0.141050 0.131567
H39   H     H_    0.471923 0.878340 0.141029 0.122007
H40   H     H_    0.563005 0.541799 0.442331 0.170058
H41   H     H_    0.562951 0.457594 0.443196 0.170527
H42   H     H_    0.062400 0.050904 0.454859 0.168560
H43   H     H_    0.062847 0.967750 0.434006 0.168594
H44   H     H_    0.259062 0.645065 0.314242 0.379225
H45   H     H_    0.442547 0.542102 0.362133 0.166841
H46   H     H_    0.126164 0.359371 0.254577 0.371773
H47   H     H_    0.803151 0.100764 0.321347 0.330766
H48   H     H_    0.625947 0.859345 0.254361 0.371600
H49   H     H_    0.442501 0.457346 0.363012 0.166009
H50   H     H_    0.941945 0.051167 0.374877 0.161778
H51   H     H_    0.942402 0.967472 0.353748 0.162311
H52   H     H_    0.442332 0.428188 0.444940 0.190105
N1    N     N_R   0.075400 0.419050 0.040930 -0.039131
N2    N     N_R   0.976800 0.523070 0.840160 -0.050449
N3    N     N_R   0.476800 0.976930 0.840160 -0.050484
N4    N     N_R   0.476800 0.023070 0.840160 -0.050551
N5    N     N_R   0.134210 0.520980 0.157560 -0.137460
N6    N     N_R   0.134210 0.479020 0.157560 -0.131485
N7    N     N_R   0.634210 0.020980 0.157560 -0.126598
N8    N     N_R   0.634210 0.979020 0.157560 -0.129930
N9    N     N_R   0.020160 0.476910 0.158980 -0.047633
N10   N     N_R   0.020160 0.523090 0.158980 -0.053346
N11   N     N_R   0.520160 0.976910 0.158980 -0.047639
N12   N     N_R   0.075400 0.580950 0.040930 -0.045199
N13   N     N_R   0.520160 0.023090 0.158980 -0.053464
N14   N     N_R   0.864590 0.520950 0.843300 -0.110093
N15   N     N_R   0.864590 0.479050 0.843300 -0.110304
N16   N     N_R   0.364590 0.020950 0.843300 -0.110140
N17   N     N_R   0.364590 0.979050 0.843300 -0.110267
N18   N     N_R   0.919150 0.419020 0.955970 -0.048991
N19   N     N_R   0.919150 0.580980 0.955970 -0.048445
N20   N     N_R   0.419150 0.919020 0.955970 -0.048934
N21   N     N_R   0.419150 0.080980 0.955970 -0.048483
N22   N     N_R   0.965610 0.578840 0.046310 -0.046434
N23   N     N_R   0.575400 0.919050 0.040930 -0.039663
N24   N     N_R   0.965610 0.421160 0.046310 -0.040857
N25   N     N_R   0.465610 0.078840 0.046310 -0.047449
N26   N     N_R   0.465610 0.921160 0.046310 -0.040820
N27   N     N_R   0.575400 0.080950 0.040930 -0.045916
N28   N     N_R   0.035610 0.578860 0.956800 -0.051047
N29   N     N_R   0.035610 0.421140 0.956800 -0.051372
N30   N     N_R   0.535610 0.078860 0.956800 -0.051087
N31   N     N_R   0.535610 0.921140 0.956800 -0.051270
N32   N     N_R   0.976800 0.476930 0.840160 -0.050578
Ni1   Ni    Ni4+2 0.047340 0.448440 0.099050 0.287052
Ni2   Ni    Ni4+2 0.047340 0.551560 0.099050 0.293950
Ni3   Ni    Ni4+2 0.547340 0.948440 0.099050 0.286694
Ni4   Ni    Ni4+2 0.547340 0.051560 0.099050 0.296829
Ni5   Ni    Ni4+2 0.950540 0.549450 0.900950 0.255619
Ni6   Ni    Ni4+2 0.950540 0.450550 0.900950 0.256373
Ni7   Ni    Ni4+2 0.450540 0.049450 0.900950 0.255626
Ni8   Ni    Ni4+2 0.450540 0.950550 0.900950 0.255668
O1    O     O_2   0.126289 0.610042 0.228406 -0.345942
O2    O     O_2   0.753823 0.886028 0.287017 -0.317667
O3    O     O_2   0.711696 0.923138 0.365009 -0.265649
O4    O     O_3   0.618739 0.886697 0.222162 -0.595409
O5    O     O_2   0.212496 0.576957 0.365399 -0.267363
O6    O     O_3   0.259792 0.617564 0.286756 -0.571145
O7    O     O_2   0.253944 0.386048 0.286914 -0.317437
O8    O     O_2   0.212017 0.423178 0.365102 -0.267289
O9    O     O_3   0.118902 0.386719 0.222346 -0.593647
O10   O     O_2   0.626271 0.109989 0.228536 -0.304843
O11   O     O_2   0.712390 0.077295 0.365498 -0.257346
O12   O     O_3   0.759318 0.118094 0.286678 -0.526173
S1    S     S_3+6 0.195490 0.586204 0.278412 -0.064679
S2    S     S_3+6 0.195870 0.413826 0.278532 -0.061588
S3    S     S_3+6 0.695526 0.086236 0.278480 -0.038440
S4    S     S_3+6 0.695696 0.913803 0.278501 -0.061184

loop_
_geom_bond_atom_site_label_1
_geom_bond_atom_site_label_2
_ccdc_geom_bond_type
C27   H41   S    
C66   C68   T    
N7    N8    A    
O4    S4    S    
N20   Ni8   S    
C55   C59   T    
C2    C18   A    
C5    N10   A    
C46   H13   S    
C36   C42   S    
C24   H49   S    
C11   N17   A    
C24   C27   S    
C14   C84   S    
C74   C83   T    
N16   Ni7   S    
C41   H21   S    
N14   N15   A    
C75   H22   S    
C87   N21   A    
C99   N6    A    
C40   N30   A    
N9    N10   A    
C16   C31   S    
C12   N25   A    
C39   N29   A    
C55   C102  S    
O1    S1    D    
O3    S4    D    
N7    Ni4   S    
O6    S1    S    
C87   H35   S    
N8    Ni3   S    
C38   H18   S    
C77   C106  A    
N29   Ni6   S    
C9    C16   A    
C84   C86   T    
O11   S3    D    
O10   S3    D    
C32   N23   A    
C3    C52   S    
N12   N28   A    
H48   O4    S    
C6    N11   A    
C10   C17   A    
C12   C22   A    
C26   H51   S    
C25   C30   S    
C97   N5    A    
C20   C76   A    
C101  N8    A    
C43   C105  A    
O7    S2    D    
C26   H3    S    
C39   C102  A    
C6    C15   A    
C97   C108  A    
C3    C100  A    
C44   H16   S    
C75   C106  A    
C100  S3    S    
C51   C108  S    
C49   C51   T    
N13   Ni4   S    
C70   C74   S    
C50   C52   T    
N28   Ni5   S    
O12   S3    S    
C69   C73   S    
C77   H24   S    
C79   N4    A    
C89   C91   T    
C67   C71   S    
C72   C81   T    
C9    N15   A    
C15   C85   S    
C75   N32   A    
C21   N12   A    
C2    H37   S    
C7    C15   A    
C54   H31   S    
C40   H20   S    
C43   N27   A    
C8    C16   A    
C31   C47   T    
C53   C103  S    
C100  N7    A    
C7    N13   A    
C30   H8    S    
C24   H52   S    
C1    H1    S    
C61   C66   S    
C92   C94   S    
C71   C80   T    
C19   C98   A    
C44   C46   S    
N26   Ni3   S    
C27   H5    S    
N10   Ni2   S    
C63   C70   T    
H44   O6    S    
N19   Ni5   S    
N5    N6    A    
C12   H38   S    
C28   C36   S    
N27   Ni4   S    
C13   H39   S    
N11   N13   A    
C25   H4    S    
N12   Ni2   S    
N3    N4    A    
C65   H32   S    
C42   H14   S    
N31   Ni8   S    
C98   H36   S    
C45   H9    S    
C44   H17   S    
C23   C28   S    
N9    Ni1   S    
C24   C34   S    
C13   N26   A    
C56   C60   T    
C30   C37   S    
N23   Ni3   S    
C78   C107  A    
H46   O9    S    
N2    Ni5   S    
N21   N25   A    
C64   C67   T    
C38   C103  A    
C99   C108  A    
C95   C106  S    
N1    Ni1   S    
C91   C93   S    
C29   H7    S    
C90   C92   T    
N15   Ni6   S    
C1    N1    A    
C25   H50   S    
C68   C72   S    
C23   C34   S    
C35   C50   S    
C54   N18   A    
C78   N3    A    
C79   C107  A    
C10   Cl3   S    
C17   C33   S    
C34   C45   S    
N18   N24   A    
N3    Ni8   S    
C6    H29   S    
C94   C96   T    
N11   Ni3   S    
C5    C14   A    
C58   C62   S    
C25   C35   S    
C42   H15   S    
N25   Ni4   S    
C96   C107  S    
C88   C90   S    
C76   H33   S    
C28   H40   S    
C38   N28   A    
C4    N9    A    
C99   S2    S    
C45   H10   S    
C97   S1    S    
C36   C47   S    
N19   N22   A    
N17   Ni8   S    
N1    N29   A    
N32   Ni6   S    
C76   N20   A    
C78   H25   S    
C73   C82   T    
C32   C104  A    
N16   N17   A    
C5    H28   S    
C23   H2    S    
C65   N19   A    
C85   C88   T    
C9    Cl2   S    
C57   C104  S    
C11   C17   A    
C34   C49   S    
H47   O12   S    
C13   C20   A    
N23   N31   A    
C11   Cl4   S    
N18   Ni6   S    
N2    N32   A    
C86   C89   S    
C22   C87   A    
C32   H23   S    
C53   C58   T    
C41   C104  A    
C57   C61   T    
C27   C36   S    
C59   C63   S    
N4    Ni7   S    
C29   H43   S    
C60   C64   S    
O9    S2    S    
O2    S4    D    
C22   C83   S    
N21   Ni7   S    
C21   H12   S    
C77   N2    A    
N27   N30   A    
C10   N16   A    
O5    S1    D    
C98   N22   A    
C43   H34   S    
C28   H6    S    
C8    Cl1   S    
C4    H27   S    
C37   C48   S    
C101  S4    S    
C3    C101  A    
C93   C95   T    
C39   H19   S    
N24   Ni1   S    
C37   C44   S    
N30   Ni7   S    
C23   H45   S    
C19   C65   A    
N20   N26   A    
N6    Ni1   S    
C4    C14   A    
C46   H11   S    
C2    N24   A    
C56   C105  S    
C18   C54   A    
C21   C103  A    
C8    N14   A    
C26   C35   S    
C30   H42   S    
C79   H26   S    
C62   C69   T    
C26   C29   S    
C18   C80   S    
C20   C82   S    
N14   Ni5   S    
C29   C37   S    
C33   C48   T    
N22   Ni2   S    
C41   N31   A    
C19   C81   S    
C35   C46   S    
C1    C102  A    
C42   C45   S    
C7    H30   S    
N5    Ni2   S    
O8    S2    D    
C40   C105  A    
