data_mof_unit_35582.cif
_audit_creation_date              2012-12-10T18:21:14-0500
_audit_creation_method            fapswitch 2.2
_symmetry_space_group_name_H-M    P1
_symmetry_Int_Tables_number       1
_space_group_crystal_system       triclinic
_cell_length_a                    9.435381
_cell_length_b                    10.621845
_cell_length_c                    17.303816
_cell_angle_alpha                 90.079587
_cell_angle_beta                  86.083981
_cell_angle_gamma                 89.861894
_cell_volume                      1730.15230411

loop_
_atom_site_label
_atom_site_type_symbol
_atom_type_description
_atom_site_fract_x
_atom_site_fract_y
_atom_site_fract_z
_atom_type_partial_charge
C1    C     C_R   0.499751 0.740546 0.500003 0.790344
C2    C     C_R   0.500249 0.259454 0.499997 0.790343
C3    C     C_3   0.365824 0.959703 0.495921 -0.127180
C4    C     C_3   0.634176 0.040297 0.504079 -0.127180
C5    C     C_3   0.447893 0.041980 0.434417 -0.157238
C6    C     C_3   0.552107 0.958020 0.565583 -0.157239
C7    C     C_3   0.500966 0.122442 0.499990 0.012988
C8    C     C_3   0.499034 0.877558 0.500010 0.012987
C9    C     C_3   0.419062 0.042424 0.561500 -0.172081
C10   C     C_3   0.580938 0.957576 0.438500 -0.172081
C11   C     C_3   0.946705 0.391971 0.522715 -0.086866
C12   C     C_3   0.053295 0.608029 0.477285 -0.086866
C13   C     C_3   0.042252 0.477950 0.568897 -0.086974
C14   C     C_3   0.957748 0.522050 0.431103 -0.086975
C15   C     C_3   0.055098 0.415351 0.454458 0.108166
C16   C     C_3   0.944902 0.584649 0.545542 0.108166
C17   C     C_R   0.481535 0.502647 0.649797 0.805051
C18   C     C_R   0.518465 0.497351 0.350203 0.805050
C19   C     C_R   0.472152 0.513144 0.734201 -0.059347
C20   C     C_R   0.527847 0.486844 0.265799 -0.059349
C21   C     C_R   0.590849 0.552797 0.771910 -0.226753
C22   C     C_R   0.409148 0.447191 0.228093 -0.226751
C23   C     C_R   0.583854 0.565037 0.852078 -0.001385
C24   C     C_R   0.416143 0.434936 0.147926 -0.001390
C25   C     C_R   0.457328 0.533116 0.896039 0.073359
C26   C     C_R   0.542671 0.466843 0.103963 0.073361
C27   C     C_R   0.336025 0.498109 0.857703 0.000622
C28   C     C_R   0.663977 0.501849 0.142296 0.000623
C29   C     C_R   0.344273 0.488352 0.777163 -0.234128
C30   C     C_R   0.655729 0.511621 0.222836 -0.234128
C31   C     C_2   0.451958 0.532299 0.981206 -0.203364
C32   C     C_2   0.548039 0.467654 0.018795 -0.203364
Cu1   Cu    Cu3+1 0.356850 0.500010 0.499980 0.949340
Cu2   Cu    Cu3+1 0.643150 0.499990 0.500020 0.949340
H1    H     H_    0.688832 0.576407 0.738793 0.172840
H2    H     H_    0.311164 0.423590 0.261210 0.172842
H3    H     H_    0.897735 0.301078 0.541382 0.123724
H4    H     H_    0.102265 0.698922 0.458618 0.123724
H5    H     H_    0.748643 0.540484 0.251886 0.149495
H6    H     H_    0.251360 0.459488 0.748111 0.149493
H7    H     H_    0.636104 0.420490 0.986874 0.171198
H8    H     H_    0.363894 0.579464 0.013127 0.171197
H9    H     H_    0.405940 0.079179 0.380577 0.158859
H10   H     H_    0.594060 0.920821 0.619422 0.158859
H11   H     H_    0.255807 0.924238 0.492575 0.139365
H12   H     H_    0.744193 0.075761 0.507425 0.139365
H13   H     H_    0.352903 0.080298 0.611796 0.137514
H14   H     H_    0.647097 0.919701 0.388204 0.137514
H15   H     H_    0.081659 0.460112 0.626877 0.125076
H16   H     H_    0.918341 0.539888 0.373123 0.125076
N1    N     N_3   0.141720 0.500030 0.499940 -0.174978
N2    N     N_3   0.858280 0.499970 0.500060 -0.174978
O1    O     O_R   0.379130 0.683150 0.499960 -0.590038
O2    O     O_R   0.620870 0.316850 0.500040 -0.590039
O3    O     O_R   0.620910 0.683140 0.500000 -0.575084
O4    O     O_R   0.379090 0.316860 0.500000 -0.575085
O5    O     O_R   0.365090 0.500030 0.613580 -0.589973
O6    O     O_R   0.634910 0.499970 0.386420 -0.589974
O7    O     O_R   0.606870 0.500020 0.613610 -0.581936
O8    O     O_R   0.393130 0.499980 0.386390 -0.581937
C33   C     C_1   0.119847 0.318856 0.402613 0.245172
N3    N     N_1   0.170541 0.242508 0.361677 -0.322756
C34   C     C_1   0.880153 0.681144 0.597388 0.245174
N4    N     N_1   0.829458 0.757491 0.638324 -0.322756
C35   C     C_1   0.202642 0.468272 0.899425 0.248346
N5    N     N_1   0.095179 0.444222 0.932199 -0.224828
C36   C     C_1   0.797365 0.531663 0.100573 0.248344
N6    N     N_1   0.904831 0.555693 0.067797 -0.224827
C37   C     C_1   0.293934 0.383904 0.112935 0.244859
N7    N     N_1   0.195861 0.342430 0.085425 -0.241398
C38   C     C_1   0.706063 0.616065 0.887072 0.244859
N8    N     N_1   0.804135 0.657534 0.914585 -0.241407

loop_
_geom_bond_atom_site_label_1
_geom_bond_atom_site_label_2
_ccdc_geom_bond_type
C25   C31   S    
C26   C32   S    
C31   H8    S    
C27   C29   A    
C1    C8    S    
C2    C7    S    
C6    C9    S    
C20   C30   A    
C3    C9    S    
C19   C21   A    
C24   C26   A    
C4    H12   S    
C11   H3    S    
C1    O1    A    
C11   N2    S    
C13   N1    S    
C11   C15   S    
C18   O6    A    
C14   N2    S    
C12   C16   S    
C32   H7    S    
C16   C34   S    
C15   N1    S    
Cu1   O4    S    
C5    H9    S    
Cu2   O3    S    
C6    H10   S    
C33   N3    T    
C4    C7    S    
C24   C37   S    
Cu1   O1    S    
C36   N6    T    
C23   C38   S    
C28   C36   S    
C4    C6    S    
C3    C8    S    
C2    O2    A    
C5    C7    S    
C6    C8    S    
C3    H11   S    
C27   C35   S    
C31   C32   D    
Cu1   Cu2   S    
C15   C33   S    
C17   O7    A    
C13   H15   S    
C18   O8    A    
C20   C22   A    
Cu2   O2    S    
Cu1   O8    S    
C21   C23   A    
C10   H14   S    
Cu2   O7    S    
C22   C24   A    
C25   C27   A    
C4    C10   S    
C19   C29   A    
C12   N1    S    
C7    C9    S    
Cu1   O5    S    
Cu2   N2    S    
C16   N2    S    
C12   C14   S    
C3    C5    S    
C9    H13   S    
C21   H1    S    
Cu1   N1    S    
C22   H2    S    
C26   C28   A    
C28   C30   A    
C1    O3    A    
C5    C10   S    
C2    O4    A    
C11   C13   S    
C14   H16   S    
C29   H6    S    
C17   C19   S    
C30   H5    S    
C18   C20   S    
C23   C25   A    
C12   H4    S    
C37   N7    T    
C34   N4    T    
C38   N8    T    
C8    C10   S    
C35   N5    T    
C13   C16   S    
Cu2   O6    S    
C14   C15   S    
C17   O5    A    
