data_mof_unit_47947.cif
_audit_creation_date              2012-12-10T18:52:58-0500
_audit_creation_method            fapswitch 2.2
_symmetry_space_group_name_H-M    P1
_symmetry_Int_Tables_number       1
_space_group_crystal_system       triclinic
_cell_length_a                    9.902319
_cell_length_b                    10.645756
_cell_length_c                    16.88319
_cell_angle_alpha                 90.635814
_cell_angle_beta                  84.124922
_cell_angle_gamma                 90.240135
_cell_volume                      1770.32077913

loop_
_atom_site_label
_atom_site_type_symbol
_atom_type_description
_atom_site_fract_x
_atom_site_fract_y
_atom_site_fract_z
_atom_type_partial_charge
C1    C     C_R   0.500508 0.739554 0.498383 0.920266
C2    C     C_R   0.499493 0.260446 0.501612 0.920294
C3    C     C_R   0.595238 0.938265 0.444728 0.477396
C4    C     C_R   0.404766 0.061735 0.555268 0.477395
C5    C     C_R   0.594992 0.067004 0.450010 -0.202961
C6    C     C_R   0.405009 0.932997 0.549985 -0.202990
C7    C     C_R   0.499715 0.128025 0.503556 -0.213737
C8    C     C_R   0.500286 0.871975 0.496439 -0.213795
C9    C     C_R   0.934643 0.427773 0.446374 0.524835
C10   C     C_R   0.065357 0.572226 0.553627 0.524826
C11   C     C_R   0.079911 0.429465 0.445065 -0.181706
C12   C     C_R   0.920089 0.570535 0.554935 -0.181719
C13   C     C_R   0.479694 0.496759 0.652659 1.008717
C14   C     C_R   0.520306 0.503221 0.347342 1.008815
C15   C     C_R   0.461533 0.483443 0.738688 -0.235766
C16   C     C_R   0.538459 0.516391 0.261306 -0.235696
C17   C     C_R   0.532737 0.390030 0.776418 -0.208059
C18   C     C_R   0.467300 0.609765 0.223516 -0.208043
C19   C     C_R   0.513623 0.381640 0.859825 0.370655
C20   C     C_R   0.486346 0.617955 0.140099 0.370679
C21   C     C_R   0.429004 0.468507 0.903565 -0.087331
C22   C     C_R   0.570859 0.530942 0.096414 -0.087406
C23   C     C_R   0.350826 0.555956 0.865941 0.318824
C24   C     C_R   0.648987 0.443518 0.134091 0.318828
C25   C     C_R   0.368303 0.563610 0.782629 0.413852
C26   C     C_R   0.631575 0.436058 0.217413 0.413857
C27   C     C_2   0.441067 0.479954 0.988253 -0.020581
C28   C     C_2   0.558810 0.519405 0.011731 -0.020783
H1    H     H_    0.646130 0.538590 0.969044 0.154234
H2    H     H_    0.353747 0.460782 0.030943 0.154151
H3    H     H_    0.666209 0.119906 0.410021 0.215877
H4    H     H_    0.333792 0.880095 0.589974 0.215865
N1    N     N_R   0.142790 0.500030 0.500020 -0.153071
N2    N     N_R   0.857210 0.499970 0.499980 -0.153072
O1    O     O_R   0.385380 0.683250 0.500010 -0.543230
O2    O     O_R   0.614620 0.316750 0.499990 -0.543164
O3    O     O_R   0.614710 0.683220 0.500000 -0.672045
O4    O     O_R   0.385290 0.316780 0.500000 -0.672066
O5    O     O_R   0.371780 0.500040 0.615800 -0.540143
O6    O     O_R   0.628220 0.499960 0.384200 -0.540153
O7    O     O_R   0.601110 0.500010 0.615800 -0.630211
O8    O     O_R   0.398890 0.499990 0.384200 -0.630210
Zn1   Zn    Zn3+2 0.346870 0.500020 0.500000 1.037611
Zn2   Zn    Zn3+2 0.653130 0.499980 0.500000 1.037631
C29   C     C_2   0.630632 0.304353 0.730582 0.472524
H5    H     H_    0.727130 0.283659 0.752711 0.096108
O9    O     O_2   0.602531 0.252516 0.669605 -0.589619
C30   C     C_2   0.369513 0.695603 0.269305 0.472511
H6    H     H_    0.273065 0.716412 0.247149 0.096153
O10   O     O_2   0.397647 0.747431 0.330279 -0.589656
O11   O     O_3   0.698961 0.347277 0.257961 -0.703782
H7    H     H_    0.763956 0.299743 0.220706 0.402680
O12   O     O_3   0.300864 0.652429 0.742142 -0.703683
H8    H     H_    0.235682 0.699733 0.779412 0.402704
O13   O     O_3   0.263860 0.639950 0.908259 -0.730707
H9    H     H_    0.246233 0.613950 0.964400 0.366360
O14   O     O_3   0.735861 0.359388 0.091828 -0.730793
H10   H     H_    0.753391 0.385200 0.035647 0.366443
O15   O     O_3   0.422031 0.707320 0.098309 -0.736362
H11   H     H_    0.397508 0.780832 0.133052 0.343501
O16   O     O_3   0.577979 0.292227 0.901557 -0.736485
H12   H     H_    0.602700 0.218844 0.866742 0.343518
O17   O     O_3   0.686411 0.882433 0.387668 -0.728328
H13   H     H_    0.654571 0.796896 0.375440 0.359427
O18   O     O_3   0.313601 0.117569 0.612331 -0.728341
H14   H     H_    0.345454 0.203099 0.624565 0.359385
O19   O     O_3   0.867694 0.352765 0.395793 -0.667916
H15   H     H_    0.925033 0.279614 0.378567 0.341854
O20   O     O_3   0.132307 0.647233 0.604208 -0.667961
H16   H     H_    0.074965 0.720379 0.621440 0.341851
C31   C     C_2   0.162950 0.360043 0.381525 0.459619
H17   H     H_    0.246299 0.301894 0.394969 0.114544
O21   O     O_2   0.139302 0.368544 0.312201 -0.553183
C32   C     C_2   0.837049 0.639957 0.618474 0.459617
H18   H     H_    0.753709 0.698115 0.605028 0.114556
O22   O     O_2   0.860688 0.631447 0.687800 -0.553211

loop_
_geom_bond_atom_site_label_1
_geom_bond_atom_site_label_2
_ccdc_geom_bond_type
C5    H3    S    
C6    H4    S    
O13   H9    S    
C9    O19   S    
C23   O13   S    
O11   H7    S    
C11   N1    A    
C12   C32   S    
C1    C8    S    
O1    Zn1   S    
C2    O4    A    
C18   C20   A    
C2    C7    S    
C13   C15   S    
C1    O3    A    
C14   O8    A    
C2    O2    A    
O3    Zn2   S    
C13   O7    A    
C21   C27   S    
N2    Zn2   S    
O15   H11   S    
C16   C18   A    
C22   C28   S    
C26   O11   S    
C20   O15   S    
C9    C11   A    
C24   C26   A    
O14   H10   S    
O20   H16   S    
C32   O22   D    
C3    O17   S    
C19   O16   S    
C4    C7    A    
C6    C8    A    
C15   C17   A    
C10   C12   A    
C22   C24   A    
C30   O10   D    
C30   H6    S    
C19   C21   A    
C20   C22   A    
C9    N2    A    
C3    C8    A    
C10   N1    A    
C11   C31   S    
C29   O9    D    
C21   C23   A    
C16   C26   A    
O16   H12   S    
O7    Zn2   S    
C14   C16   S    
O2    Zn2   S    
C13   O5    A    
C32   H18   S    
C14   O6    A    
O19   H15   S    
N1    Zn1   S    
C10   O20   S    
C3    C5    A    
C24   O14   S    
O6    Zn2   S    
C23   C25   A    
C31   H17   S    
C1    O1    A    
C15   C25   A    
C4    C6    A    
O18   H14   S    
O8    Zn1   S    
C31   O21   D    
C27   C28   D    
C5    C7    A    
C4    O18   S    
C28   H1    S    
O5    Zn1   S    
C17   C19   A    
C29   H5    S    
C12   N2    A    
O4    Zn1   S    
C17   C29   S    
O12   H8    S    
C25   O12   S    
O17   H13   S    
C27   H2    S    
C18   C30   S    
