data_mof_unit_47609.cif
_audit_creation_date              2012-12-10T18:05:40-0500
_audit_creation_method            fapswitch 2.2
_symmetry_space_group_name_H-M    P1
_symmetry_Int_Tables_number       1
_space_group_crystal_system       triclinic
_cell_length_a                    10.850954
_cell_length_b                    10.846424
_cell_length_c                    9.503683
_cell_angle_alpha                 90.377795
_cell_angle_beta                  90.385559
_cell_angle_gamma                 90.013186
_cell_volume                      1118.47723999

loop_
_atom_site_label
_atom_site_type_symbol
_atom_type_description
_atom_site_fract_x
_atom_site_fract_y
_atom_site_fract_z
_atom_type_partial_charge
C1    C     C_R   0.497817 0.262145 0.499251 0.824269
C2    C     C_R   0.502183 0.737855 0.500749 0.824268
C3    C     C_R   0.871672 0.495773 0.502238 -0.080870
C4    C     C_R   0.128328 0.504227 0.497762 -0.080871
C5    C     C_R   0.939901 0.451580 0.618566 0.012835
C6    C     C_R   0.060099 0.548420 0.381433 0.012835
C7    C     C_R   0.457617 0.060945 0.378649 0.175724
C8    C     C_R   0.542383 0.939054 0.621351 0.175724
C9    C     C_R   0.462124 0.933132 0.381552 -0.300555
C10   C     C_R   0.537876 0.066868 0.618448 -0.300554
C11   C     C_R   0.503027 0.871685 0.502042 -0.044866
C12   C     C_R   0.496973 0.128315 0.497958 -0.044866
C13   C     C_R   0.427161 0.419874 0.073270 -0.012558
C14   C     C_R   0.572839 0.580126 0.926730 -0.012562
C15   C     C_R   0.427324 0.419767 0.924355 -0.039250
C16   C     C_R   0.572676 0.580233 0.075644 -0.039254
C17   C     C_R   0.262191 0.502815 0.499236 0.793574
C18   C     C_R   0.737809 0.497185 0.500764 0.793575
C19   C     C_R   0.218048 0.773507 0.139326 -0.134047
C20   C     C_R   0.781955 0.226490 0.860672 -0.134053
C21   C     C_R   0.167676 0.721608 0.260420 -0.175285
C22   C     C_R   0.832328 0.278390 0.739579 -0.175288
C23   C     C_R   0.117510 0.602457 0.255400 0.138738
C24   C     C_R   0.882490 0.397543 0.744599 0.138738
C25   C     C_R   0.118627 0.535767 0.128544 -0.194608
C26   C     C_R   0.881368 0.464233 0.871454 -0.194606
C27   C     C_R   0.169928 0.587343 0.008027 -0.180247
C28   C     C_R   0.830067 0.412657 0.991970 -0.180244
C29   C     C_R   0.220455 0.706541 0.012751 0.242512
C30   C     C_R   0.779543 0.293458 0.987247 0.242515
C31   C     C_R   0.932453 0.543409 0.385221 -0.246592
C32   C     C_R   0.067547 0.456590 0.614779 -0.246595
Cu1   Cu    Cu3+1 0.500000 0.500020 0.640660 0.944544
Cu2   Cu    Cu3+1 0.500000 0.499980 0.359340 0.944543
H1    H     H_    0.368722 0.355854 0.867228 0.119861
H2    H     H_    0.631277 0.644146 0.132771 0.119862
H3    H     H_    0.254581 0.866288 0.143393 0.120566
H4    H     H_    0.745425 0.133708 0.856605 0.120566
H5    H     H_    0.166649 0.774498 0.357483 0.123781
H6    H     H_    0.833358 0.225498 0.642517 0.123784
H7    H     H_    0.080399 0.443597 0.123335 0.142904
H8    H     H_    0.919593 0.556405 0.876663 0.142902
H9    H     H_    0.170669 0.534199 0.911435 0.129274
H10   H     H_    0.829322 0.465802 0.088562 0.129273
H11   H     H_    0.880268 0.580327 0.297421 0.148166
H12   H     H_    0.119732 0.419672 0.702578 0.148166
H13   H     H_    0.432065 0.881940 0.289444 0.159438
H14   H     H_    0.567936 0.118060 0.710556 0.159438
H15   H     H_    0.368254 0.356279 0.128491 0.143044
H16   H     H_    0.631746 0.643721 0.871509 0.143044
N1    N     N_R   0.500030 0.500030 0.852070 -0.157313
N2    N     N_R   0.499970 0.499970 0.147930 -0.157314
O1    O     O_R   0.499990 0.319660 0.618740 -0.595765
O2    O     O_R   0.500010 0.680340 0.381260 -0.595765
O3    O     O_R   0.499990 0.319630 0.381170 -0.559412
O4    O     O_R   0.500010 0.680370 0.618830 -0.559411
O5    O     O_R   0.319650 0.500020 0.618780 -0.604487
O6    O     O_R   0.680350 0.499980 0.381220 -0.604489
O7    O     O_R   0.319640 0.500000 0.381210 -0.567489
O8    O     O_R   0.680360 0.500000 0.618790 -0.567489
N3    N     N_3   0.273371 0.761247 0.890154 -0.599287
H17   H     H_    0.367675 0.771718 0.909755 0.218581
H18   H     H_    0.265093 0.701426 0.803872 0.236880
N4    N     N_3   0.726626 0.238751 0.109842 -0.599285
H19   H     H_    0.632324 0.228267 0.090234 0.218574
H20   H     H_    0.734890 0.298579 0.196121 0.236884
N5    N     N_3   0.409699 0.121137 0.256126 -0.594727
H21   H     H_    0.461444 0.092659 0.169392 0.207714
H22   H     H_    0.319057 0.091197 0.240072 0.204960
N6    N     N_3   0.590300 0.878863 0.743874 -0.594728
H23   H     H_    0.538554 0.907340 0.830608 0.207716
H24   H     H_    0.680941 0.908803 0.759930 0.204959

loop_
_geom_bond_atom_site_label_1
_geom_bond_atom_site_label_2
_ccdc_geom_bond_type
C17   O5    A    
Cu1   O5    S    
C28   C30   A    
C9    H13   S    
N6    H23   S    
C1    O1    A    
C30   N4    S    
Cu1   N1    S    
C13   N2    A    
C20   H4    S    
C8    N6    S    
Cu2   N2    S    
C14   N1    A    
C21   H5    S    
C15   N1    A    
C5    C32   A    
C22   H6    S    
N4    H19   S    
N3    H17   S    
Cu1   O4    S    
C21   C23   A    
C6    C31   A    
C1    O3    A    
Cu2   O3    S    
C29   N3    S    
C14   H16   S    
C20   C30   A    
C3    C31   A    
C9    C11   A    
C4    C32   A    
C1    C12   S    
C10   C12   A    
C17   O7    A    
C8    C11   A    
C13   H15   S    
C2    C11   S    
C18   O8    A    
C19   C21   A    
C20   C22   A    
Cu2   O2    S    
Cu1   O8    S    
C22   C24   A    
C13   C15   A    
C10   H14   S    
Cu2   O7    S    
C8    C10   A    
C14   C16   A    
C7    C12   A    
C2    O2    A    
C4    C6    A    
C27   C29   A    
C32   H12   S    
C4    C17   S    
C7    N5    S    
N5    H21   S    
C19   C29   A    
C27   H9    S    
C23   C25   A    
Cu1   Cu2   S    
Cu1   O1    S    
C26   H8    S    
C3    C18   S    
Cu2   O6    S    
C25   H7    S    
C31   H11   S    
C15   H1    S    
N3    H18   S    
C7    C9    A    
C5    C24   S    
N6    H24   S    
C19   H3    S    
C3    C5    A    
C6    C23   S    
C26   C28   A    
C28   H10   S    
C2    O4    A    
C16   H2    S    
C16   N2    A    
C24   C26   A    
C18   O6    A    
N5    H22   S    
C25   C27   A    
N4    H20   S    
