data_mof_unit_28080.cif
_audit_creation_date              2012-12-11T14:30:22-0500
_audit_creation_method            fapswitch 2.2
_symmetry_space_group_name_H-M    P1
_symmetry_Int_Tables_number       1
_space_group_crystal_system       triclinic
_cell_length_a                    12.63574
_cell_length_b                    12.638006
_cell_length_c                    27.069456
_cell_angle_alpha                 90.000378
_cell_angle_beta                  89.999615
_cell_angle_gamma                 120.001138
_cell_volume                      3743.55672064

loop_
_atom_site_label
_atom_site_type_symbol
_atom_type_description
_atom_site_fract_x
_atom_site_fract_y
_atom_site_fract_z
_atom_type_partial_charge
C1    C     C_R   0.557571 0.456312 0.822165 0.562730
C2    C     C_R   0.456216 0.557429 0.177848 0.562631
C3    C     C_R   0.992989 0.309139 0.473037 -0.120406
C4    C     C_R   0.314474 0.003442 0.026055 -0.117689
C5    C     C_R   0.687687 0.687119 0.473944 -0.117964
C6    C     C_R   0.318093 0.011390 0.525158 -0.117818
C7    C     C_R   0.983488 0.303816 0.975854 -0.114326
C8    C     C_R   0.692217 0.683232 0.525112 -0.118958
C9    C     C_R   0.318225 0.011658 0.974868 -0.117818
C10   C     C_R   0.983695 0.303918 0.524165 -0.114307
C11   C     C_R   0.692317 0.683136 0.974908 -0.118961
C12   C     C_R   0.442587 0.898799 0.322212 0.562303
C13   C     C_R   0.100913 0.543675 0.177956 0.562350
C14   C     C_R   0.990092 0.500096 0.974723 0.044244
C15   C     C_R   0.508560 0.006367 0.526071 0.039959
C16   C     C_R   0.497668 0.491656 0.974138 0.045413
C17   C     C_R   0.990145 0.500126 0.525284 0.044236
C18   C     C_R   0.508552 0.006374 0.973932 0.039944
C19   C     C_R   0.497642 0.491674 0.525868 0.045410
C20   C     C_R   0.503882 0.996366 0.474114 0.043854
C21   C     C_R   0.898154 0.442027 0.677693 0.567223
C22   C     C_R   0.001702 0.506430 0.026556 0.045263
C23   C     C_R   0.491750 0.497005 0.474011 0.045091
C24   C     C_R   0.503891 0.996374 0.025889 0.043854
C25   C     C_R   0.001753 0.506451 0.473451 0.045259
C26   C     C_R   0.491770 0.496972 0.025996 0.045097
C27   C     C_R   0.997258 0.695782 0.974259 -0.130723
C28   C     C_R   0.698841 0.002736 0.526193 -0.122610
C29   C     C_R   0.303316 0.301651 0.973984 -0.131478
C30   C     C_R   0.997163 0.695743 0.525736 -0.130711
C31   C     C_R   0.698658 0.002407 0.973782 -0.122608
C32   C     C_R   0.543213 0.100052 0.821928 0.536777
C33   C     C_R   0.303362 0.301593 0.526008 -0.131466
C34   C     C_R   0.693940 0.992272 0.474822 -0.139908
C35   C     C_R   0.009564 0.702438 0.025525 -0.130846
C36   C     C_R   0.296937 0.307486 0.474738 -0.131059
C37   C     C_R   0.693787 0.991966 0.025154 -0.139954
C38   C     C_R   0.009464 0.702388 0.474469 -0.130840
C39   C     C_R   0.296883 0.307532 0.025255 -0.131067
C40   C     C_R   0.969156 0.583682 0.896247 0.085193
C41   C     C_R   0.609569 0.019265 0.604957 0.094567
C42   C     C_R   0.415007 0.385578 0.895866 0.085951
C43   C     C_R   0.557569 0.456310 0.677836 0.562724
C44   C     C_R   0.969124 0.583680 0.603753 0.085201
C45   C     C_R   0.609461 0.019117 0.895035 0.094566
C46   C     C_R   0.415019 0.385538 0.604132 0.085958
C47   C     C_R   0.584648 0.968025 0.396254 0.087508
C48   C     C_R   0.032074 0.616790 0.104137 0.086334
C49   C     C_R   0.382745 0.416071 0.396199 0.086364
C50   C     C_R   0.584622 0.967933 0.103737 0.087521
C51   C     C_R   0.032040 0.616762 0.395863 0.086327
C52   C     C_R   0.382715 0.416068 0.103800 0.086374
C53   C     C_R   0.043123 0.524003 0.128825 0.034912
C54   C     C_R   0.898150 0.442023 0.822308 0.567224
C55   C     C_R   0.480244 0.955930 0.371618 0.034595
C56   C     C_R   0.475422 0.520088 0.128442 0.034901
C57   C     C_R   0.043147 0.524003 0.371180 0.034921
C58   C     C_R   0.480276 0.955951 0.128387 0.034583
C59   C     C_R   0.475420 0.520123 0.371564 0.034911
C60   C     C_R   0.522127 0.041165 0.628906 0.006447
C61   C     C_R   0.952048 0.476863 0.872190 0.032568
C62   C     C_R   0.521204 0.475985 0.628320 0.034758
C63   C     C_R   0.522104 0.041156 0.871094 0.006432
C64   C     C_R   0.952075 0.476887 0.627815 0.032554
C65   C     C_R   0.543217 0.100059 0.678071 0.536862
C66   C     C_R   0.521223 0.475991 0.871684 0.034763
C67   C     C_R   0.986868 0.594784 0.948103 0.023925
C68   C     C_R   0.605972 0.008472 0.552693 0.044378
C69   C     C_R   0.403666 0.392750 0.947684 0.023829
C70   C     C_R   0.986845 0.594782 0.551898 0.023923
C71   C     C_R   0.605872 0.008326 0.947297 0.044458
C72   C     C_R   0.403676 0.392723 0.552315 0.023824
C73   C     C_R   0.595858 0.986991 0.448082 0.023791
C74   C     C_R   0.012923 0.608796 0.052384 0.023500
C75   C     C_R   0.390246 0.405120 0.448006 0.023523
C76   C     C_R   0.456215 0.557435 0.322153 0.562645
C77   C     C_R   0.595804 0.986864 0.051907 0.023789
C78   C     C_R   0.012896 0.608776 0.447616 0.023504
C79   C     C_R   0.390225 0.405122 0.051994 0.023520
C80   C     C_R   0.965682 0.389194 0.898883 -0.154855
C81   C     C_R   0.421048 0.027959 0.602137 -0.152742
C82   C     C_R   0.607010 0.579009 0.898053 -0.162723
C83   C     C_R   0.965792 0.389258 0.601130 -0.154824
C84   C     C_R   0.421093 0.028089 0.897876 -0.152695
C85   C     C_R   0.606949 0.579041 0.601960 -0.162715
C86   C     C_R   0.397308 0.978381 0.397503 -0.160721
C87   C     C_R   0.442593 0.898803 0.177789 0.562285
C88   C     C_R   0.019406 0.418004 0.103174 -0.160621
C89   C     C_R   0.580561 0.603394 0.397470 -0.160533
C90   C     C_R   0.397403 0.978514 0.102514 -0.160744
C91   C     C_R   0.019508 0.418037 0.396839 -0.160606
C92   C     C_R   0.580604 0.603308 0.102546 -0.160560
C93   C     C_R   0.981561 0.398367 0.949653 0.005783
C94   C     C_R   0.414629 0.013147 0.551295 0.005701
C95   C     C_R   0.598269 0.585790 0.948862 0.005431
C96   C     C_R   0.981686 0.398434 0.550361 0.005804
C97   C     C_R   0.414685 0.013288 0.948720 0.005682
C98   C     C_R   0.100916 0.543676 0.322045 0.562357
C99   C     C_R   0.598205 0.585839 0.551152 0.005440
C100  C     C_R   0.406064 0.994730 0.448339 0.006830
C101  C     C_R   0.002563 0.409991 0.052425 0.006381
C102  C     C_R   0.587825 0.595009 0.448296 0.006116
C103  C     C_R   0.406151 0.994869 0.051677 0.006838
C104  C     C_R   0.002682 0.410038 0.447588 0.006380
C105  C     C_R   0.587878 0.594929 0.051719 0.006127
C106  C     C_R   0.992787 0.309049 0.026982 -0.120420
C107  C     C_R   0.314327 0.003175 0.473971 -0.117677
C108  C     C_R   0.687783 0.687004 0.026078 -0.117981
Cr1   Cr    Cr6+3 0.487630 0.241180 0.750000 1.053227
Cr2   Cr    Cr6+3 0.753550 0.512370 0.750000 1.049836
Cr3   Cr    Cr6+3 0.758820 0.246450 0.750000 1.030976
Cr4   Cr    Cr6+3 0.241180 0.487630 0.250000 1.051804
Cr5   Cr    Cr6+3 0.512370 0.753550 0.250000 1.052111
Cr6   Cr    Cr6+3 0.246450 0.758820 0.250000 1.052116
H1    H     H_    0.017457 0.782350 0.043647 0.095877
H2    H     H_    0.776752 0.007187 0.955211 0.119854
H3    H     H_    0.995236 0.770395 0.544435 0.096351
H4    H     H_    0.229032 0.224493 0.955394 0.096629
H5    H     H_    0.023035 0.344341 0.122128 0.128549
H6    H     H_    0.319656 0.974184 0.378641 0.128053
H7    H     H_    0.654155 0.680873 0.121411 0.128630
H8    H     H_    0.023185 0.344393 0.377890 0.128552
H9    H     H_    0.319801 0.974402 0.121386 0.128040
H10   H     H_    0.654084 0.680998 0.378612 0.128663
H11   H     H_    0.350141 0.037795 0.620386 0.131146
H12   H     H_    0.767381 0.987237 0.456514 0.095283
H13   H     H_    0.955002 0.307903 0.880737 0.152273
H14   H     H_    0.686554 0.651029 0.620426 0.127651
H15   H     H_    0.350234 0.038020 0.879637 0.131171
H16   H     H_    0.955161 0.307991 0.619281 0.152287
H17   H     H_    0.686643 0.650976 0.879593 0.127672
H18   H     H_    0.994215 0.234962 0.046576 0.089308
H19   H     H_    0.238579 0.001518 0.454472 0.089694
H20   H     H_    0.761618 0.763023 0.045561 0.089929
H21   H     H_    0.994474 0.235075 0.453447 0.089278
H22   H     H_    0.238781 0.001880 0.045563 0.089710
H23   H     H_    0.217490 0.235074 0.043488 0.096022
H24   H     H_    0.761493 0.763174 0.454466 0.089935
H25   H     H_    0.245974 0.017483 0.544302 0.089494
H26   H     H_    0.976562 0.225143 0.956816 0.101977
H27   H     H_    0.770153 0.755600 0.544291 0.089930
H28   H     H_    0.246151 0.017846 0.955733 0.089509
H29   H     H_    0.976835 0.225279 0.543208 0.101908
H30   H     H_    0.770285 0.755482 0.955735 0.089953
H31   H     H_    0.116851 0.798944 0.117790 0.224325
H32   H     H_    0.962951 0.722868 0.127037 0.217258
H33   H     H_    0.683758 0.885113 0.382555 0.224027
H34   H     H_    0.017291 0.782267 0.456342 0.095862
H35   H     H_    0.759842 0.038875 0.373079 0.217421
H36   H     H_    0.200712 0.317741 0.117765 0.224697
H37   H     H_    0.277698 0.240694 0.126697 0.217209
H38   H     H_    0.116685 0.798906 0.382201 0.224279
H39   H     H_    0.962786 0.722713 0.372949 0.217287
H40   H     H_    0.683538 0.884824 0.117435 0.224093
H41   H     H_    0.759832 0.038613 0.126875 0.217392
H42   H     H_    0.200753 0.317634 0.382222 0.224666
H43   H     H_    0.277849 0.240695 0.373289 0.217242
H44   H     H_    0.701053 0.929672 0.620200 0.204654
H45   H     H_    0.767164 0.986794 0.043449 0.095296
H46   H     H_    0.671474 0.983774 0.669254 0.235015
H47   H     H_    0.895381 0.690488 0.881052 0.223311
H48   H     H_    0.049277 0.759350 0.872631 0.218587
H49   H     H_    0.310190 0.204465 0.618786 0.222877
H50   H     H_    0.239565 0.287582 0.627797 0.219805
H51   H     H_    0.700330 0.928983 0.879713 0.204795
H52   H     H_    0.671479 0.983851 0.830697 0.235197
H53   H     H_    0.895254 0.690411 0.618937 0.223326
H54   H     H_    0.049153 0.759346 0.627367 0.218560
H55   H     H_    0.310096 0.204525 0.881195 0.222844
H56   H     H_    0.217577 0.235002 0.456498 0.096022
H57   H     H_    0.239544 0.287713 0.872198 0.219831
H58   H     H_    0.777031 0.007687 0.544746 0.119659
H59   H     H_    0.995389 0.770458 0.955556 0.096363
H60   H     H_    0.229105 0.224401 0.544594 0.096628
N1    N     N_3   0.043037 0.718888 0.131663 -0.602807
N2    N     N_3   0.700427 0.007297 0.867190 -0.617783
N3    N     N_3   0.966129 0.678165 0.632084 -0.605795
N4    N     N_3   0.321342 0.286954 0.867701 -0.604782
N5    N     N_3   0.676268 0.958159 0.368611 -0.603186
N6    N     N_3   0.281169 0.324478 0.131439 -0.602968
N7    N     N_3   0.042917 0.718814 0.368329 -0.602835
N8    N     N_3   0.676201 0.957967 0.131367 -0.603160
N9    N     N_3   0.281245 0.324445 0.368552 -0.602997
N10   N     N_3   0.700667 0.007678 0.632808 -0.617440
N11   N     N_3   0.966231 0.678195 0.867911 -0.605813
N12   N     N_3   0.321387 0.286868 0.632288 -0.604755
O1    O     O_R   0.460870 0.120930 0.805240 -0.516890
O2    O     O_R   0.120930 0.460870 0.194760 -0.525094
O3    O     O_R   0.539130 0.660060 0.305240 -0.524916
O4    O     O_R   0.339940 0.879070 0.194760 -0.524514
O5    O     O_R   0.498910 0.350470 0.801870 -0.456990
O6    O     O_R   0.851560 0.501090 0.698130 -0.458474
O7    O     O_R   0.649530 0.148440 0.801870 -0.487244
O8    O     O_R   0.498910 0.350470 0.698130 -0.456976
O9    O     O_R   0.851560 0.501090 0.801870 -0.458482
O10   O     O_R   0.649530 0.148440 0.698130 -0.487070
O11   O     O_R   0.350470 0.498910 0.301870 -0.458284
O12   O     O_R   0.660060 0.539130 0.694760 -0.528719
O13   O     O_R   0.501090 0.851560 0.198130 -0.458368
O14   O     O_R   0.148440 0.649530 0.301870 -0.458429
O15   O     O_R   0.350470 0.498910 0.198130 -0.458272
O16   O     O_R   0.501090 0.851560 0.301870 -0.458374
O17   O     O_R   0.148440 0.649530 0.198130 -0.458416
O18   O     O_3   0.666667 0.333333 0.750000 -0.255526
O19   O     O_3   0.333333 0.666667 0.250000 -0.264412
O20   O     O_R   0.879070 0.339940 0.805240 -0.521270
O21   O     O_R   0.460870 0.120930 0.694760 -0.516903
O22   O     O_R   0.660060 0.539130 0.805240 -0.528730
O23   O     O_R   0.879070 0.339940 0.694760 -0.521201
O24   O     O_R   0.120930 0.460870 0.305240 -0.525109
O25   O     O_R   0.539130 0.660060 0.194760 -0.524903
O26   O     O_R   0.339940 0.879070 0.305240 -0.524531

loop_
_geom_bond_atom_site_label_1
_geom_bond_atom_site_label_2
_ccdc_geom_bond_type
C3    C104  A    
C39   H23   S    
C35   C74   A    
Cr6   O4    S    
C89   C102  A    
Cr2   O12   S    
C90   H9    S    
Cr4   O11   S    
C87   O13   A    
C91   C104  A    
C58   C87   S    
C27   H59   S    
C15   C94   A    
C52   N6    S    
C88   C101  A    
H41   N8    S    
C5    H24   S    
C64   C83   A    
C44   C64   A    
H51   N2    S    
C106  H18   S    
C98   O24   A    
C39   C79   A    
C2    O25   A    
C22   C101  A    
C46   C62   A    
H49   N12   S    
C18   C24   A    
C84   C97   A    
H36   N6    S    
C28   C68   A    
C8    C99   A    
Cr1   O5    S    
Cr4   O19   S    
H50   N12   S    
C76   O11   A    
C7    H26   S    
C23   C102  A    
C45   C71   A    
C83   C96   A    
C61   C80   A    
H54   N3    S    
H53   N3    S    
C4    C103  A    
C84   H15   S    
H35   N5    S    
C33   C36   A    
C30   C38   A    
Cr2   O18   S    
C59   C89   A    
Cr6   O26   S    
C6    H25   S    
Cr1   O21   S    
C1    O22   A    
C21   C64   S    
H47   N11   S    
C76   O3    A    
C33   C72   A    
C49   N9    S    
C28   H58   S    
H31   N1    S    
C6    C94   A    
C91   H8    S    
C47   N5    S    
C14   C67   A    
C49   C75   A    
C41   N10   S    
C44   C70   A    
C8    H27   S    
C51   C57   A    
C18   C97   A    
C12   O16   A    
C53   C88   A    
C52   C79   A    
C86   C100  A    
C11   H30   S    
C14   C93   A    
C46   C72   A    
C34   H12   S    
Cr3   O10   S    
C4    H22   S    
C48   N1    S    
C11   C108  A    
C31   C71   A    
C28   C34   A    
C17   C70   A    
C13   O2    A    
Cr6   O14   S    
C19   C72   A    
C50   N8    S    
C2    O15   A    
Cr4   O15   S    
C26   C105  A    
C30   C70   A    
H42   N9    S    
C41   C68   A    
C29   C69   A    
C16   C26   A    
C15   C20   A    
C7    C93   A    
C62   C85   A    
C54   O20   A    
C25   C78   A    
C50   C58   A    
C48   C74   A    
C47   C73   A    
C83   H16   S    
C45   N2    S    
C19   C99   A    
C21   O6    A    
C40   N11   S    
C38   C78   A    
C27   C35   A    
Cr5   O16   S    
C37   C77   A    
C45   C63   A    
C42   C69   A    
Cr1   O1    S    
C40   C61   A    
C13   O17   A    
Cr5   O19   S    
Cr3   O18   S    
C19   C23   A    
Cr3   O23   S    
C13   C53   S    
C108  H20   S    
C85   C99   A    
C36   C75   A    
H33   N5    S    
C66   C82   A    
C89   H10   S    
C60   C81   A    
C24   C77   A    
Cr5   O25   S    
C20   C100  A    
C10   C96   A    
C6    C107  A    
C38   H34   S    
H32   N1    S    
C29   C39   A    
C1    C66   S    
Cr5   O13   S    
C7    C106  A    
Cr1   O8    S    
H57   N4    S    
C17   C96   A    
C105  C108  A    
C46   N12   S    
C88   H5    S    
C35   H1    S    
C33   H60   S    
C58   C90   A    
Cr3   O20   S    
C12   O26   A    
Cr3   O7    S    
C87   O4    A    
C1    O5    A    
C80   H13   S    
H39   N7    S    
C60   C65   S    
C43   O8    A    
C5    C8    A    
C22   C74   A    
C50   C77   A    
C31   H2    S    
C101  C106  A    
C40   C67   A    
C47   C55   A    
C11   C95   A    
C18   C71   A    
C5    C102  A    
C100  C107  A    
C9    C97   A    
C54   O9    A    
C57   C91   A    
C32   O1    A    
C81   H11   S    
C36   H56   S    
C82   H17   S    
Cr1   O18   S    
C16   C69   A    
C41   C60   A    
C23   C75   A    
C32   O7    A    
C51   N7    S    
C54   C61   S    
C44   N3    S    
Cr4   O2    S    
H48   N11   S    
Cr2   O22   S    
C9    H28   S    
C25   C104  A    
C65   O21   A    
C30   H3    S    
C82   C95   A    
C32   C63   S    
Cr5   O3    S    
C29   H4    S    
H52   N2    S    
C26   C79   A    
C49   C59   A    
Cr6   O19   S    
C98   O14   A    
C63   C84   A    
C24   C103  A    
C17   C25   A    
C65   O10   A    
C55   C86   A    
C80   C93   A    
C51   C78   A    
C107  H19   S    
C3    C10   A    
C2    C56   S    
C92   H7    S    
C81   C94   A    
C16   C95   A    
C14   C22   A    
H37   N6    S    
C52   C56   A    
H38   N7    S    
C42   N4    S    
C15   C68   A    
H40   N8    S    
Cr2   O6    S    
C48   C53   A    
C21   O23   A    
C20   C73   A    
C43   O12   A    
C3    H21   S    
C10   H29   S    
C57   C98   S    
C90   C103  A    
C12   C55   S    
C27   C67   A    
H55   N4    S    
C34   C73   A    
C31   C37   A    
C92   C105  A    
C56   C92   A    
Cr2   O9    S    
C42   C66   A    
Cr6   O17   S    
C85   H14   S    
C86   H6    S    
H43   N9    S    
C4    C9    A    
H44   N10   S    
C59   C76   S    
H46   N10   S    
C37   H45   S    
C43   C62   S    
Cr4   O24   S    
