data_mof_unit_44457.cif
_audit_creation_date              2012-12-10T17:32:58-0500
_audit_creation_method            fapswitch 2.2
_symmetry_space_group_name_H-M    P1
_symmetry_Int_Tables_number       1
_space_group_crystal_system       triclinic
_cell_length_a                    12.356293
_cell_length_b                    13.220364
_cell_length_c                    14.155428
_cell_angle_alpha                 92.553031
_cell_angle_beta                  108.0036
_cell_angle_gamma                 117.262465
_cell_volume                      1906.88568887

loop_
_atom_site_label
_atom_site_type_symbol
_atom_type_description
_atom_site_fract_x
_atom_site_fract_y
_atom_site_fract_z
_atom_type_partial_charge
C1    C     C_R   0.653076 0.714812 0.511766 0.860052
C2    C     C_R   0.819841 0.458459 0.914142 0.113340
C3    C     C_R   0.769081 0.472762 0.987703 0.155697
C4    C     C_R   0.916439 0.423380 0.938714 -0.013010
C5    C     C_R   0.983476 0.432414 0.042879 0.035093
C6    C     C_R   0.930173 0.446168 0.114717 -0.182111
C7    C     C_R   0.822026 0.462289 0.086502 -0.216624
C8    C     C_R   0.947076 0.377182 0.864367 0.307393
C9    C     C_R   0.055549 0.361221 0.893746 -0.219713
C10   C     C_R   0.134650 0.385705 0.996502 0.074308
C11   C     C_R   0.099788 0.424572 0.071777 0.059361
C12   C     C_R   0.617838 0.515412 0.687075 0.790925
C13   C     C_R   0.248541 0.373542 0.026684 0.028678
C14   C     C_R   0.329933 0.408430 0.129697 -0.233729
C15   C     C_R   0.185309 0.459959 0.173961 -0.225115
C16   C     C_R   0.090228 0.983487 0.316171 -0.135846
C17   C     C_R   0.237527 0.162228 0.446099 -0.138331
C18   C     C_R   0.761220 0.916555 0.605763 -0.200107
C19   C     C_R   0.853144 0.033911 0.627693 -0.150165
C20   C     C_R   0.934422 0.075955 0.572237 0.019475
C21   C     C_R   0.929805 0.995621 0.497829 0.022227
C22   C     C_R   0.819545 0.880831 0.463058 -0.019212
C23   C     C_R   0.342137 0.284848 0.480416 0.777263
C24   C     C_R   0.027522 0.024710 0.454589 0.091079
C25   C     C_R   0.000416 0.950890 0.365026 0.027886
C26   C     C_R   0.880391 0.848606 0.321140 -0.242119
C27   C     C_R   0.789455 0.813986 0.367902 0.368597
C28   C     C_R   0.152995 0.123042 0.499346 -0.137544
C29   C     C_R   0.205202 0.092115 0.352244 -0.009751
C30   C     C_R   0.742096 0.839370 0.523372 -0.079526
C31   C     C_R   0.254460 0.681434 0.665420 -0.282914
C32   C     C_R   0.655268 0.345709 0.360631 0.108199
C33   C     C_R   0.733187 0.314055 0.328200 -0.240375
C34   C     C_R   0.377842 0.478493 0.312513 0.858559
C35   C     C_R   0.868511 0.372655 0.380151 -0.149119
C36   C     C_R   0.928247 0.464491 0.465825 0.009896
C37   C     C_R   0.844054 0.494595 0.495840 0.316460
C38   C     C_R   0.067867 0.527806 0.522408 -0.023393
C39   C     C_R   0.119549 0.619039 0.607598 0.165858
C40   C     C_R   0.036667 0.648257 0.634501 -0.266220
C41   C     C_R   0.902602 0.588302 0.579528 -0.170228
C42   C     C_R   0.159622 0.504976 0.498946 0.081636
C43   C     C_R   0.338618 0.653599 0.639248 0.072573
C44   C     C_R   0.674313 0.509849 0.793231 -0.071598
C45   C     C_R   0.298746 0.451346 0.203405 -0.034410
C46   C     C_R   0.667793 0.499938 0.961935 -0.195552
C47   C     C_R   0.618169 0.515275 0.864214 -0.181257
C48   C     C_R   0.779367 0.488390 0.821122 -0.167918
Cu1   Cu    Cu3+1 0.416420 0.526630 0.522910 0.963072
Cu2   Cu    Cu3+1 0.583580 0.473370 0.477090 0.977625
H1    H     H_    0.783145 0.471295 0.143371 0.151349
H2    H     H_    0.855568 0.796387 0.248457 0.176213
H3    H     H_    0.065205 0.928255 0.245068 0.176952
H4    H     H_    0.184768 0.173788 0.574315 0.152903
H5    H     H_    0.703213 0.886127 0.652845 0.156297
H6    H     H_    0.858261 0.092895 0.686729 0.189065
H7    H     H_    0.442656 0.701159 0.684093 0.125171
H8    H     H_    0.167241 0.498266 0.232037 0.153013
H9    H     H_    0.076028 0.719029 0.698911 0.158406
H10   H     H_    0.294602 0.751257 0.730775 0.150498
H11   H     H_    0.129090 0.437925 0.434956 0.140907
H12   H     H_    0.551042 0.300513 0.318650 0.125257
H13   H     H_    0.923881 0.344597 0.351432 0.157238
H14   H     H_    0.688446 0.244056 0.262095 0.167248
H15   H     H_    0.848774 0.619395 0.605429 0.189677
H16   H     H_    0.416436 0.398902 0.152754 0.152518
H17   H     H_    0.077091 0.330480 0.833913 0.205156
H18   H     H_    0.626817 0.508870 0.017232 0.140380
H19   H     H_    0.536750 0.531907 0.844543 0.160476
H20   H     H_    0.831587 0.498694 0.770495 0.199228
H21   H     H_    0.967075 0.439958 0.192706 0.133752
N1    N     N_R   0.290690 0.566960 0.557640 -0.187640
N2    N     N_R   0.709100 0.433710 0.442970 -0.199077
O1    O     O_R   0.545970 0.684450 0.528810 -0.575762
O2    O     O_R   0.687130 0.639470 0.490120 -0.577548
O3    O     O_R   0.519670 0.535100 0.660030 -0.590229
O4    O     O_R   0.660830 0.490120 0.621340 -0.578937
O5    O     O_R   0.312870 0.360530 0.509880 -0.552517
O6    O     O_R   0.454030 0.315550 0.471190 -0.581341
O7    O     O_R   0.339170 0.509880 0.378660 -0.594812
O8    O     O_R   0.480330 0.464900 0.339970 -0.570821
C49   C     C_2   0.286853 0.322835 0.955737 0.332988
H22   H     H_    0.389900 0.353509 0.971782 0.074848
O9    O     O_2   0.205322 0.241468 0.883526 -0.558464
C50   C     C_2   0.280267 0.134483 0.285095 0.369720
H23   H     H_    0.334161 0.226739 0.287924 0.055570
O10   O     O_2   0.279137 0.066184 0.223288 -0.535113
C51   C     C_2   0.002915 0.204035 0.582659 0.377470
H24   H     H_    0.034832 0.261711 0.654417 0.106788
O11   O     O_2   0.017003 0.246047 0.509429 -0.561608
Cl1   Cl    Cl    0.630559 0.702235 0.291435 -0.645707
Cl2   Cl    Cl    0.840975 0.314550 0.735291 -0.668883

loop_
_geom_bond_atom_site_label_1
_geom_bond_atom_site_label_2
_ccdc_geom_bond_type
C19   H6    S    
C43   N1    A    
C17   C29   A    
C19   C20   A    
C4    C8    A    
Cu2   O6    S    
C50   H23   S    
C26   C27   A    
C17   C23   S    
C31   C43   A    
C1    O1    A    
C36   C37   A    
C5    C11   A    
C3    C7    A    
C5    C6    A    
Cu1   O5    S    
C18   C19   A    
C16   H3    S    
C47   H19   S    
C34   O7    A    
C11   C15   A    
C35   C36   A    
C8    C9    A    
Cu1   N1    S    
C27   Cl1   S    
C8    Cl2   S    
C34   O8    A    
C9    C10   A    
C29   C50   S    
C44   C47   A    
C40   H9    S    
C21   C22   A    
C14   C45   A    
C50   O10   D    
C6    H21   S    
C1    O2    A    
C24   C25   A    
Cu2   N2    S    
C32   N2    A    
C28   H4    S    
C41   H15   S    
C2    C48   A    
C25   C26   A    
C13   C49   S    
C31   H10   S    
C2    C4    A    
C9    H17   S    
C46   H18   S    
C26   H2    S    
C12   O4    A    
C42   N1    A    
C14   H16   S    
Cu1   O3    S    
C34   C45   S    
C20   C21   A    
C42   H11   S    
C18   H5    S    
C18   C30   A    
C40   C41   A    
C51   O11   D    
C49   H22   S    
C49   O9    D    
C22   C27   A    
C12   O3    A    
C15   H8    S    
C15   C45   A    
Cu2   O4    S    
C39   C40   A    
C16   C25   A    
C37   N2    A    
C46   C47   A    
C22   C30   A    
C17   C28   A    
C24   C28   A    
C48   H20   S    
C4    C5    A    
C10   C13   A    
C38   C42   A    
C6    C7    A    
C3    C46   A    
Cu1   O7    S    
C32   C33   A    
C36   C38   A    
C2    C3    A    
C16   C29   A    
C7    H1    S    
C12   C44   S    
Cu2   O2    S    
C38   C39   A    
C33   H14   S    
C20   C51   S    
C1    C30   S    
C33   C35   A    
C31   C39   A    
C23   O5    A    
C37   C41   A    
C10   C11   A    
C43   H7    S    
C32   H12   S    
C51   H24   S    
Cu1   Cu2   S    
C21   C24   A    
Cu1   O1    S    
C35   H13   S    
C23   O6    A    
C13   C14   A    
C44   C48   A    
Cu2   O8    S    
