data_mof_unit_38657.cif
_audit_creation_date              2012-12-11T15:23:42-0500
_audit_creation_method            fapswitch 2.2
_symmetry_space_group_name_H-M    P1
_symmetry_Int_Tables_number       1
_space_group_crystal_system       triclinic
_cell_length_a                    6.92758
_cell_length_b                    17.500056
_cell_length_c                    19.277867
_cell_angle_alpha                 109.474305
_cell_angle_beta                  90.190473
_cell_angle_gamma                 90.489675
_cell_volume                      2203.28291735

loop_
_atom_site_label
_atom_site_type_symbol
_atom_type_description
_atom_site_fract_x
_atom_site_fract_y
_atom_site_fract_z
_atom_type_partial_charge
O1    O     O_R   0.505810 0.439670 0.562310 -0.540308
O2    O     O_R   0.169070 0.404920 0.411210 -0.542488
O3    O     O_R   0.005550 0.560330 0.437690 -0.541119
C1    C     C_R   0.338653 0.381573 0.382967 0.678628
O4    O     O_R   0.175650 0.430000 0.560110 -0.538976
O5    O     O_R   0.012170 0.585580 0.587650 -0.524385
C2    C     C_R   0.344533 0.415044 0.581922 0.724253
O6    O     O_R   0.499180 0.414420 0.412350 -0.543023
O7    O     O_3   0.341430 0.551020 0.508860 -0.367410
V1    V     V_3+5 0.063930 0.490540 0.498360 1.423182
O8    O     O_R   0.682850 0.595080 0.588790 -0.544825
C3    C     C_R   0.852601 0.618009 0.617175 0.718859
O9    O     O_R   0.676280 0.570000 0.439890 -0.544386
C4    C     C_R   0.845075 0.585004 0.418146 0.698991
V2    V     V_3+5 0.564760 0.509460 0.501640 1.408797
O10   O     O_3   0.837130 0.448980 0.491140 -0.373148
C5    C     C_R   0.046053 0.871420 0.183202 -0.238732
C6    C     C_R   0.911668 0.859786 0.126039 -0.133180
C7    C     C_R   0.769089 0.797690 0.113372 -0.052942
C8    C     C_R   0.739378 0.759002 0.167303 0.010930
C9    C     C_R   0.883064 0.769345 0.222646 0.056068
C10   C     C_R   0.038191 0.824315 0.229204 0.118870
C11   C     C_R   0.572730 0.710629 0.168619 -0.010413
C12   C     C_R   0.565855 0.666859 0.218000 -0.173852
C13   C     C_R   0.714890 0.672512 0.268528 0.054375
C14   C     C_R   0.873351 0.724344 0.271518 0.071987
C15   C     C_R   0.022570 0.731220 0.323576 0.109936
C16   C     C_R   0.177147 0.784880 0.328137 -0.192819
C17   C     C_R   0.183194 0.831978 0.282235 -0.206679
C18   C     C_R   0.704847 0.628555 0.317585 -0.207517
C19   C     C_R   0.854776 0.633639 0.368288 -0.079755
C20   C     C_R   0.014097 0.684748 0.370565 -0.226377
H1    H     H_    0.159892 0.916517 0.191002 0.115692
H2    H     H_    0.439757 0.630028 0.218891 0.165967
H3    H     H_    0.581750 0.589085 0.315395 0.120052
H4    H     H_    0.129606 0.689562 0.409945 0.122418
H5    H     H_    0.292687 0.791003 0.367719 0.124612
H6    H     H_    0.303491 0.873541 0.287354 0.115674
C21   C     C_3   0.781996 0.812492 0.745918 -0.107003
C22   C     C_3   0.950822 0.772259 0.694299 -0.199089
H7    H     H_    0.002941 0.790408 0.647606 0.112253
H8    H     H_    0.696992 0.864788 0.742866 0.101896
C23   C     C_3   0.867292 0.688176 0.687863 -0.053601
C24   C     C_3   0.698297 0.727599 0.738732 -0.172446
C25   C     C_3   0.819257 0.727086 0.806575 -0.233007
C26   C     C_3   0.987208 0.688577 0.754927 0.476231
C27   C     C_3   0.073674 0.772208 0.761759 -0.198721
C28   C     C_3   0.903732 0.811216 0.812689 -0.058320
H9    H     H_    0.544297 0.709111 0.728450 0.132214
H10   H     H_    0.766766 0.708628 0.853056 0.135417
H11   H     H_    0.227565 0.791086 0.771429 0.106806
C29   C     C_3   0.557151 0.283071 0.277183 -0.167771
C30   C     C_3   0.494797 0.193730 0.262982 -0.169729
H12   H     H_    0.585916 0.147010 0.273805 0.103868
H13   H     H_    0.699912 0.309685 0.299314 0.117535
C31   C     C_3   0.413687 0.189575 0.187275 -0.015567
C32   C     C_3   0.473875 0.278029 0.201519 0.026092
C33   C     C_3   0.276184 0.307811 0.236549 -0.199878
C34   C     C_3   0.214434 0.218390 0.222386 -0.114447
C35   C     C_3   0.296098 0.223013 0.298658 -0.137959
C36   C     C_3   0.357650 0.311503 0.312018 -0.014821
H14   H     H_    0.185403 0.354586 0.225635 0.117134
H15   H     H_    0.071761 0.191876 0.200069 0.126122
H16   H     H_    0.220942 0.200470 0.338906 0.099824
C37   C     C_R   0.567215 0.135052 0.821312 -0.190882
C38   C     C_R   0.416785 0.136140 0.870290 -0.094086
C39   C     C_R   0.255103 0.184700 0.872170 -0.153290
C40   C     C_R   0.243467 0.232213 0.826240 0.099672
C41   C     C_R   0.392502 0.229650 0.776052 0.011836
C42   C     C_R   0.555635 0.180413 0.773235 0.021716
C43   C     C_R   0.085126 0.282680 0.830530 -0.079003
C44   C     C_R   0.069168 0.330619 0.784858 -0.039863
C45   C     C_R   0.214856 0.325666 0.731531 0.014992
C46   C     C_R   0.378126 0.276011 0.728595 0.086922
C47   C     C_R   0.528442 0.272934 0.678419 0.062578
C48   C     C_R   0.689467 0.224156 0.675972 -0.279156
C49   C     C_R   0.702819 0.176481 0.721886 0.418710
C50   C     C_R   0.203413 0.368311 0.680830 -0.229169
C51   C     C_R   0.354497 0.366307 0.631797 -0.074999
C52   C     C_R   0.517320 0.319230 0.631650 -0.201218
H17   H     H_    0.690987 0.096999 0.819520 0.154890
H18   H     H_    0.139118 0.186370 0.910275 0.133335
H19   H     H_    0.973659 0.285122 0.870552 0.166873
H20   H     H_    0.079325 0.404340 0.678946 0.127436
H21   H     H_    0.634325 0.317363 0.593901 0.120612
H22   H     H_    0.806951 0.223832 0.638914 0.133958
O11   O     O_R   0.271890 0.085690 0.087580 -0.546425
O12   O     O_R   0.595690 0.070020 0.939870 -0.530621
O13   O     O_R   0.758900 0.914390 0.912370 -0.544043
C53   C     C_R   0.426771 0.085648 0.918591 0.740750
O14   O     O_R   0.602020 0.095100 0.088770 -0.523205
O15   O     O_R   0.765280 0.939660 0.062330 -0.554221
C54   C     C_R   0.432407 0.118756 0.116789 0.734182
O16   O     O_R   0.265520 0.060430 0.937620 -0.541454
O17   O     O_3   0.429560 0.949050 0.991100 -0.382761
V3    V     V_3+5 0.707160 0.009450 0.001650 1.444738
O18   O     O_R   0.094540 0.929890 0.060190 -0.540586
C55   C     C_R   0.924916 0.912289 0.079468 0.679933
O19   O     O_R   0.088200 0.904800 0.911290 -0.546093
C56   C     C_R   0.918416 0.881572 0.883142 0.688557
V4    V     V_3+5 0.206300 0.990390 0.998440 1.407061
O20   O     O_3   0.934030 0.050940 0.008900 -0.357022
O21   O     O_3   0.092398 0.620013 0.755444 -0.565617
C57   C     C_3   0.199261 0.638852 0.821562 0.052548
H23   H     H_    0.101349 0.654224 0.869857 0.146967
H24   H     H_    0.301325 0.690216 0.827858 0.115300
C58   C     C_3   0.317803 0.565679 0.820397 -0.614734
H25   H     H_    0.414639 0.547921 0.771903 0.211535
H26   H     H_    0.407066 0.580703 0.871234 0.221281
H27   H     H_    0.220719 0.513985 0.817632 0.214672
C59   C     C_2   0.574662 0.312085 0.149580 0.346129
H28   H     H_    0.612874 0.375977 0.167514 0.055859
O22   O     O_2   0.613962 0.268754 0.087326 -0.521502
C60   C     C_2   0.683193 0.763714 0.038179 0.301262
H29   H     H_    0.644942 0.802372 0.006720 0.064128
O23   O     O_2   0.663113 0.690560 0.008859 -0.514123
C61   C     C_2   0.902012 0.386624 0.796287 0.388511
H30   H     H_    0.895882 0.433570 0.771473 0.055196
O24   O     O_2   0.767375 0.381859 0.835452 -0.513529
O25   O     O_3   0.867811 0.132256 0.722496 -0.560380
C62   C     C_3   0.903161 0.074070 0.652549 0.086093
H31   H     H_    0.796775 0.073356 0.608700 0.097012
H32   H     H_    0.896670 0.012976 0.658210 0.129789
C63   C     C_3   0.105124 0.087257 0.627482 -0.728302
H33   H     H_    0.213877 0.082370 0.668220 0.223864
H34   H     H_    0.135527 0.040606 0.573459 0.173376
H35   H     H_    0.117040 0.148193 0.621792 0.218165
C64   C     C_2   0.393949 0.712104 0.126211 0.496581
H36   H     H_    0.365772 0.762533 0.106996 0.019537
O26   O     O_2   0.273351 0.657773 0.113647 -0.510263

loop_
_geom_bond_atom_site_label_1
_geom_bond_atom_site_label_2
_ccdc_geom_bond_type
C24   H9    S    
C33   H14   S    
C22   C27   S    
C9    C14   A    
O12   V3    S    
C47   C48   A    
V4    O20   S    
C10   C17   A    
V3    O20   S    
O17   V3    S    
C45   C46   A    
C7    C8    A    
C4    C19   S    
C1    O6    A    
C49   O25   S    
C64   H36   S    
C57   H24   S    
C60   H29   S    
O15   C55   A    
C38   C53   S    
C30   H12   S    
C29   C30   S    
C14   C15   A    
C18   H3    S    
C20   H4    S    
C2    C51   S    
C16   C17   A    
C3    C23   S    
C29   C36   S    
C61   O24   D    
O5    C3    A    
C18   C19   A    
C25   C28   S    
V2    O10   S    
O18   C55   A    
O15   V3    S    
C31   C32   S    
C6    C7    A    
C62   C63   S    
O14   V3    S    
O11   V4    S    
O8    V2    S    
C22   C23   S    
C27   C28   S    
O16   V4    S    
C16   H5    S    
C40   C41   A    
C44   C61   S    
C58   H25   S    
O1    V2    S    
C47   C52   A    
C29   H13   S    
C33   C36   S    
C38   C39   A    
C34   C35   S    
O9    C4    A    
C42   C49   A    
C58   H26   S    
C5    H1    S    
C57   H23   S    
C30   C35   S    
C53   O16   A    
C21   H8    S    
C43   H19   S    
C31   C54   S    
C28   C56   S    
C63   H33   S    
C46   C47   A    
O13   C56   A    
C39   C40   A    
C12   C13   A    
C21   C22   S    
O4    C2    A    
C50   C51   A    
C27   H11   S    
C7    C60   S    
C13   C14   A    
C25   C26   S    
C1    C36   S    
C12   H2    S    
C35   C36   S    
C17   H6    S    
O2    C1    A    
C23   C24   S    
C52   H21   S    
O14   C54   A    
C37   H17   S    
O19   C56   A    
C8    C11   A    
C45   C50   A    
C5    C6    A    
C41   C46   A    
C59   O22   D    
C48   C49   A    
C62   H31   S    
O3    C4    A    
C63   H35   S    
C22   H7    S    
O19   V4    S    
O12   C53   A    
O6    V2    S    
O9    V2    S    
C58   H27   S    
O2    V1    S    
C48   H22   S    
O21   C57   S    
C24   C25   S    
C63   H34   S    
O7    V1    S    
C30   C31   S    
C13   C18   A    
C26   C27   S    
C59   H28   S    
C15   C20   A    
O1    C2    A    
C19   C20   A    
C44   C45   A    
C64   O26   D    
O5    V1    S    
C60   O23   D    
O8    C3    A    
C21   C24   S    
C26   O21   S    
C34   H15   S    
C5    C10   A    
C31   C34   S    
C35   H16   S    
O13   V3    S    
C33   C34   S    
O4    V1    S    
O3    V1    S    
V1    O10   S    
C61   H30   S    
C32   C33   S    
C32   C59   S    
C25   H10   S    
C40   C43   A    
O11   C54   A    
O7    V2    S    
C41   C42   A    
C23   C26   S    
C62   H32   S    
C29   C32   S    
C11   C12   A    
C51   C52   A    
C50   H20   S    
C43   C44   A    
C8    C9    A    
C39   H18   S    
C37   C38   A    
C15   C16   A    
O25   C62   S    
C11   C64   S    
C6    C55   S    
C37   C42   A    
C9    C10   A    
C57   C58   S    
O18   V4    S    
O17   V4    S    
C21   C28   S    
