data_mof_unit_13658.cif
_audit_creation_date              2012-12-10T18:58:09-0500
_audit_creation_method            fapswitch 2.2
_symmetry_space_group_name_H-M    P1
_symmetry_Int_Tables_number       1
_space_group_crystal_system       triclinic
_cell_length_a                    10.810618
_cell_length_b                    9.898626
_cell_length_c                    15.759845
_cell_angle_alpha                 90.064607
_cell_angle_beta                  92.004099
_cell_angle_gamma                 89.866908
_cell_volume                      1685.42814554

loop_
_atom_site_label
_atom_site_type_symbol
_atom_type_description
_atom_site_fract_x
_atom_site_fract_y
_atom_site_fract_z
_atom_type_partial_charge
C1    C     C_R   0.874013 0.502217 0.494451 -0.154831
C2    C     C_R   0.128235 0.505255 0.493786 -0.132295
C3    C     C_R   0.260413 0.500966 0.498182 0.862981
C4    C     C_R   0.740589 0.500102 0.499066 0.865061
C5    C     C_R   0.500501 0.499988 0.339197 0.884306
C6    C     C_R   0.501312 0.500114 0.660809 0.889983
C7    C     C_R   0.535764 0.631092 0.956976 0.417992
C8    C     C_R   0.585462 0.388068 0.046058 0.423385
C9    C     C_R   0.536758 0.631103 0.045203 0.425110
C10   C     C_R   0.584832 0.388066 0.957803 0.425215
C11   C     C_R   0.554770 0.508352 0.913424 -0.304271
C12   C     C_R   0.556096 0.508329 0.089357 -0.307923
C13   C     C_1   0.533458 0.503668 0.824268 -0.007249
C14   C     C_1   0.534338 0.503363 0.177440 -0.004279
C15   C     C_1   0.516333 0.500570 0.251304 -0.151153
C16   C     C_1   0.516242 0.500938 0.749484 -0.147870
C17   C     C_R   0.559625 0.070703 0.564225 0.279459
C18   C     C_R   0.439528 0.925958 0.436417 0.400908
C19   C     C_R   0.439566 0.070125 0.436146 0.275180
C20   C     C_R   0.558984 0.926318 0.564311 0.368772
C21   C     C_R   0.062348 0.401260 0.451877 0.043756
C22   C     C_R   0.939689 0.625811 0.506755 0.053660
C23   C     C_R   0.941356 0.382868 0.475747 0.068403
C24   C     C_R   0.064089 0.613949 0.530456 0.062543
N1    N     N_R   0.500000 0.857200 0.500000 -0.160882
N2    N     N_R   0.500000 0.142800 0.500000 -0.205963
O1    O     O_R   0.316770 0.614620 0.499990 -0.585155
O2    O     O_R   0.683230 0.385380 0.500010 -0.655685
O3    O     O_R   0.683230 0.614620 0.500010 -0.593432
O4    O     O_R   0.316770 0.385380 0.499990 -0.652209
O5    O     O_R   0.499980 0.614630 0.378020 -0.553687
O6    O     O_R   0.500020 0.385370 0.621980 -0.604590
O7    O     O_R   0.500020 0.614630 0.621980 -0.552739
O8    O     O_R   0.499980 0.385370 0.378020 -0.616958
Zn1   Zn    Zn3+2 0.500000 0.653120 0.500000 1.025000
Zn2   Zn    Zn3+2 0.500000 0.346880 0.500000 0.943818
O9    O     O_3   0.620990 0.135774 0.629987 -0.765411
H1    H     H_    0.649488 0.222437 0.607812 0.386338
O10   O     O_3   0.376648 0.851594 0.374635 -0.713418
H2    H     H_    0.335363 0.912360 0.332626 0.371047
O11   O     O_3   0.377244 0.134141 0.370519 -0.775690
H3    H     H_    0.354728 0.223459 0.391463 0.382855
O12   O     O_3   0.619105 0.852207 0.627468 -0.734691
H4    H     H_    0.655505 0.913145 0.671357 0.370816
O13   O     O_3   0.514249 0.752822 0.085311 -0.660817
H5    H     H_    0.534913 0.745662 0.146778 0.345634
O14   O     O_3   0.610355 0.267014 0.917806 -0.660465
H6    H     H_    0.623599 0.282172 0.856781 0.349696
O15   O     O_3   0.511990 0.752804 0.916214 -0.667225
H7    H     H_    0.529015 0.745319 0.855144 0.346704
O16   O     O_3   0.611451 0.267055 0.087011 -0.665027
H8    H     H_    0.626260 0.282515 0.148539 0.340620
C25   C     C_3   0.117322 0.313991 0.383268 -0.394853
C26   C     C_3   0.028521 0.296367 0.305725 -0.393161
C27   C     C_3   0.088377 0.212546 0.236874 -0.765664
H9    H     H_    0.173249 0.263170 0.215175 0.273830
H10   H     H_    0.112944 0.110488 0.261541 0.269854
H11   H     H_    0.022407 0.201176 0.181746 0.255082
H12   H     H_    0.942416 0.244608 0.323992 0.225469
H13   H     H_    0.003003 0.397194 0.279340 0.231463
H14   H     H_    0.200890 0.364280 0.359436 0.206440
H15   H     H_    0.143591 0.213832 0.409940 0.218471
C28   C     C_3   0.888875 0.766491 0.485341 -0.389175
C29   C     C_3   0.849591 0.777718 0.390772 -0.310199
C30   C     C_3   0.800372 0.918657 0.369258 -0.846256
H16   H     H_    0.721976 0.944907 0.409879 0.247444
H17   H     H_    0.874944 0.994573 0.378667 0.244144
H18   H     H_    0.767415 0.921721 0.301765 0.267116
H19   H     H_    0.930925 0.756758 0.351465 0.218646
H20   H     H_    0.777201 0.702806 0.372804 0.235440
H21   H     H_    0.813782 0.795782 0.527726 0.249061
H22   H     H_    0.961673 0.844229 0.495747 0.185511
C31   C     C_3   0.904982 0.240050 0.500614 -0.410504
C32   C     C_3   0.920449 0.223951 0.597338 -0.310984
C33   C     C_3   0.914685 0.075982 0.623799 -0.847155
H23   H     H_    0.832547 0.025930 0.593935 0.279045
H24   H     H_    0.999320 0.022638 0.603927 0.235482
H25   H     H_    0.909694 0.068761 0.693885 0.271100
H26   H     H_    0.011938 0.264490 0.619495 0.222441
H27   H     H_    0.848540 0.283152 0.629486 0.225632
H28   H     H_    0.812144 0.209452 0.476185 0.223983
H29   H     H_    0.967165 0.164988 0.471889 0.197221
C34   C     C_3   0.121226 0.711889 0.595836 -0.408467
C35   C     C_3   0.171238 0.638122 0.675741 -0.356332
C36   C     C_3   0.234815 0.736186 0.737965 -0.784891
H30   H     H_    0.314905 0.784976 0.708147 0.274868
H31   H     H_    0.168691 0.815253 0.757818 0.262094
H32   H     H_    0.269110 0.680376 0.795212 0.261176
H33   H     H_    0.093266 0.588264 0.707492 0.223334
H34   H     H_    0.238779 0.558687 0.659586 0.214319
H35   H     H_    0.193271 0.775411 0.567422 0.232234
H36   H     H_    0.049939 0.783127 0.618279 0.191411

loop_
_geom_bond_atom_site_label_1
_geom_bond_atom_site_label_2
_ccdc_geom_bond_type
C6    O6    A    
C27   H9    S    
C9    O13   S    
C31   C32   S    
C33   H23   S    
C26   H13   S    
C36   H30   S    
C7    C11   A    
C34   H36   S    
C17   N2    A    
O6    Zn2   S    
C24   C34   S    
C20   N1    A    
C17   C20   A    
C18   C19   A    
O11   H3    S    
C19   N2    A    
C18   O10   S    
C22   C28   S    
C25   H14   S    
C34   C35   S    
C30   H17   S    
C29   H20   S    
C4    O3    A    
C1    C22   A    
C32   H27   S    
C18   N1    A    
C35   H34   S    
C23   C31   S    
C31   H28   S    
C4    O2    A    
C26   H12   S    
C36   H31   S    
C32   C33   S    
O16   H8    S    
C35   C36   S    
C7    O15   S    
C10   C11   A    
O10   H2    S    
O1    Zn1   S    
O13   H5    S    
C3    O4    A    
O12   H4    S    
O9    H1    S    
C25   H15   S    
O14   H6    S    
C8    C12   A    
C30   H18   S    
C5    O8    A    
C2    C21   A    
C27   H10   S    
C17   O9    S    
C29   H19   S    
C33   H24   S    
C8    O16   S    
N1    Zn1   S    
N2    Zn2   S    
C28   H21   S    
C1    C23   A    
C32   H26   S    
C21   C23   A    
C2    C24   A    
O15   H7    S    
C22   C24   A    
C13   C16   T    
C35   H33   S    
C31   H29   S    
C20   O12   S    
C36   H32   S    
C7    C9    A    
C26   C27   S    
C12   C14   S    
C25   C26   S    
C34   H35   S    
O3    Zn1   S    
C6    O7    A    
O4    Zn2   S    
C1    C4    S    
C29   C30   S    
C3    O1    A    
C2    C3    S    
C21   C25   S    
C11   C13   S    
O5    Zn1   S    
O7    Zn1   S    
O8    Zn2   S    
C33   H25   S    
C5    C15   S    
C9    C12   A    
C6    C16   S    
C28   C29   S    
C28   H22   S    
O2    Zn2   S    
C8    C10   A    
C30   H16   S    
C27   H11   S    
C10   O14   S    
C14   C15   T    
C19   O11   S    
C5    O5    A    
