data_mof_unit_52759.cif
_audit_creation_date              2012-12-10T20:27:11-0500
_audit_creation_method            fapswitch 2.2
_symmetry_space_group_name_H-M    P1
_symmetry_Int_Tables_number       1
_space_group_crystal_system       triclinic
_cell_length_a                    10.844022
_cell_length_b                    10.671896
_cell_length_c                    9.950218
_cell_angle_alpha                 89.616886
_cell_angle_beta                  104.012201
_cell_angle_gamma                 91.643355
_cell_volume                      1116.77823894

loop_
_atom_site_label
_atom_site_type_symbol
_atom_type_description
_atom_site_fract_x
_atom_site_fract_y
_atom_site_fract_z
_atom_type_partial_charge
C1    C     C_R   0.507201 0.260303 0.502369 0.892854
C2    C     C_R   0.598903 0.553539 0.097324 -0.052986
C3    C     C_R   0.599161 0.552584 0.953600 0.500985
C4    C     C_R   0.259999 0.501298 0.441515 0.980125
C5    C     C_R   0.391902 0.469488 0.900918 0.058881
C6    C     C_3   0.311920 0.351937 0.874007 -0.287757
C7    C     C_3   0.312517 0.349363 0.027829 -0.308702
C8    C     C_R   0.505591 0.739881 0.501096 0.896091
C9    C     C_R   0.740341 0.496813 0.558084 0.912896
C10   C     C_2   0.124394 0.488326 0.406383 -0.244380
C11   C     C_2   0.059544 0.535058 0.491138 0.422385
C12   C     C_R   0.534744 0.129886 0.510706 -0.082989
C13   C     C_2   0.877083 0.502490 0.590122 -0.470488
C14   C     C_2   0.934973 0.477651 0.488703 0.426275
C15   C     C_R   0.540566 0.063597 0.632974 -0.051964
C16   C     C_2   0.701273 0.624715 0.194330 0.593436
C17   C     C_2   0.182314 0.371849 0.782670 0.508343
C18   C     C_2   0.379155 0.237829 0.100272 0.564249
C19   C     C_2   0.325143 0.871456 0.684951 0.463801
C20   C     C_R   0.559035 0.067265 0.396483 -0.113192
C21   C     C_R   0.555521 0.937211 0.394347 -0.155368
C22   C     C_R   0.530196 0.871604 0.507811 -0.065714
C23   C     C_R   0.536125 0.935475 0.630781 -0.067139
C24   C     C_3   0.457993 0.926144 0.737303 0.298195
C25   C     C_3   0.464046 0.069596 0.740036 0.229287
C26   C     C_R   0.393030 0.466886 0.042484 0.076402
H1    H     H_    0.362488 0.275236 0.839043 0.220562
H2    H     H_    0.680148 0.679127 0.276690 0.056114
H3    H     H_    0.663385 0.650169 0.822213 0.367752
H4    H     H_    0.127468 0.450888 0.800185 0.077795
H5    H     H_    0.476627 0.220905 0.097248 0.091367
H6    H     H_    0.046090 0.679466 0.604264 0.333316
H7    H     H_    0.288406 0.802599 0.747090 0.131912
H8    H     H_    0.614352 0.882103 0.875691 0.353924
H9    H     H_    0.218501 0.365055 0.050581 0.186385
H10   H     H_    0.926428 0.547040 0.686640 0.148524
H11   H     H_    0.081407 0.424395 0.322474 0.171287
H12   H     H_    0.571129 0.117328 0.305629 0.165640
H13   H     H_    0.563490 0.889425 0.301251 0.167682
H14   H     H_    0.371026 0.114355 0.700116 0.150830
H15   H     H_    0.826903 0.332844 0.413081 0.346629
H16   H     H_    0.625025 0.105228 0.879261 0.358729
N1    N     N_R   0.499160 0.499140 0.142600 -0.185273
N2    N     N_R   0.499160 0.499180 0.856960 -0.165867
O1    O     O_R   0.500020 0.316790 0.614700 -0.606959
O2    O     O_3   0.533081 0.120254 0.867623 -0.764024
O3    O     O_2   0.810694 0.625079 0.182241 -0.510514
O4    O     O_3   0.698495 0.612069 0.913404 -0.714027
O5    O     O_2   0.137298 0.298098 0.689298 -0.569926
O6    O     O_2   0.323201 0.164574 0.161042 -0.547182
O7    O     O_3   0.114505 0.629569 0.583001 -0.781619
O8    O     O_2   0.257768 0.903940 0.573936 -0.564350
O9    O     O_3   0.521108 0.870048 0.863062 -0.766035
O10   O     O_R   0.500000 0.316760 0.385350 -0.623093
O11   O     O_R   0.317820 0.500020 0.571850 -0.563656
O12   O     O_R   0.317800 0.499980 0.342510 -0.614493
O13   O     O_R   0.500000 0.683240 0.614650 -0.639668
O14   O     O_R   0.499980 0.683210 0.385300 -0.643910
O15   O     O_R   0.682200 0.500020 0.657490 -0.599143
O16   O     O_R   0.682180 0.499980 0.428150 -0.623943
O17   O     O_3   0.880314 0.397323 0.379788 -0.730070
Zn1   Zn    Zn3+2 0.500010 0.500020 0.653140 0.999849
Zn2   Zn    Zn3+2 0.499990 0.499980 0.346860 0.961930

loop_
_geom_bond_atom_site_label_1
_geom_bond_atom_site_label_2
_ccdc_geom_bond_type
C16   H2    S    
C8    C22   S    
C23   C24   S    
H6    O7    S    
C6    C7    S    
C8    O13   A    
C2    C16   S    
O1    Zn1   S    
C6    H1    S    
C21   H13   S    
C12   C15   A    
H15   O17   S    
C2    N1    A    
C1    O10   A    
C7    C18   S    
N2    Zn1   S    
C12   C20   A    
C15   C23   A    
C2    C3    A    
O12   Zn2   S    
N1    Zn2   S    
O13   Zn1   S    
C25   H14   S    
C13   C14   D    
C20   C21   A    
C17   H4    S    
C1    C12   S    
C1    O1    A    
C7    C26   S    
C13   H10   S    
O16   Zn2   S    
C19   O8    D    
C16   O3    D    
C21   C22   A    
C5    N2    A    
C26   N1    A    
C19   C24   S    
C10   H11   S    
C4    O11   A    
C19   H7    S    
C5    C6    S    
C11   C14   S    
C3    N2    A    
C15   C25   S    
C11   O7    S    
C10   C11   D    
H3    O4    S    
C4    C10   S    
C5    C26   A    
O11   Zn1   S    
C3    O4    S    
C20   H12   S    
C24   C25   S    
C18   O6    D    
H8    O9    S    
H16   O2    S    
C17   O5    D    
O14   Zn2   S    
C6    C17   S    
C9    C13   S    
O10   Zn2   S    
O15   Zn1   S    
C18   H5    S    
C8    O14   A    
C24   O9    S    
C22   C23   A    
C14   O17   S    
C7    H9    S    
C25   O2    S    
C4    O12   A    
C9    O15   A    
C9    O16   A    
