data_mof_unit_24318.cif
_audit_creation_date              2012-12-10T17:00:49-0500
_audit_creation_method            fapswitch 2.2
_symmetry_space_group_name_H-M    P1
_symmetry_Int_Tables_number       1
_space_group_crystal_system       triclinic
_cell_length_a                    10.798016
_cell_length_b                    10.705164
_cell_length_c                    10.066575
_cell_angle_alpha                 89.711577
_cell_angle_beta                  104.262967
_cell_angle_gamma                 90.207389
_cell_volume                      1127.75431004

loop_
_atom_site_label
_atom_site_type_symbol
_atom_type_description
_atom_site_fract_x
_atom_site_fract_y
_atom_site_fract_z
_atom_type_partial_charge
C1    C     C_R   0.500223 0.262741 0.500237 0.887250
C2    C     C_2   0.455806 0.866967 0.490476 0.395636
C3    C     C_2   0.430770 0.072008 0.388446 -0.127816
C4    C     C_2   0.499364 0.130563 0.498926 -0.235039
C5    C     C_2   0.601855 0.503391 0.954839 -0.093751
C6    C     C_2   0.594798 0.468444 0.097551 0.682340
C7    C     C_R   0.259263 0.494767 0.442740 0.960827
C8    C     C_R   0.490413 0.737246 0.497110 0.790967
C9    C     C_R   0.740990 0.495873 0.557331 0.913111
C10   C     C_2   0.122388 0.481396 0.410664 -0.509108
C11   C     C_2   0.066554 0.443052 0.508490 0.674547
C12   C     C_2   0.877351 0.476203 0.588691 -0.324548
C13   C     C_2   0.931023 0.455757 0.484792 -0.260540
C14   C     C_2   0.441322 0.938140 0.376773 -0.135494
H1    H     H_    0.876186 0.457854 0.378802 0.221385
H2    H     H_    0.419856 0.463882 0.872635 0.237874
H3    H     H_    0.933099 0.476272 0.694219 0.210425
H4    H     H_    0.066470 0.509386 0.309666 0.128936
H5    H     H_    0.376714 0.124147 0.300071 0.162249
H6    H     H_    0.559439 0.082470 0.586436 0.183985
N1    N     N_2   0.501330 0.501330 0.852460 -0.206076
N2    N     N_2   0.501370 0.501360 0.148130 0.103943
O1    O     O_R   0.499980 0.319060 0.613030 -0.597969
O2    O     O_R   0.500020 0.319100 0.386910 -0.604446
O3    O     O_R   0.317800 0.500000 0.570840 -0.538814
O4    O     O_R   0.317840 0.500040 0.344720 -0.594648
O5    O     O_R   0.499980 0.680900 0.613090 -0.591284
O6    O     O_R   0.500020 0.680940 0.386970 -0.612733
O7    O     O_R   0.682160 0.499960 0.655280 -0.617054
O8    O     O_R   0.682200 0.500000 0.429160 -0.568215
Zn1   Zn    Zn3+2 0.499970 0.499970 0.650990 1.003168
Zn2   Zn    Zn3+2 0.500030 0.500030 0.349010 1.066931
F1    F     F_    0.694915 0.408099 0.180462 -0.722053
F2    F     F_    0.411913 0.574341 0.070039 -0.636699
F3    F     F_    0.134268 0.401719 0.633766 -0.640844
C15   C     C_R   0.446012 0.892764 0.239759 0.107120
C16   C     C_R   0.332290 0.864149 0.142449 -0.105872
C17   C     C_R   0.334948 0.837395 0.007353 -0.019478
C18   C     C_R   0.450947 0.838632 0.969161 -0.023526
C19   C     C_R   0.564494 0.866777 0.066010 -0.156144
C20   C     C_R   0.562144 0.894206 0.200873 -0.094598
H7    H     H_    0.241675 0.865444 0.170466 0.118703
H8    H     H_    0.247131 0.816514 0.932008 0.123250
H9    H     H_    0.452516 0.818232 0.864479 0.184567
H10   H     H_    0.654163 0.869684 0.036408 0.129960
H11   H     H_    0.650107 0.919091 0.274264 0.124473
F4    F     F_    0.428849 0.914562 0.605672 -0.682896
C21   C     C_R   0.727021 0.546532 0.936482 0.185909
C22   C     C_R   0.739460 0.667345 0.886124 -0.096659
C23   C     C_R   0.859367 0.713038 0.879831 -0.195651
C24   C     C_R   0.968002 0.638936 0.924795 -0.106085
C25   C     C_R   0.956659 0.518369 0.974267 -0.158115
C26   C     C_R   0.836731 0.471887 0.979385 -0.129956
H12   H     H_    0.656663 0.726388 0.852550 0.144384
H13   H     H_    0.868129 0.806240 0.840944 0.142280
H14   H     H_    0.060796 0.674458 0.920350 0.154760
H15   H     H_    0.040779 0.460711 0.008147 0.170972
H16   H     H_    0.829825 0.377814 0.016815 0.176159

loop_
_geom_bond_atom_site_label_1
_geom_bond_atom_site_label_2
_ccdc_geom_bond_type
C12   H3    S    
O3    Zn1   S    
C7    C10   S    
O8    Zn2   S    
C20   H11   S    
O2    Zn2   S    
O4    Zn2   S    
H2    N1    S    
C24   C25   A    
C2    F4    S    
C11   C13   S    
C23   H13   S    
C7    O3    A    
C6    F1    S    
C9    O7    A    
C26   H16   S    
C1    C4    S    
C7    O4    A    
C11   F3    S    
C23   C24   A    
C2    C14   D    
C17   H8    S    
O7    Zn1   S    
C21   C22   A    
C12   C13   D    
C3    H5    S    
N1    Zn1   S    
C15   C20   A    
C16   C17   A    
C3    C14   S    
N2    Zn2   S    
C9    O8    A    
C10   H4    S    
N2    F2    S    
C5    C6    S    
C19   C20   A    
C9    C12   S    
C1    O1    A    
C13   H1    S    
C14   C15   S    
C19   H10   S    
C8    O6    A    
C5    C21   S    
C10   C11   D    
C18   H9    S    
O5    Zn1   S    
C22   H12   S    
C6    N2    D    
O6    Zn2   S    
C5    N1    D    
C25   C26   A    
C1    O2    A    
C24   H14   S    
C25   H15   S    
C16   H7    S    
C22   C23   A    
C8    O5    A    
C18   C19   A    
C15   C16   A    
C17   C18   A    
C2    C8    S    
C3    C4    D    
O1    Zn1   S    
C21   C26   A    
C4    H6    S    
