data_mof_unit_10917.cif
_audit_creation_date              2013-03-05T16:00:28-0500
_audit_creation_method            fapswitch 2.2
_symmetry_space_group_name_H-M    P1
_symmetry_Int_Tables_number       1
_space_group_crystal_system       triclinic
_cell_length_a                    6.923199
_cell_length_b                    28.811353
_cell_length_c                    32.038036
_cell_angle_alpha                 101.112156
_cell_angle_beta                  89.672135
_cell_angle_gamma                 90.429198
_cell_volume                      6270.47592123

loop_
_atom_site_label
_atom_site_type_symbol
_atom_site_description
_atom_site_fract_x
_atom_site_fract_y
_atom_site_fract_z
_atom_type_partial_charge
O1    O     O_R   0.494350 0.453160 0.452490 -0.603000
O2    O     O_R   0.820990 0.455850 0.538220 -0.594438
O3    O     O_R   0.994300 0.546840 0.547510 -0.548290
C1    C     C_R   0.651669 0.445784 0.551793 1.028285
O4    O     O_R   0.823860 0.447580 0.452250 -0.608704
O5    O     O_R   0.997190 0.538510 0.460920 -0.579830
C2    C     C_R   0.655018 0.434562 0.436470 0.956042
O6    O     O_R   0.491450 0.461490 0.539080 -0.601092
O7    O     O_3   0.661790 0.529840 0.502950 -0.218552
V1    V     V_3+5 0.935470 0.494460 0.499450 1.223398
O8    O     O_R   0.327090 0.544150 0.461780 -0.565065
C3    C     C_R   0.159043 0.554605 0.448529 1.000158
O9    O     O_R   0.324210 0.552420 0.547750 -0.581457
C4    C     C_R   0.154953 0.564657 0.564157 1.001878
V2    V     V_3+5 0.435840 0.505540 0.500550 1.247538
O10   O     O_3   0.159650 0.470160 0.497050 -0.294880
C5    C     C_R   0.979320 0.607642 0.630575 0.478473
C6    C     C_R   0.973242 0.643983 0.666558 -0.210627
H1    H     H_    0.845934 0.647013 0.686686 0.167164
C7    C     C_R   0.128448 0.675700 0.676999 0.043634
C8    C     C_R   0.292325 0.670127 0.650427 -0.105231
H2    H     H_    0.415160 0.693759 0.657535 0.138891
C9    C     C_R   0.299586 0.634052 0.614138 -0.120755
H3    H     H_    0.427667 0.631196 0.594262 0.186688
C10   C     C_R   0.143438 0.602444 0.603301 -0.281737
N1    N     N_R   0.267554 0.744383 0.727233 -0.069462
N2    N     N_R   0.255691 0.778490 0.761868 -0.069527
C11   C     C_R   0.093236 0.783745 0.786400 0.156299
N3    N     N_R   0.943521 0.753373 0.774690 -0.068618
N4    N     N_R   0.955374 0.719344 0.740146 -0.069556
C12   C     C_R   0.117439 0.714001 0.715594 0.151034
C13   C     C_R   0.909745 0.826364 0.850270 -0.205791
H4    H     H_    0.790133 0.801985 0.841798 0.166075
C14   C     C_R   0.892740 0.861896 0.886785 0.469494
C15   C     C_R   0.046216 0.894550 0.898890 -0.304681
C16   C     C_R   0.215478 0.889324 0.873790 -0.052648
H5    H     H_    0.336647 0.913247 0.881983 0.201759
C17   C     C_R   0.231331 0.853583 0.837526 -0.099978
H6    H     H_    0.363919 0.851032 0.819155 0.144010
C18   C     C_R   0.078252 0.821759 0.825126 0.035922
C19   C     C_R   0.252074 0.674176 0.295019 0.524029
N5    N     N_R   0.106412 0.675322 0.324470 -0.172232
C20   C     C_R   0.952353 0.705206 0.324979 0.577184
C21   C     C_R   0.938955 0.734658 0.294700 -0.080214
C22   C     C_R   0.087846 0.733873 0.264429 -0.003285
C23   C     C_R   0.246283 0.703555 0.264619 -0.083339
C24   C     C_R   0.781148 0.764972 0.294085 -0.111685
C25   C     C_R   0.772153 0.794285 0.264061 -0.116419
C26   C     C_R   0.920639 0.794014 0.233844 -0.053778
C27   C     C_R   0.078617 0.763572 0.233973 -0.007392
C28   C     C_R   0.227600 0.762813 0.203766 -0.047518
C29   C     C_R   0.385429 0.732485 0.204364 -0.115615
C30   C     C_R   0.394697 0.703254 0.234418 -0.111886
C31   C     C_R   0.915839 0.823746 0.203667 0.480937
N6    N     N_R   0.061336 0.822488 0.174038 -0.184537
C32   C     C_R   0.214843 0.792344 0.173567 0.485725
O11   O     O_2   0.401683 0.644445 0.294912 -0.470203
O12   O     O_2   0.813247 0.706739 0.354870 -0.507499
H7    H     H_    0.663807 0.766117 0.316762 0.172748
H8    H     H_    0.648148 0.817094 0.264589 0.175904
O13   O     O_2   0.767984 0.854148 0.204461 -0.546640
O14   O     O_2   0.354077 0.790405 0.143650 -0.553049
H9    H     H_    0.502872 0.731345 0.181714 0.174097
H10   H     H_    0.518911 0.680519 0.233954 0.185456
C33   C     C_R   0.208864 0.883931 0.138910 -0.048290
H11   H     H_    0.334747 0.885060 0.158997 0.156495
C34   C     C_R   0.202775 0.913357 0.108869 -0.165232
H12   H     H_    0.324877 0.936411 0.106391 0.139237
C35   C     C_R   0.039493 0.913721 0.082987 -0.131575
C36   C     C_R   0.883364 0.883516 0.087582 -0.166209
H13   H     H_    0.755832 0.882747 0.068031 0.154139
C37   C     C_R   0.891285 0.853351 0.117012 -0.053635
H14   H     H_    0.770677 0.829820 0.119329 0.163712
C38   C     C_R   0.053688 0.853373 0.143213 0.185314
C39   C     C_R   0.265438 0.652853 0.386325 -0.168121
H15   H     H_    0.367569 0.681558 0.386439 0.193981
C40   C     C_R   0.284490 0.623459 0.416312 0.365559
C41   C     C_R   0.150201 0.586181 0.416799 -0.362787
C42   C     C_R   0.001860 0.579092 0.386329 -0.222221
H16   H     H_    0.899028 0.550418 0.385656 0.185291
C43   C     C_R   0.986791 0.607754 0.355798 0.559242
C44   C     C_R   0.118130 0.645307 0.355810 0.017834
C45   C     C_R   0.593985 0.225607 0.839421 0.467989
N7    N     N_R   0.584465 0.177403 0.825953 -0.179105
C46   C     C_R   0.583331 0.157803 0.783300 0.489336
C47   C     C_R   0.587815 0.186761 0.752530 -0.067956
C48   C     C_R   0.597440 0.236203 0.765935 -0.003168
C49   C     C_R   0.601878 0.255912 0.809706 -0.050976
C50   C     C_R   0.582486 0.167446 0.708747 -0.098519
C51   C     C_R   0.585951 0.196819 0.678733 -0.081869
C52   C     C_R   0.596182 0.246242 0.691725 -0.085476
C53   C     C_R   0.602477 0.265992 0.735484 -0.003558
C54   C     C_R   0.613550 0.315451 0.748854 -0.059022
C55   C     C_R   0.618572 0.334747 0.792641 -0.105080
C56   C     C_R   0.612383 0.305364 0.822679 -0.110606
C57   C     C_R   0.600834 0.276505 0.662029 0.594142
N8    N     N_R   0.614920 0.324598 0.675452 -0.176373
C58   C     C_R   0.620290 0.344337 0.717987 0.508562
O15   O     O_2   0.593116 0.244287 0.881402 -0.550555
O16   O     O_2   0.579149 0.110352 0.770592 -0.518214
H17   H     H_    0.574873 0.129543 0.697494 0.181454
H18   H     H_    0.581195 0.180630 0.645310 0.182677
O17   O     O_2   0.591288 0.258002 0.620066 -0.488683
O18   O     O_2   0.633589 0.391721 0.730403 -0.529443
H19   H     H_    0.627042 0.372644 0.803873 0.177761
H20   H     H_    0.616018 0.321561 0.856107 0.176940
C59   C     C_R   0.466378 0.382583 0.638117 -0.055516
H21   H     H_    0.336786 0.381714 0.656993 0.178922
C60   C     C_R   0.473369 0.411517 0.607661 -0.123958
H22   H     H_    0.347957 0.432443 0.603636 0.149493
C61   C     C_R   0.641584 0.414048 0.583319 -0.199548
C62   C     C_R   0.801933 0.386631 0.590012 -0.247297
H23   H     H_    0.933518 0.387915 0.571800 0.173186
C63   C     C_R   0.794027 0.357016 0.619971 0.528512
C64   C     C_R   0.625443 0.354836 0.644335 0.085048
C65   C     C_R   0.411450 0.116515 0.856767 -0.179706
H24   H     H_    0.298348 0.116716 0.833580 0.173134
C66   C     C_R   0.400131 0.084593 0.884849 0.347417
C67   C     C_R   0.548401 0.084441 0.915339 -0.313215
C68   C     C_R   0.707177 0.115289 0.915434 -0.138430
H25   H     H_    0.822665 0.115900 0.938208 0.152789
C69   C     C_R   0.718893 0.145882 0.886414 -0.006784
H26   H     H_    0.844067 0.168712 0.886772 0.130911
C70   C     C_R   0.570960 0.146824 0.856870 0.150998
C71   C     C_R   0.477037 0.387483 0.373647 -0.119693
H27   H     H_    0.351337 0.409587 0.381852 0.139725
C72   C     C_R   0.469706 0.351333 0.337473 -0.116585
H28   H     H_    0.339044 0.346970 0.318685 0.175261
C73   C     C_R   0.629228 0.321731 0.325146 -0.034803
C74   C     C_R   0.797614 0.329173 0.350651 0.500367
C75   C     C_R   0.804906 0.366031 0.386390 -0.244833
H29   H     H_    0.935294 0.370946 0.405317 0.174493
C76   C     C_R   0.645363 0.395580 0.398390 -0.191211
N9    N     N_R   0.775582 0.268713 0.262764 -0.010788
N10   N     N_R   0.763818 0.234706 0.228164 -0.012365
C77   C     C_R   0.591662 0.214182 0.215097 0.180126
N11   N     N_R   0.430548 0.230221 0.237691 -0.030607
N12   N     N_R   0.442354 0.264305 0.272366 -0.025840
C78   C     C_R   0.615758 0.283903 0.286047 0.187474
C79   C     C_R   0.409200 0.169530 0.152261 -0.107293
H30   H     H_    0.288223 0.193036 0.161116 0.172279
C80   C     C_R   0.393349 0.133792 0.115823 -0.121537
H31   H     H_    0.260253 0.130447 0.097859 0.144484
C81   C     C_R   0.548614 0.103312 0.102411 -0.194488
C82   C     C_R   0.718250 0.108894 0.126844 -0.246090
H32   H     H_    0.838668 0.085208 0.117812 0.171177
C83   C     C_R   0.734007 0.143897 0.163737 0.495626
C84   C     C_R   0.579374 0.175441 0.176687 -0.039489
O19   O     O_R   0.699050 0.038480 0.960880 -0.585680
O20   O     O_R   0.366680 0.052470 0.047720 -0.606141
O21   O     O_R   0.193410 0.961530 0.039110 -0.598778
C85   C     C_R   0.535742 0.065304 0.063631 0.939547
O22   O     O_R   0.369510 0.044100 0.961740 -0.575992
O23   O     O_R   0.196260 0.953110 0.952520 -0.571485
C86   C     C_R   0.538502 0.053370 0.947514 1.017572
O24   O     O_R   0.696210 0.046900 0.047470 -0.605624
O25   O     O_3   0.528780 0.970170 0.997070 -0.245010
V3    V     V_3+5 0.255080 0.005530 0.000540 1.216909
O26   O     O_R   0.866350 0.947520 0.952280 -0.548405
C87   C     C_R   0.035246 0.933899 0.936890 1.059632
O27   O     O_R   0.863520 0.955880 0.038260 -0.596822
C88   C     C_R   0.031677 0.945734 0.051736 0.936610
V4    V     V_3+5 0.754720 0.994440 0.999470 1.227607
O28   O     O_3   0.030880 0.029830 0.002930 -0.282267
Cl1   Cl    Cl    0.779289 0.568624 0.622959 -0.661029
N13   N     N_R   0.437866 0.632908 0.446570 0.239426
O29   O     O_R   0.591170 0.606564 0.441242 -0.363753
O30   O     O_R   0.445037 0.673541 0.472598 -0.373705
Cl2   Cl    Cl    0.806276 0.594513 0.316834 -0.555566
Cl3   Cl    Cl    0.998262 0.323389 0.626872 -0.646181
N14   N     N_R   0.244064 0.050844 0.880026 0.239644
O31   O     O_R   0.279699 0.006389 0.879060 -0.416413
O32   O     O_R   0.074495 0.062573 0.868327 -0.403511
Cl4   Cl    Cl    0.999780 0.291759 0.341146 -0.624440
Cl5   Cl    Cl    0.946379 0.144214 0.193854 -0.634934
Cl6   Cl    Cl    0.678817 0.861884 0.916911 -0.659156

loop_
_geom_bond_atom_site_label_1
_geom_bond_atom_site_label_2
_geom_bond_distance
_ccdc_geom_bond_type
N14   O31   1.300639 A    
C55   H19   1.082997 S    
C54   C55   1.406387 A    
C19   N5    1.373302 A    
C61   C62   1.408360 A    
N5    C44   1.448866 S    
C83   C84   1.417150 A    
C1    O6    1.297997 A    
C79   C84   1.409121 A    
C62   C63   1.402377 A    
C63   C64   1.408131 A    
N10   C77   1.358384 A    
C22   C23   1.408072 A    
C74   Cl4   1.762066 S    
N14   O32   1.301023 A    
N1    N2    1.335487 A    
O25   V3    2.150272 S    
C45   N7    1.373798 A    
C22   C27   1.418366 A    
C11   N3    1.358365 A    
C79   C80   1.404122 A    
C6    H1    1.083165 S    
C60   C61   1.407122 A    
O26   C87   1.300028 A    
O5    C3    1.298588 A    
N4    C12   1.359106 A    
C30   H10   1.083208 S    
C83   Cl5   1.762242 S    
C11   C18   1.492016 S    
V2    O10   2.153376 S    
N8    C58   1.372362 A    
C65   H24   1.083236 S    
C5    C6    1.400660 A    
C14   C15   1.419015 A    
O22   V3    1.978821 S    
C15   C87   1.497146 S    
C51   H18   1.083018 S    
C20   O12   1.349194 S    
C82   C83   1.402266 A    
C52   C57   1.409062 A    
C66   C67   1.421680 A    
N6    C38   1.452575 S    
O8    V2    1.975603 S    
N7    C46   1.374387 A    
C85   O24   1.296097 A    
O24   V4    1.979790 S    
C33   C34   1.400836 A    
C3    C41   1.490893 S    
C19   C23   1.409039 A    
C36   H13   1.083089 S    
O19   V4    1.975994 S    
C43   Cl2   1.758647 S    
N8    C64   1.446089 S    
O20   V3    1.980024 S    
O7    V1    2.150379 S    
O25   V4    1.704680 S    
C6    C7    1.404686 A    
C21   C24   1.406394 A    
V3    O28   1.702805 S    
C13   C18   1.406358 A    
C45   C49   1.410948 A    
C49   C56   1.406606 A    
N1    C12   1.360277 A    
C45   O15   1.348935 S    
C8    H2    1.082778 S    
N13   O30   1.300622 A    
C59   C60   1.400635 A    
C55   C56   1.399188 A    
C62   H23   1.083260 S    
O27   V4    1.975220 S    
C68   C69   1.400677 A    
C25   H8    1.083138 S    
C69   H26   1.082804 S    
C5    Cl1   1.765195 S    
C17   H6    1.082858 S    
C80   H31   1.083032 S    
C28   C29   1.406694 A    
O21   V3    1.976366 S    
C79   H30   1.082738 S    
C37   C38   1.406902 A    
C52   C53   1.408545 A    
C42   C43   1.401223 A    
C41   C42   1.407450 A    
C77   N11   1.360606 A    
C40   N13   1.430785 S    
C40   C41   1.417559 A    
C47   C50   1.406423 A    
C43   C44   1.408022 A    
C33   C38   1.406845 A    
C34   H12   1.083154 S    
C34   C35   1.407072 A    
C15   C16   1.409865 A    
C13   C14   1.403236 A    
O2    C1    1.298096 A    
C39   H15   1.083538 S    
C72   C73   1.407951 A    
O23   C87   1.300019 A    
N3    N4    1.332168 A    
C56   H20   1.082990 S    
C24   C25   1.398949 A    
C73   C78   1.496431 S    
C59   H21   1.081931 S    
O21   C88   1.297163 A    
C57   N8    1.372292 A    
N6    C32   1.375707 A    
C27   C28   1.407735 A    
O20   C85   1.301623 A    
C35   C88   1.487743 S    
C67   C68   1.408049 A    
C71   C72   1.401819 A    
C39   C40   1.405096 A    
C59   C64   1.403058 A    
C46   C47   1.408960 A    
C77   C84   1.495910 S    
O3    C4    1.295270 A    
O1    V2    1.979577 S    
C25   C26   1.407087 A    
C1    C61   1.488398 S    
C75   H29   1.083458 S    
C33   H11   1.082898 S    
O6    V2    1.974690 S    
O9    V2    1.980735 S    
C20   C21   1.410415 A    
N13   O29   1.300672 A    
C32   O14   1.349284 S    
O22   C86   1.297702 A    
N5    C20   1.373797 A    
C69   C70   1.402505 A    
C72   H28   1.082495 S    
O2    V1    1.979039 S    
C82   H32   1.083559 S    
N9    C78   1.358035 A    
C80   C81   1.405241 A    
C48   C53   1.418270 A    
C29   C30   1.398095 A    
O4    C2    1.299907 A    
C73   C74   1.418561 A    
C71   C76   1.405721 A    
C63   Cl3   1.758826 S    
C31   N6    1.376010 A    
C16   H5    1.082499 S    
C67   C86   1.490824 S    
C65   C70   1.402355 A    
C50   H17   1.083005 S    
C47   C48   1.407541 A    
C21   C22   1.408558 A    
C28   C32   1.409679 A    
C37   H14   1.082849 S    
C75   C76   1.405590 A    
C29   H9    1.083159 S    
O5    V1    1.976571 S    
O8    C3    1.297969 A    
C39   C44   1.403319 A    
C2    C76   1.491964 S    
N9    N10   1.332893 A    
C31   O13   1.349175 S    
N7    C70   1.449180 S    
N11   N12   1.335839 A    
C81   C82   1.406093 A    
C5    C10   1.420468 A    
C13   H4    1.083121 S    
C8    C9    1.403161 A    
C74   C75   1.404427 A    
O7    V2    1.705088 S    
C19   O11   1.348593 S    
O4    V1    1.979536 S    
C81   C85   1.492009 S    
C46   O16   1.349282 S    
O27   C88   1.298724 A    
C60   H22   1.083087 S    
C17   C18   1.404112 A    
C51   C52   1.405795 A    
C71   H27   1.083128 S    
V1    O10   1.702668 S    
C66   N14   1.437016 S    
C58   O18   1.348957 S    
C23   C30   1.406263 A    
C16   C17   1.400478 A    
C53   C54   1.408344 A    
C65   C66   1.406586 A    
O26   V4    1.981149 S    
C9    C10   1.409314 A    
C4    C10   1.496074 S    
O19   C86   1.298573 A    
C35   C36   1.407429 A    
V4    O28   2.153368 S    
C14   Cl6   1.763176 S    
N12   C78   1.361115 A    
C9    H3    1.083061 S    
C24   H7    1.083167 S    
C42   H16   1.083658 S    
C7    C8    1.405958 A    
C48   C49   1.408267 A    
C26   C27   1.407590 A    
C57   O17   1.349143 S    
N2    C11   1.360958 A    
O3    V1    1.979014 S    
O23   V3    1.978890 S    
C68   H25   1.083256 S    
O1    C2    1.297778 A    
C36   C37   1.401620 A    
C50   C51   1.398050 A    
O9    C4    1.304392 A    
C54   C58   1.410270 A    
C26   C31   1.410541 A    
C7    C12   1.492217 S    
