data_mof_unit_30707.cif
_audit_creation_date              2012-12-10T16:43:01-0500
_audit_creation_method            fapswitch 2.2
_symmetry_space_group_name_H-M    P1
_symmetry_Int_Tables_number       1
_space_group_crystal_system       triclinic
_cell_length_a                    7.513593
_cell_length_b                    8.714582
_cell_length_c                    13.052752
_cell_angle_alpha                 86.575783
_cell_angle_beta                  80.292816
_cell_angle_gamma                 103.270641
_cell_volume                      815.605950313

loop_
_atom_site_label
_atom_site_type_symbol
_atom_type_description
_atom_site_fract_x
_atom_site_fract_y
_atom_site_fract_z
_atom_type_partial_charge
C1    C     C_R   0.452816 0.199973 0.504056 0.781902
C2    C     C_R   0.712783 0.488335 0.126067 -0.294396
C3    C     C_R   0.589449 0.465351 0.865145 0.452100
C4    C     C_R   0.391126 0.506306 0.138295 0.435487
C5    C     C_R   0.578424 0.486000 0.971210 0.002217
C6    C     C_R   0.413799 0.512090 0.029417 0.007285
C7    C     C_2   0.427485 0.031807 0.514060 0.265011
C8    C     C_2   0.571499 0.968149 0.482494 0.253532
C9    C     C_3   0.111460 0.348757 0.217543 -0.222775
C10   C     C_3   0.680294 0.237818 0.839841 -0.290577
C11   C     C_3   0.937955 0.213025 0.612360 0.005314
C12   C     C_R   0.547142 0.800094 0.494656 0.797039
C13   C     C_3   0.054242 0.770194 0.364742 -0.010229
C14   C     C_R   0.467725 0.495709 0.700909 0.803446
C15   C     C_R   0.531284 0.502955 0.299146 0.792598
C16   C     C_R   0.544611 0.500303 0.186424 -0.136721
C17   C     C_R   0.450931 0.498941 0.813641 -0.143607
C18   C     C_R   0.273292 0.539602 0.978109 -0.211045
C19   C     C_R   0.727558 0.475834 0.020156 -0.202274
C20   C     C_R   0.293648 0.536680 0.870789 -0.273773
Cu1   Cu    Cu3+1 0.686350 0.517570 0.488220 1.065665
Cu2   Cu    Cu3+1 0.313650 0.482430 0.511780 1.071567
F1    F     F_    0.256984 0.942391 0.562452 -0.694578
F2    F     F_    0.740120 0.057281 0.431438 -0.722865
H1    H     H_    0.832086 0.484005 0.161105 0.203604
H2    H     H_    0.618985 0.200288 0.923973 0.139635
H3    H     H_    0.044140 0.207328 0.661211 0.150066
H4    H     H_    0.975206 0.174187 0.533727 0.207339
H5    H     H_    0.807218 0.126531 0.649884 0.098974
H6    H     H_    0.036583 0.834196 0.435468 0.200559
H7    H     H_    0.933160 0.756642 0.325196 0.157902
H8    H     H_    0.175556 0.845097 0.309158 0.107865
H9    H     H_    0.184964 0.562702 0.832700 0.214931
H10   H     H_    0.149603 0.566880 0.020498 0.184422
H11   H     H_    0.856327 0.459326 0.976397 0.186520
H12   H     H_    0.185558 0.268075 0.252662 0.150473
H13   H     H_    0.068474 0.303524 0.145340 0.127714
H14   H     H_    0.983464 0.345711 0.274973 0.230655
H15   H     H_    0.807709 0.192970 0.824392 0.179326
H16   H     H_    0.581061 0.180532 0.791170 0.159888
N1    N     N_2   0.033570 0.455950 0.529530 0.155224
N2    N     N_2   0.966430 0.544050 0.470470 0.151062
O1    O     O_R   0.621060 0.286250 0.492350 -0.536432
O2    O     O_3   0.729968 0.404066 0.813888 -0.541803
O3    O     O_3   0.904966 0.365098 0.607078 -0.453415
O4    O     O_3   0.093175 0.623558 0.387720 -0.458859
O5    O     O_R   0.378940 0.713750 0.507650 -0.524715
O6    O     O_R   0.306310 0.256580 0.512240 -0.622071
O7    O     O_R   0.693690 0.743420 0.487760 -0.610546
O8    O     O_R   0.631800 0.512400 0.642670 -0.504512
O9    O     O_R   0.368200 0.487600 0.357330 -0.514009
O10   O     O_R   0.317060 0.482730 0.662570 -0.591583
O11   O     O_R   0.682940 0.517270 0.337430 -0.613524
O12   O     O_3   0.219795 0.506853 0.197024 -0.565010

loop_
_geom_bond_atom_site_label_1
_geom_bond_atom_site_label_2
_ccdc_geom_bond_type
C4    C16   A    
C9    H12   S    
Cu2   O6    S    
C1    O6    A    
C5    C19   A    
C15   O9    A    
C2    C16   A    
N1    N2    D    
C13   H8    S    
C11   H3    S    
C8    C12   S    
C10   H2    S    
Cu1   O7    S    
C12   O7    A    
C7    C8    D    
C19   H11   S    
Cu1   Cu2   S    
Cu1   O11   S    
C18   H10   S    
C14   C17   S    
C14   O8    A    
C11   H4    S    
C12   O5    A    
C7    F1    S    
C20   H9    S    
C15   O11   A    
C4    C6    A    
Cu1   O8    S    
C8    F2    S    
C13   H7    S    
C3    C17   A    
C2    H1    S    
C18   C20   A    
C5    C6    A    
C6    C18   A    
Cu2   O5    S    
C3    O2    S    
C11   O3    S    
Cu2   N1    S    
C10   H15   S    
C14   O10   A    
C10   O2    S    
C15   C16   S    
C13   H6    S    
C17   C20   A    
C11   H5    S    
Cu2   O10   S    
C9    H13   S    
N2    O4    S    
N1    O3    S    
C13   O4    S    
C9    H14   S    
C10   H16   S    
C9    O12   S    
C4    O12   S    
C2    C19   A    
C1    C7    S    
C1    O1    A    
Cu1   O1    S    
Cu1   N2    S    
Cu2   O9    S    
C3    C5    A    
