data_mof_unit_40533.cif
_audit_creation_date              2012-12-11T15:39:03-0500
_audit_creation_method            fapswitch 2.2
_symmetry_space_group_name_H-M    P1
_symmetry_Int_Tables_number       1
_space_group_crystal_system       triclinic
_cell_length_a                    14.344216
_cell_length_b                    14.787298
_cell_length_c                    33.207341
_cell_angle_alpha                 97.624819
_cell_angle_beta                  90.297376
_cell_angle_gamma                 118.924424
_cell_volume                      6090.96771868

loop_
_atom_site_label
_atom_site_type_symbol
_atom_type_description
_atom_site_fract_x
_atom_site_fract_y
_atom_site_fract_z
_atom_type_partial_charge
C1    C     C_R   0.616826 0.910535 0.436924 0.545626
C2    C     C_R   0.739180 0.411143 0.185459 0.035245
C3    C     C_R   0.755916 0.857949 0.636770 0.246901
C4    C     C_R   0.667206 0.784723 0.654889 0.049424
C5    C     C_R   0.634118 0.859857 0.585508 -0.069796
C6    C     C_R   0.052092 0.781322 0.063800 0.544488
C7    C     C_R   0.743659 0.486314 0.066054 0.546640
C8    C     C_R   0.742868 0.789303 0.066387 0.553169
C9    C     C_R   0.021648 0.732162 0.947393 0.533187
C10   C     C_R   0.712429 0.438111 0.949122 0.532788
C11   C     C_R   0.743515 0.716511 0.945905 0.567458
C12   C     C_R   0.821645 0.418234 0.161369 -0.119356
C13   C     C_R   0.820376 0.436538 0.121283 -0.125546
C14   C     C_R   0.756955 0.322565 0.241185 -0.102591
C15   C     C_R   0.750510 0.307980 0.282346 0.294352
C16   C     C_R   0.729522 0.375135 0.310518 0.038872
C17   C     C_R   0.722386 0.458615 0.298150 -0.172801
C18   C     C_R   0.730176 0.472761 0.257578 -0.134512
C19   C     C_R   0.744746 0.403327 0.228809 -0.014471
C20   C     C_R   0.604983 0.334170 0.365271 -0.120547
C21   C     C_R   0.594149 0.205527 0.456644 0.548590
C22   C     C_R   0.571500 0.293083 0.401192 -0.125877
C23   C     C_R   0.740289 0.295958 0.412415 -0.122336
C24   C     C_R   0.773561 0.336912 0.376510 -0.075178
C25   C     C_R   0.704278 0.352038 0.351960 0.061229
C26   C     C_R   0.637158 0.269482 0.424110 0.022769
C27   C     C_R   0.245431 0.878373 0.393309 0.020855
C28   C     C_R   0.233398 0.959728 0.380727 -0.126210
C29   C     C_R   0.209784 0.957543 0.339625 -0.112950
C30   C     C_R   0.197284 0.873888 0.310696 0.041732
C31   C     C_R   0.202344 0.789532 0.323204 -0.112816
C32   C     C_R   0.295767 0.892867 0.434363 0.543141
C33   C     C_R   0.226045 0.791525 0.364278 -0.128151
C34   C     C_R   0.196446 0.808344 0.163046 -0.110703
C35   C     C_R   0.168229 0.786830 0.121216 -0.124489
C36   C     C_R   0.089586 0.900375 0.129742 -0.128636
C37   C     C_R   0.117396 0.921315 0.171692 -0.114749
C38   C     C_R   0.167404 0.872294 0.188514 0.040215
C39   C     C_1   0.178732 0.877756 0.231900 -0.028706
C40   C     C_1   0.186453 0.877291 0.267980 -0.028229
C41   C     C_R   0.110371 0.829009 0.104401 0.020233
C42   C     C_R   0.636826 0.880278 0.395107 0.021027
C43   C     C_R   0.613602 0.904861 0.551638 0.549292
C44   C     C_R   0.551637 0.802795 0.367945 -0.128896
C45   C     C_R   0.563247 0.792459 0.326151 -0.113962
C46   C     C_R   0.660087 0.858778 0.311229 0.044575
C47   C     C_R   0.747439 0.930920 0.338192 -0.105592
C48   C     C_R   0.736070 0.941537 0.379959 -0.119858
C49   C     C_R   0.775680 0.924752 0.173841 -0.116741
C50   C     C_R   0.791489 0.909852 0.132562 -0.129310
C51   C     C_R   0.618228 0.752726 0.121503 -0.126804
C52   C     C_R   0.602570 0.767937 0.162688 -0.114795
C53   C     C_R   0.682841 0.851751 0.189089 0.040956
C54   C     C_R   0.589776 0.199609 0.570836 0.541857
C55   C     C_1   0.674459 0.856197 0.232148 -0.031344
C56   C     C_1   0.667987 0.857263 0.268228 -0.027622
C57   C     C_R   0.714761 0.821108 0.106392 0.021503
C58   C     C_R   0.623905 0.251801 0.613510 0.022913
C59   C     C_R   0.559458 0.284205 0.635946 -0.125311
C60   C     C_R   0.577182 0.310427 0.678281 -0.116129
C61   C     C_R   0.659490 0.304833 0.698551 0.042454
C62   C     C_R   0.728756 0.280099 0.676311 -0.107233
C63   C     C_R   0.711451 0.254150 0.633954 -0.121680
C64   C     C_R   0.764550 0.349316 0.844611 -0.115519
C65   C     C_R   0.288841 0.886668 0.548437 0.545508
C66   C     C_R   0.773310 0.373676 0.887011 -0.128783
C67   C     C_R   0.594588 0.352246 0.884579 -0.126752
C68   C     C_R   0.586082 0.327887 0.842191 -0.114553
C69   C     C_R   0.672473 0.330145 0.822145 0.041395
C70   C     C_1   0.669681 0.321164 0.778609 -0.032679
C71   C     C_1   0.666514 0.314980 0.742124 -0.033237
C72   C     C_R   0.690241 0.380117 0.907294 0.021436
C73   C     C_R   0.066779 0.753102 0.908053 0.022579
C74   C     C_R   0.100523 0.851003 0.895987 -0.142184
C75   C     C_R   0.118425 0.863386 0.855416 -0.128962
C76   C     C_R   0.735935 0.446725 0.104896 0.021459
C77   C     C_R   0.103494 0.778190 0.826567 0.033994
C78   C     C_R   0.077407 0.682500 0.839275 -0.116170
C79   C     C_R   0.059562 0.670127 0.879778 -0.121819
C80   C     C_R   0.160847 0.742552 0.758604 -0.121658
C81   C     C_R   0.164709 0.748688 0.717245 -0.080755
C82   C     C_R   0.116238 0.798182 0.699484 0.068142
C83   C     C_R   0.064137 0.842020 0.723694 -0.109667
C84   C     C_R   0.060996 0.836639 0.765254 -0.114856
C85   C     C_R   0.109411 0.786854 0.782982 0.030655
C86   C     C_R   0.180210 0.917446 0.648375 -0.166976
C87   C     C_R   0.650019 0.432232 0.128397 -0.125278
C88   C     C_R   0.224373 0.940268 0.611477 -0.148313
C89   C     C_R   0.162899 0.756141 0.589089 -0.117922
C90   C     C_R   0.119714 0.732177 0.626675 0.290302
C91   C     C_R   0.132832 0.814760 0.656914 0.058013
C92   C     C_R   0.221126 0.860454 0.582609 -0.022610
C93   C     C_R   0.728038 0.702107 0.901124 0.016685
C94   C     C_R   0.629969 0.633528 0.878549 -0.125538
C95   C     C_R   0.620271 0.632794 0.836306 -0.116601
C96   C     C_R   0.708849 0.699634 0.816598 0.035216
C97   C     C_R   0.807988 0.760586 0.838916 -0.112869
C98   C     C_R   0.652038 0.415232 0.168443 -0.117274
C99   C     C_R   0.817153 0.762356 0.880533 -0.122551
C100  C     C_R   0.743920 0.820905 0.766600 -0.127238
C101  C     C_R   0.736118 0.841511 0.727504 -0.097870
C102  C     C_R   0.682492 0.759344 0.695212 0.087543
C103  C     C_R   0.636553 0.655460 0.702759 -0.063601
C104  C     C_R   0.643937 0.634591 0.742288 -0.116756
C105  C     C_R   0.698025 0.717498 0.774486 0.026459
C106  C     C_R   0.562789 0.748074 0.637769 0.230041
C107  C     C_R   0.547330 0.783857 0.602794 -0.126707
C108  C     C_R   0.738157 0.894583 0.601842 -0.138300
Cr1   Cr    Cr6+3 0.424820 0.846020 0.489780 1.010459
Cr2   Cr    Cr6+3 0.657880 0.078580 0.505700 1.010345
Cr3   Cr    Cr6+3 0.417280 0.075360 0.504550 1.012393
Cr4   Cr    Cr6+3 0.903360 0.812540 0.006510 1.003330
Cr5   Cr    Cr6+3 0.914630 0.587050 0.006280 1.004593
Cr6   Cr    Cr6+3 0.673560 0.582680 0.008540 1.008975
H1    H     H_    0.583655 0.439279 0.116617 0.129775
H2    H     H_    0.491873 0.273827 0.409578 0.126918
H3    H     H_    0.889103 0.414485 0.174152 0.101258
H4    H     H_    0.793184 0.279842 0.429810 0.121641
H5    H     H_    0.185257 0.731609 0.102477 0.124189
H6    H     H_    0.235402 0.770237 0.175795 0.108211
H7    H     H_    0.192409 0.724208 0.300988 0.105131
H8    H     H_    0.235162 0.727921 0.372867 0.122377
H9    H     H_    0.248057 0.027877 0.402249 0.123947
H10   H     H_    0.094506 0.970899 0.191199 0.104576
H11   H     H_    0.044172 0.933250 0.117788 0.124295
H12   H     H_    0.887533 0.447232 0.103799 0.125012
H13   H     H_    0.205630 0.023026 0.330239 0.105068
H14   H     H_    0.866807 0.963538 0.121865 0.120256
H15   H     H_    0.838168 0.989954 0.194187 0.096361
H16   H     H_    0.803148 0.001830 0.400091 0.125573
H17   H     H_    0.474072 0.754890 0.378599 0.125399
H18   H     H_    0.530357 0.711246 0.174304 0.104100
H19   H     H_    0.557588 0.683878 0.102056 0.121285
H20   H     H_    0.848152 0.394992 0.903515 0.123825
H21   H     H_    0.851131 0.351948 0.366846 0.119898
H22   H     H_    0.792925 0.275959 0.691822 0.103966
H23   H     H_    0.762559 0.229630 0.617598 0.125410
H24   H     H_    0.491648 0.283513 0.621116 0.128316
H25   H     H_    0.514300 0.312697 0.824955 0.103221
H26   H     H_    0.529325 0.356830 0.899160 0.125977
H27   H     H_    0.523541 0.330097 0.695332 0.101775
H28   H     H_    0.107144 0.916197 0.917414 0.116767
H29   H     H_    0.032790 0.593554 0.888244 0.124083
H30   H     H_    0.208694 0.717746 0.699355 0.105907
H31   H     H_    0.200123 0.705243 0.771717 0.098121
H32   H     H_    0.140641 0.938472 0.846332 0.102518
H33   H     H_    0.027338 0.881467 0.710535 0.136922
H34   H     H_    0.020596 0.871160 0.783430 0.095718
H35   H     H_    0.191129 0.981384 0.671569 0.105842
H36   H     H_    0.267868 0.021253 0.606875 0.137948
H37   H     H_    0.064902 0.615515 0.817494 0.106048
H38   H     H_    0.155178 0.694471 0.565480 0.121345
H39   H     H_    0.560463 0.584596 0.893635 0.122176
H40   H     H_    0.893915 0.814549 0.897027 0.136642
H41   H     H_    0.769528 0.922057 0.722664 0.112572
H42   H     H_    0.784288 0.886334 0.791010 0.103168
H43   H     H_    0.542896 0.584601 0.819558 0.102736
H44   H     H_    0.594319 0.590891 0.678193 0.142132
H45   H     H_    0.608403 0.554298 0.747663 0.104777
H46   H     H_    0.466299 0.755062 0.590286 0.150069
H47   H     H_    0.877776 0.811209 0.824462 0.105264
H48   H     H_    0.586788 0.407890 0.186548 0.109058
H49   H     H_    0.804824 0.949622 0.587208 0.129973
H50   H     H_    0.707116 0.510698 0.319757 0.116812
H51   H     H_    0.721539 0.536070 0.248331 0.124541
H52   H     H_    0.550647 0.345674 0.346559 0.106395
O1    O     O_R   0.318160 0.824460 0.443680 -0.521337
O2    O     O_R   0.645130 0.163230 0.552140 -0.503000
O3    O     O_R   0.498360 0.178430 0.555780 -0.519586
O4    O     O_R   0.328690 0.978040 0.538950 -0.498118
O5    O     O_3   0.499990 0.999990 0.500010 -0.235279
O6    O     O_R   0.828710 0.851830 0.052170 -0.515572
O7    O     O_R   0.005980 0.823990 0.047210 -0.501073
O8    O     O_R   0.031900 0.688850 0.050170 -0.513821
O9    O     O_R   0.830940 0.518420 0.048680 -0.497658
O10   O     O_R   0.668160 0.499860 0.053480 -0.518051
O11   O     O_R   0.689170 0.693840 0.050110 -0.495398
O12   O     O_R   0.525040 0.857250 0.449830 -0.501744
O13   O     O_R   0.803860 0.812940 0.962540 -0.512158
O14   O     O_R   0.982950 0.787950 0.964120 -0.527518
O15   O     O_R   0.007050 0.649970 0.960540 -0.517249
O16   O     O_R   0.807910 0.482370 0.965590 -0.504665
O17   O     O_R   0.643310 0.460980 0.963840 -0.526197
O18   O     O_R   0.666140 0.657800 0.967020 -0.499207
O19   O     O_3   0.830520 0.660760 0.007110 -0.260353
O20   O     O_R   0.684760 0.998800 0.456360 -0.517364
O21   O     O_R   0.647540 0.166310 0.470260 -0.500264
O22   O     O_R   0.500960 0.181750 0.467450 -0.518620
O23   O     O_R   0.331100 0.981120 0.457080 -0.500771
O24   O     O_R   0.315560 0.821140 0.532010 -0.523843
O25   O     O_R   0.522630 0.854180 0.531710 -0.498674
O26   O     O_R   0.682160 0.995480 0.544690 -0.517358
H53   H     H_    0.822920 0.982015 0.326822 0.098006
H54   H     H_    0.495393 0.735994 0.305382 0.104719
H55   H     H_    0.831664 0.350799 0.829275 0.103750
O27   O     O_3   0.061349 0.630020 0.634713 -0.556489
C109  C     C_3   0.109805 0.569315 0.620995 -0.135129
H56   H     H_    0.198486 0.613773 0.626736 0.104950
H57   H     H_    0.085881 0.536682 0.588201 0.122624
H58   H     H_    0.080360 0.502217 0.638063 0.142150
O28   O     O_3   0.748435 0.220853 0.294786 -0.557263
C110  C     C_3   0.833013 0.206238 0.279928 -0.136029
H59   H     H_    0.909324 0.281345 0.281505 0.092917
H60   H     H_    0.810969 0.162644 0.248378 0.119860
H61   H     H_    0.846998 0.157603 0.299265 0.138939
H62   H     H_    0.764693 0.267636 0.218362 0.104867
O29   O     O_3   0.858046 0.886065 0.652574 -0.559687
C111  C     C_3   0.928369 0.994478 0.655139 -0.138376
H63   H     H_    0.889590 0.042086 0.665639 0.096969
H64   H     H_    0.962735 0.013061 0.625500 0.125732
H65   H     H_    0.995834 0.017068 0.677863 0.125664
O30   O     O_3   0.475324 0.676616 0.655221 -0.577209
C112  C     C_3   0.429358 0.730142 0.678120 -0.135873
H66   H     H_    0.394681 0.762914 0.658129 0.107799
H67   H     H_    0.488288 0.793097 0.701880 0.120519
H68   H     H_    0.363290 0.673666 0.694003 0.133085

loop_
_geom_bond_atom_site_label_1
_geom_bond_atom_site_label_2
_ccdc_geom_bond_type
C65   C92   S    
C21   C26   S    
C99   H40   S    
C101  C102  A    
C80   C81   A    
C102  C103  A    
C73   C74   A    
C35   H5    S    
C95   C96   A    
C55   C56   T    
C84   H34   S    
C2    C12   A    
C23   H4    S    
C107  H46   S    
C28   H9    S    
Cr4   O6    S    
C1    O20   A    
C27   C33   A    
C44   H17   S    
C12   C13   A    
C28   C29   A    
Cr3   O22   S    
C80   C85   A    
Cr6   O19   S    
C110  H60   S    
C21   O22   A    
C83   C84   A    
C106  C107  A    
C36   C37   A    
C37   C38   A    
C67   C72   A    
C69   C70   S    
C94   H39   S    
C54   C58   S    
C38   C39   S    
C60   H27   S    
C86   C88   A    
C90   O27   S    
C20   C25   A    
C101  H41   S    
Cr6   O17   S    
C64   H55   S    
C16   C25   S    
C18   C19   A    
O30   C112  S    
C34   C35   A    
O28   C110  S    
C23   C26   A    
C62   H22   S    
C109  H57   S    
Cr1   O1    S    
C77   C85   S    
C97   C99   A    
C66   H20   S    
Cr2   O2    S    
C8    O11   A    
C89   H38   S    
Cr5   O15   S    
C88   C92   A    
C68   C69   A    
C6    C41   S    
C4    C102  S    
C23   C24   A    
C31   C33   A    
C21   O21   A    
C70   C71   T    
C51   C57   A    
C112  H67   S    
C93   C99   A    
C87   H1    S    
Cr5   O9    S    
C87   C98   A    
Cr2   O5    S    
C11   C93   S    
C22   H2    S    
Cr4   O7    S    
C5    C43   S    
C106  O30   S    
C59   C60   A    
C95   H43   S    
C7    O10   A    
C10   O17   A    
C63   H23   S    
C54   O3    A    
C48   H16   S    
C36   C41   A    
C109  H56   S    
C9    C73   S    
C35   C41   A    
Cr1   O12   S    
C104  C105  A    
C15   O28   S    
C18   H51   S    
C78   H37   S    
C81   C82   A    
C53   C55   S    
C75   H32   S    
C34   H6    S    
C108  H49   S    
C66   C72   A    
Cr2   O21   S    
C36   H11   S    
C74   C75   A    
C11   O18   A    
O29   C111  S    
C52   H18   S    
C8    O6    A    
C24   C25   A    
C31   H7    S    
C110  H59   S    
C86   H35   S    
Cr4   O19   S    
C78   C79   A    
C111  H63   S    
C6    O8    A    
C59   H24   S    
C58   C59   A    
C77   C78   A    
C4    C106  A    
C110  H61   S    
C82   C91   S    
C67   C68   A    
C7    O9    A    
C60   C61   A    
Cr3   O3    S    
C64   C66   A    
C109  H58   S    
C29   C30   A    
C17   H50   S    
C79   H29   S    
C8    C57   S    
C37   H10   S    
C1    O12   A    
C47   C48   A    
C13   C76   A    
C112  H66   S    
Cr1   O24   S    
Cr6   O11   S    
Cr5   O19   S    
C96   C97   A    
C62   C63   A    
C17   C18   A    
C100  C105  A    
C30   C40   S    
C94   C95   A    
C93   C94   A    
C42   C48   A    
C64   C69   A    
C84   C85   A    
C89   C92   A    
C67   H26   S    
C75   C77   A    
C76   C87   A    
C9    O14   A    
Cr4   O13   S    
C83   H33   S    
C13   H12   S    
C24   H21   S    
C80   H31   S    
C20   C22   A    
C43   O26   A    
Cr3   O23   S    
C97   H47   S    
C14   H62   S    
C33   H8    S    
C10   O16   A    
C49   C50   A    
C11   O13   A    
C104  H45   S    
Cr1   O5    S    
C3    C4    A    
Cr5   O16   S    
C39   C40   T    
C98   H48   S    
C52   C53   A    
C96   C105  S    
C5    C107  A    
C112  H68   S    
C58   C63   A    
C46   C47   A    
Cr2   O20   S    
C2    C19   S    
C34   C38   A    
C50   C57   A    
C88   H36   S    
C14   C19   A    
C47   H53   S    
C44   C45   A    
C54   O2    A    
O27   C109  S    
C73   C79   A    
C103  H44   S    
C7    C76   S    
C45   H54   S    
C6    O7    A    
C3    C108  A    
C20   H52   S    
Cr4   O14   S    
C65   O4    A    
C86   C91   A    
Cr3   O4    S    
C3    O29   S    
C29   H13   S    
C42   C44   A    
C51   C52   A    
C51   H19   S    
C30   C31   A    
C100  H42   S    
C90   C91   A    
C16   C17   A    
C49   H15   S    
Cr1   O25   S    
C111  H65   S    
Cr6   O18   S    
C61   C71   S    
Cr6   O10   S    
C100  C101  A    
C32   O23   A    
Cr3   O5    S    
C74   H28   S    
C61   C62   A    
C81   H30   S    
C49   C53   A    
C9    O15   A    
C27   C32   S    
C43   O25   A    
C12   H3    S    
C45   C46   A    
C1    C42   S    
C50   H14   S    
C65   O24   A    
C2    C98   A    
C111  H64   S    
C82   C83   A    
C22   C26   A    
C32   O1    A    
C46   C56   S    
C103  C104  A    
C14   C15   A    
C68   H25   S    
Cr2   O26   S    
C89   C90   A    
C15   C16   A    
Cr5   O8    S    
C27   C28   A    
C5    C108  A    
C10   C72   S    
