data_mof_unit_63741.cif
_audit_creation_date              2012-12-10T18:41:01-0500
_audit_creation_method            fapswitch 2.2
_symmetry_space_group_name_H-M    P1
_symmetry_Int_Tables_number       1
_space_group_crystal_system       triclinic
_cell_length_a                    19.153901
_cell_length_b                    11.5751
_cell_length_c                    10.772826
_cell_angle_alpha                 90.003213
_cell_angle_beta                  90.000058
_cell_angle_gamma                 89.999976
_cell_volume                      2388.42514459

loop_
_atom_site_label
_atom_site_type_symbol
_atom_type_description
_atom_site_fract_x
_atom_site_fract_y
_atom_site_fract_z
_atom_type_partial_charge
C1    C     C_R   0.500000 0.281150 0.499997 0.915993
C2    C     C_1   0.500000 0.940851 0.500002 0.008406
C3    C     C_1   0.500000 0.499997 0.069745 0.032745
C4    C     C_1   0.500000 0.499997 0.930255 0.032749
C5    C     C_R   0.253422 0.473100 0.612669 -0.189504
C6    C     C_R   0.746552 0.472672 0.387346 -0.189471
C7    C     C_R   0.746578 0.473099 0.612669 -0.189504
C8    C     C_R   0.253448 0.472669 0.387346 -0.189470
C9    C     C_R   0.182261 0.451096 0.612714 -0.159442
C10   C     C_R   0.817715 0.450663 0.387343 -0.159485
C11   C     C_R   0.817739 0.451095 0.612714 -0.159442
C12   C     C_R   0.500000 0.718850 0.500003 0.917246
C13   C     C_R   0.182285 0.450660 0.387343 -0.159485
C14   C     C_R   0.146156 0.439985 0.500039 0.085761
C15   C     C_R   0.853844 0.439985 0.500039 0.085761
C16   C     C_R   0.289390 0.483886 0.499998 -0.037593
C17   C     C_R   0.710609 0.483886 0.499998 -0.037593
C18   C     C_R   0.929547 0.425364 0.500054 0.291060
C19   C     C_R   0.070453 0.425363 0.500054 0.291060
C20   C     C_R   0.364875 0.498398 0.499999 0.862461
C21   C     C_R   0.635125 0.498398 0.499999 0.862461
C22   C     C_1   0.500000 0.161037 0.499994 -0.186360
C23   C     C_1   0.500000 0.838969 0.500005 -0.188146
C24   C     C_1   0.500000 0.059157 0.499997 0.008498
H1    H     H_    0.280283 0.480611 0.700784 0.160520
H2    H     H_    0.719670 0.479837 0.299218 0.160525
H3    H     H_    0.719717 0.480608 0.700784 0.160520
H4    H     H_    0.280330 0.479832 0.299218 0.160524
H5    H     H_    0.155603 0.443821 0.701011 0.152182
H6    H     H_    0.844357 0.443046 0.299064 0.152176
H7    H     H_    0.844397 0.443818 0.701011 0.152182
H8    H     H_    0.155643 0.443041 0.299064 0.152176
N1    N     N_1   0.500000 0.500000 0.180630 -0.081391
N2    N     N_1   0.500000 0.500000 0.819370 -0.081388
N3    N     N_R   0.034625 0.423346 0.391602 -0.177154
N4    N     N_R   0.965376 0.423842 0.608511 -0.177174
N5    N     N_R   0.965375 0.423346 0.391602 -0.177154
N6    N     N_R   0.034624 0.423842 0.608511 -0.177174
O1    O     O_R   0.500000 0.334450 0.602530 -0.606420
O2    O     O_R   0.500000 0.665550 0.397470 -0.605322
O3    O     O_R   0.500000 0.665550 0.602530 -0.605348
O4    O     O_R   0.500000 0.334450 0.397470 -0.606456
O5    O     O_R   0.398140 0.500000 0.602560 -0.616915
O6    O     O_R   0.601860 0.500000 0.397440 -0.616924
O7    O     O_R   0.601860 0.500000 0.602560 -0.616915
O8    O     O_R   0.398140 0.500000 0.397440 -0.616924
Zn1   Zn    Zn3+2 0.500000 0.500000 0.636920 0.981579
Zn2   Zn    Zn3+2 0.500000 0.500000 0.363080 0.981567

loop_
_geom_bond_atom_site_label_1
_geom_bond_atom_site_label_2
_ccdc_geom_bond_type
C6    C10   A    
C15   C18   S    
C9    C14   A    
C5    C9    A    
C8    C13   A    
C19   N6    A    
C21   O6    A    
C10   H6    S    
C13   H8    S    
C9    H5    S    
C16   C20   S    
N4    N6    A    
O3    Zn1   S    
C11   H7    S    
C1    C22   S    
C8    C16   A    
O4    Zn2   S    
C13   C14   A    
N1    Zn2   S    
C7    C11   A    
C12   C23   S    
C18   N4    A    
C6    H2    S    
C11   C15   A    
C5    H1    S    
C22   C24   T    
N3    N5    A    
C18   N5    A    
C21   O7    A    
C10   C15   A    
O7    Zn1   S    
C2    C24   S    
C8    H4    S    
C4    N2    T    
C3    N1    T    
C3    C4    S    
O8    Zn2   S    
C1    O4    A    
C20   O5    A    
C7    H3    S    
C12   O3    A    
O1    Zn1   S    
C2    C23   T    
O2    Zn2   S    
C6    C17   A    
C1    O1    A    
C5    C16   A    
C19   N3    A    
N2    Zn1   S    
C12   O2    A    
O5    Zn1   S    
C14   C19   S    
C20   O8    A    
O6    Zn2   S    
C7    C17   A    
C17   C21   S    
