data_mof_unit_38474.cif
_audit_creation_date              2012-12-10T17:54:23-0500
_audit_creation_method            fapswitch 2.2
_symmetry_space_group_name_H-M    P1
_symmetry_Int_Tables_number       1
_space_group_crystal_system       triclinic
_cell_length_a                    27.704522
_cell_length_b                    10.517463
_cell_length_c                    9.902969
_cell_angle_alpha                 90.598483
_cell_angle_beta                  90.130204
_cell_angle_gamma                 91.569354
_cell_volume                      2884.29067963

loop_
_atom_site_label
_atom_site_type_symbol
_atom_type_description
_atom_site_fract_x
_atom_site_fract_y
_atom_site_fract_z
_atom_type_partial_charge
C1    C     C_R   0.509152 0.263111 0.499580 0.876591
C2    C     C_R   0.277986 0.489959 0.374596 -0.094794
C3    C     C_R   0.252686 0.486200 0.496462 0.308170
C4    C     C_R   0.101326 0.484979 0.494597 -0.060005
C5    C     C_R   0.125745 0.373943 0.528289 -0.001984
C6    C     C_R   0.099360 0.263361 0.560664 -0.113493
C7    C     C_R   0.127929 0.595278 0.458395 -0.121996
C8    C     C_R   0.353299 0.494789 0.498918 -0.049294
C9    C     C_R   0.646528 0.498533 0.500880 -0.030178
C10   C     C_R   0.972869 0.370192 0.511302 0.078008
C11   C     C_R   0.975866 0.603978 0.491704 -0.082326
C12   C     C_R   0.406057 0.498961 0.499785 0.886888
C13   C     C_R   0.949105 0.487523 0.501566 0.005520
C14   C     C_R   0.944760 0.256008 0.510312 -0.197532
C15   C     C_R   0.894691 0.257811 0.506098 -0.118863
C16   C     C_R   0.871011 0.373379 0.504407 -0.000397
C17   C     C_R   0.898124 0.488611 0.503351 -0.060804
C18   C     C_R   0.874220 0.605011 0.504941 -0.120697
C19   C     C_R   0.823750 0.603999 0.504654 0.554435
C20   C     C_R   0.820579 0.376844 0.503321 0.505602
C21   C     C_R   0.721369 0.466616 0.620378 -0.098453
C22   C     C_R   0.671290 0.469809 0.620126 -0.223324
C23   C     C_R   0.506372 0.740304 0.500721 0.903517
C24   C     C_R   0.672422 0.524324 0.382187 -0.227561
C25   C     C_R   0.722519 0.521381 0.382867 -0.108277
C26   C     C_R   0.746909 0.492507 0.501881 0.317873
C27   C     C_R   0.023807 0.371095 0.521688 0.077732
C28   C     C_R   0.050337 0.485578 0.496330 0.005356
C29   C     C_R   0.026336 0.600399 0.471084 -0.085533
C30   C     C_R   0.049247 0.261482 0.556628 -0.189611
C31   C     C_R   0.103741 0.703290 0.417836 -0.230815
C32   C     C_R   0.951176 0.719247 0.508605 0.693159
C33   C     C_R   0.901063 0.719276 0.511727 -0.232146
C34   C     C_R   0.593908 0.500530 0.500236 0.820219
C35   C     C_R   0.053656 0.705328 0.420744 0.694058
C36   C     C_R   0.554448 0.138454 0.738543 -0.147492
C37   C     C_R   0.566767 0.073040 0.854270 -0.155824
C38   C     C_R   0.568274 0.941364 0.851706 -0.146255
C39   C     C_R   0.555722 0.874885 0.734032 -0.140278
C40   C     C_R   0.537954 0.938285 0.620048 0.107122
C41   C     C_R   0.538750 0.072084 0.620467 0.079954
C42   C     C_R   0.526935 0.133953 0.498883 -0.175265
C43   C     C_R   0.532267 0.066913 0.375666 0.104099
C44   C     C_R   0.524934 0.936331 0.377856 -0.237247
C45   C     C_R   0.176259 0.376482 0.528685 0.508463
C46   C     C_R   0.521982 0.873422 0.501421 -0.173390
C47   C     C_R   0.435684 0.336438 0.138221 -0.186599
C48   C     C_R   0.403782 0.256248 0.067075 -0.188915
C49   C     C_R   0.403594 0.256468 0.927335 -0.183768
C50   C     C_R   0.435332 0.336802 0.857923 -0.160696
C51   C     C_R   0.467804 0.420531 0.926637 0.167946
C52   C     C_R   0.467943 0.420301 0.071331 0.159981
C53   C     C_R   0.531824 0.572691 0.072836 -0.124093
C54   C     C_R   0.532231 0.571160 0.929942 -0.127310
C55   C     C_R   0.178358 0.593405 0.459521 0.556647
C56   C     C_R   0.277462 0.485771 0.619580 -0.095159
C57   C     C_R   0.327639 0.490040 0.621004 -0.216976
C58   C     C_R   0.328119 0.494136 0.375612 -0.214215
H1    H     H_    0.347048 0.497084 0.280068 0.169429
H2    H     H_    0.257762 0.483108 0.713880 0.144007
H3    H     H_    0.123464 0.786125 0.380758 0.221381
H4    H     H_    0.654033 0.547236 0.289281 0.160024
H5    H     H_    0.883407 0.809470 0.522511 0.216081
H6    H     H_    0.742458 0.541534 0.291275 0.140126
H7    H     H_    0.560518 0.240193 0.741946 0.169167
H8    H     H_    0.577418 0.125383 0.943785 0.143836
H9    H     H_    0.258702 0.490046 0.279350 0.143784
H10   H     H_    0.580993 0.891053 0.939146 0.127424
H11   H     H_    0.563384 0.775517 0.730062 0.151230
H12   H     H_    0.522499 0.883978 0.283118 0.167904
H13   H     H_    0.557898 0.631991 0.127519 0.140112
H14   H     H_    0.434465 0.328516 0.245148 0.211763
H15   H     H_    0.379358 0.192716 0.120861 0.164313
H16   H     H_    0.379016 0.193096 0.872147 0.164179
H17   H     H_    0.433737 0.328938 0.750868 0.209919
H18   H     H_    0.559599 0.626215 0.878359 0.130274
H19   H     H_    0.117345 0.177259 0.588546 0.200871
H20   H     H_    0.652025 0.449001 0.712711 0.157646
H21   H     H_    0.740415 0.444527 0.712452 0.139692
H22   H     H_    0.874602 0.167952 0.504997 0.201053
H23   H     H_    0.960562 0.163431 0.508680 0.184917
H24   H     H_    0.031289 0.173658 0.585403 0.175218
H25   H     H_    0.346227 0.489820 0.717337 0.167815
N1    N     N_R   0.201261 0.485321 0.495157 -0.358891
N2    N     N_R   0.798262 0.491016 0.502867 -0.359697
N3    N     N_R   0.499540 0.498800 0.142780 -0.119572
N4    N     N_R   0.499520 0.498720 0.857170 -0.122542
O1    O     O_R   0.500000 0.316780 0.614690 -0.648838
O2    O     O_2   0.793964 0.267385 0.502271 -0.549340
O3    O     O_2   0.204410 0.698846 0.426465 -0.543956
O4    O     O_2   0.800215 0.714714 0.506611 -0.544828
O5    O     O_R   0.500000 0.316750 0.385360 -0.637064
O6    O     O_R   0.428760 0.500030 0.614650 -0.629067
O7    O     O_R   0.428750 0.500010 0.385320 -0.629572
O8    O     O_R   0.500000 0.683250 0.614640 -0.612626
O9    O     O_R   0.500000 0.683220 0.385310 -0.608861
O10   O     O_R   0.571250 0.499990 0.614680 -0.642123
O11   O     O_R   0.571240 0.499970 0.385350 -0.625116
O12   O     O_2   0.200287 0.271102 0.561218 -0.548898
Zn1   Zn    Zn3+2 0.500000 0.500020 0.653130 0.924292
Zn2   Zn    Zn3+2 0.500000 0.499980 0.346870 0.930709
F1    F     F_    0.974805 0.831042 0.537182 -0.626291
F2    F     F_    0.032547 0.804778 0.360174 -0.611510
C59   C     C_3   0.552803 0.127497 0.248582 -0.403173
C60   C     C_3   0.602254 0.191702 0.279960 -0.294826
C61   C     C_3   0.624999 0.254892 0.156804 -0.870332
H26   H     H_    0.637852 0.181521 0.085240 0.253668
H27   H     H_    0.598829 0.316989 0.106166 0.259330
H28   H     H_    0.656853 0.314058 0.188873 0.259401
H29   H     H_    0.598364 0.265153 0.359780 0.226597
H30   H     H_    0.627316 0.119722 0.318805 0.229004
H31   H     H_    0.558238 0.053427 0.169587 0.182502
H32   H     H_    0.527599 0.195384 0.203860 0.229678

loop_
_geom_bond_atom_site_label_1
_geom_bond_atom_site_label_2
_ccdc_geom_bond_type
C10   C27   A    
C60   H29   S    
C41   C42   A    
C31   H3    S    
C7    C55   A    
C21   C26   A    
C53   C54   A    
C56   C57   A    
C40   C46   A    
C36   C37   A    
C55   O3    S    
C35   F2    S    
C38   C39   A    
C9    C22   A    
C61   H26   S    
C15   C16   A    
C34   O10   A    
C23   O9    A    
C18   C19   A    
C43   C59   S    
C8    C58   A    
C15   H22   S    
O7    Zn2   S    
C16   C17   A    
C57   H25   S    
C44   H12   S    
C53   N3    A    
C8    C12   S    
C1    O1    A    
C60   H30   S    
C49   H16   S    
C23   C46   S    
C21   C22   A    
C37   H8    S    
C27   C30   A    
C12   O7    A    
C36   C41   A    
C4    C7    A    
C59   C60   S    
C4    C28   A    
C44   C46   A    
C17   C18   A    
C33   H5    S    
C7    C31   A    
C51   C52   A    
C24   C25   A    
C22   H20   S    
C2    H9    S    
C10   C14   A    
C51   N4    A    
C39   C40   A    
C59   H31   S    
C36   H7    S    
C6    H19   S    
C58   H1    S    
C5    C45   A    
C56   H2    S    
C25   H6    S    
C30   H24   S    
C43   C44   A    
C37   C38   A    
C8    C57   A    
C3    C56   A    
C47   C48   A    
C16   C20   A    
C20   N2    A    
C21   H21   S    
C50   C51   A    
C39   H11   S    
O6    Zn1   S    
O1    Zn1   S    
O5    Zn2   S    
C54   N4    A    
C54   H18   S    
C40   C41   A    
C6    C30   A    
C38   H10   S    
C11   C32   A    
C1    O5    A    
C45   O12   S    
C9    C34   S    
C31   C35   A    
C12   O6    A    
C45   N1    A    
C42   C43   A    
C53   H13   S    
C3    N1    S    
O10   Zn1   S    
N4    Zn1   S    
C20   O2    S    
C28   C29   A    
C24   H4    S    
O8    Zn1   S    
C48   H15   S    
C4    C5    A    
C19   N2    A    
C10   C13   A    
C2    C58   A    
C9    C24   A    
C47   C52   A    
O11   Zn2   S    
C60   C61   S    
C29   C35   A    
C13   C17   A    
C32   C33   A    
C52   N3    A    
C2    C3    A    
C25   C26   A    
C50   H17   S    
C11   C13   A    
C5    C6    A    
C61   H27   S    
C26   N2    S    
C48   C49   A    
C34   O11   A    
C23   O8    A    
C32   F1    S    
C18   C33   A    
C47   H14   S    
C19   O4    S    
C59   H32   S    
C1    C42   S    
C11   C29   A    
C49   C50   A    
C27   C28   A    
C14   C15   A    
C14   H23   S    
C55   N1    A    
O9    Zn2   S    
N3    Zn2   S    
C61   H28   S    
