data_mof_unit_27992.cif
_audit_creation_date              2012-12-11T15:31:38-0500
_audit_creation_method            fapswitch 2.2
_symmetry_space_group_name_H-M    P1
_symmetry_Int_Tables_number       1
_space_group_crystal_system       triclinic
_cell_length_a                    13.578732
_cell_length_b                    13.58621
_cell_length_c                    27.679442
_cell_angle_alpha                 90.394411
_cell_angle_beta                  90.137165
_cell_angle_gamma                 119.984783
_cell_volume                      4422.74532943

loop_
_atom_site_label
_atom_site_type_symbol
_atom_type_description
_atom_site_fract_x
_atom_site_fract_y
_atom_site_fract_z
_atom_type_partial_charge
C1    C     C_R   0.619519 0.898355 0.431282 0.541382
C2    C     C_R   0.221895 0.947116 0.261270 0.017153
C3    C     C_R   0.204755 0.934436 0.210622 -0.086229
C4    C     C_R   0.599717 0.218438 0.431283 0.547944
C5    C     C_R   0.105334 0.729492 0.217901 -0.111301
C6    C     C_R   0.122001 0.740186 0.267795 -0.109681
C7    C     C_R   0.180064 0.847783 0.289714 0.039242
C8    C     C_R   0.147360 0.826268 0.189170 0.021541
C9    C     C_1   0.124890 0.812906 0.137905 -0.057437
C10   C     C_1   0.203667 0.854497 0.340971 -0.062977
C11   C     C_1   0.097117 0.794361 0.095909 -0.007705
C12   C     C_R   0.630277 0.234768 0.208698 -0.113649
C13   C     C_1   0.634746 0.865965 0.383649 0.009892
C14   C     C_R   0.640529 0.906631 0.258589 -0.170647
C15   C     C_R   0.646500 0.894169 0.208676 -0.125201
C16   C     C_R   0.279576 0.878909 0.430526 0.541748
C17   C     C_R   0.667494 0.729365 0.221998 -0.072750
C18   C     C_R   0.661541 0.741766 0.271999 0.395075
C19   C     C_R   0.648705 0.831064 0.290426 0.048828
C20   C     C_R   0.660314 0.805690 0.190246 -0.017633
C21   C     C_1   0.674573 0.796667 0.139153 -0.049539
C22   C     C_1   0.642708 0.846571 0.341686 0.012677
C23   C     C_R   0.620051 0.217289 0.258592 -0.116253
C24   C     C_1   0.692639 0.786964 0.097243 -0.005415
C25   C     C_R   0.640427 0.279420 0.615143 0.024102
C26   C     C_R   0.722498 0.266041 0.640549 -0.124003
C27   C     C_R   0.735197 0.285432 0.689788 -0.121983
C28   C     C_R   0.620521 0.900450 0.568948 0.562465
C29   C     C_R   0.669126 0.322540 0.714017 0.035486
C30   C     C_R   0.596140 0.347991 0.687768 -0.119150
C31   C     C_R   0.581042 0.325527 0.638469 -0.123947
C32   C     C_R   0.576135 0.302344 0.793456 -0.120200
C33   C     C_R   0.584320 0.323727 0.842843 -0.127872
C34   C     C_R   0.667096 0.310287 0.290695 0.025810
C35   C     C_R   0.786794 0.390587 0.839711 -0.123752
C36   C     C_R   0.779162 0.372220 0.790388 -0.122884
C37   C     C_R   0.674615 0.331832 0.766668 0.033773
C38   C     C_R   0.690767 0.372886 0.865723 0.020312
C39   C     C_R   0.222693 0.862705 0.614699 0.022741
C40   C     C_R   0.601784 0.223082 0.568423 0.544410
C41   C     C_R   0.237090 0.956714 0.641864 -0.127184
C42   C     C_R   0.210245 0.944938 0.690595 -0.115974
C43   C     C_R   0.166978 0.838722 0.712569 0.037261
C44   C     C_R   0.143606 0.742968 0.684496 -0.111702
C45   C     C_R   0.687690 0.345474 0.190693 0.033250
C46   C     C_R   0.171764 0.754949 0.635834 -0.103307
C47   C     C_R   0.178115 0.758939 0.791707 -0.082253
C48   C     C_R   0.152033 0.741049 0.840581 0.372948
C49   C     C_R   0.076784 0.869790 0.837009 -0.186850
C50   C     C_R   0.101609 0.886294 0.788198 -0.146457
C51   C     C_R   0.149193 0.828314 0.764906 -0.025578
C52   C     C_R   0.279537 0.881417 0.568152 0.541538
C53   C     C_R   0.097324 0.793444 0.863173 0.028983
C54   C     C_R   0.639614 0.861163 0.615417 0.027827
C55   C     C_R   0.550035 0.765610 0.637942 0.372109
C56   C     C_1   0.694171 0.365420 0.139492 -0.059712
C57   C     C_R   0.557725 0.746344 0.686585 -0.079812
C58   C     C_R   0.655334 0.819826 0.713237 -0.023982
C59   C     C_R   0.748736 0.908453 0.689745 -0.145192
C60   C     C_R   0.740775 0.929319 0.641212 -0.185774
C61   C     C_R   0.711273 0.901634 0.796249 -0.111524
C62   C     C_R   0.722903 0.888584 0.845327 -0.123189
C63   C     C_R   0.619000 0.683694 0.834567 -0.113523
C64   C     C_1   0.631368 0.264415 0.383709 -0.006467
C65   C     C_R   0.609489 0.696745 0.785427 -0.114619
C66   C     C_R   0.658338 0.805849 0.765670 0.038114
C67   C     C_1   0.650951 0.290339 0.341819 -0.059215
C68   C     C_R   0.679817 0.779580 0.864430 0.029178
C69   C     C_R   0.049244 0.761107 0.048261 0.547917
C70   C     C_R   0.714303 0.435865 0.049749 0.543639
C71   C     C_R   0.723582 0.770697 0.049564 0.547745
C72   C     C_R   0.043962 0.755945 0.910462 0.569404
C73   C     C_R   0.707986 0.428509 0.912556 0.537282
C74   C     C_R   0.717323 0.765033 0.911880 0.541970
C75   C     C_R   0.725294 0.420985 0.272712 -0.086816
C76   C     C_R   0.735615 0.438490 0.222806 -0.101827
C77   C     C_3   0.283632 0.063384 0.286016 -0.254793
C78   C     C_1   0.701526 0.390897 0.097484 -0.012088
C79   C     C_3   0.320254 0.166143 0.252871 -0.318083
C80   C     C_3   0.373925 0.277082 0.281881 -0.416264
C81   C     C_1   0.231786 0.862845 0.382859 -0.012235
Cr1   Cr    Cr6+3 0.417720 0.831920 0.499820 1.094099
Cr2   Cr    Cr6+3 0.668190 0.085770 0.500360 1.026056
Cr3   Cr    Cr6+3 0.414060 0.082260 0.499840 1.028311
Cr4   Cr    Cr6+3 0.908000 0.821090 0.979770 1.025599
Cr5   Cr    Cr6+3 0.912420 0.571130 0.979880 1.061401
Cr6   Cr    Cr6+3 0.657970 0.566940 0.980940 1.034287
F1    F     F_    0.669185 0.667578 0.302225 -0.646706
F2    F     F_    0.176211 0.669368 0.865067 -0.622188
F3    F     F_    0.451653 0.694836 0.614197 -0.623879
H1    H     H_    0.761397 0.493465 0.297135 0.159226
H2    H     H_    0.547610 0.380980 0.705615 0.106578
H3    H     H_    0.779750 0.524571 0.209233 0.115527
H4    H     H_    0.518348 0.337722 0.619310 0.137200
H5    H     H_    0.276824 0.040997 0.626494 0.135809
H6    H     H_    0.218609 0.716557 0.774552 0.136711
H7    H     H_    0.229065 0.020012 0.711557 0.106267
H8    H     H_    0.078485 0.940146 0.768250 0.121844
H9    H     H_    0.034324 0.911146 0.853322 0.149246
H10   H     H_    0.106859 0.659541 0.700527 0.110512
H11   H     H_    0.159053 0.681131 0.615425 0.148237
H12   H     H_    0.641777 0.954207 0.184579 0.126359
H13   H     H_    0.592185 0.162294 0.184285 0.107490
H14   H     H_    0.746394 0.986640 0.782030 0.109370
H15   H     H_    0.769939 0.963485 0.867903 0.126882
H16   H     H_    0.484712 0.677071 0.703835 0.132173
H17   H     H_    0.568928 0.621478 0.762664 0.104519
H18   H     H_    0.586511 0.598605 0.848371 0.137931
H19   H     H_    0.826645 0.963826 0.709252 0.119183
H20   H     H_    0.811577 0.002361 0.624682 0.140941
H21   H     H_    0.573863 0.131302 0.272153 0.102544
H22   H     H_    0.235146 0.007437 0.187379 0.106834
H23   H     H_    0.679113 0.661132 0.208073 0.124956
H24   H     H_    0.059520 0.645425 0.201672 0.118562
H25   H     H_    0.090458 0.664130 0.289356 0.120382
H26   H     H_    0.630324 0.975772 0.272419 0.114440
H27   H     H_    0.310375 0.278515 0.306630 0.160903
H28   H     H_    0.447186 0.286700 0.303458 0.179751
H29   H     H_    0.404443 0.350030 0.256881 0.166782
H30   H     H_    0.383378 0.170187 0.226297 0.168478
H31   H     H_    0.245055 0.158060 0.233192 0.166688
H32   H     H_    0.226420 0.065697 0.314132 0.160283
H33   H     H_    0.360539 0.072379 0.304531 0.147589
H34   H     H_    0.769837 0.230766 0.623426 0.136053
H35   H     H_    0.493739 0.266842 0.775996 0.106624
H36   H     H_    0.509054 0.308319 0.862456 0.130836
H37   H     H_    0.791833 0.264791 0.709127 0.103704
H38   H     H_    0.856486 0.395996 0.770621 0.111275
H39   H     H_    0.870175 0.428441 0.856471 0.158666
O1    O     O_R   0.302900 0.805360 0.446400 -0.504588
O2    O     O_R   0.638120 0.455970 0.034270 -0.504736
O3    O     O_R   0.667540 0.672320 0.030160 -0.491188
O4    O     O_R   0.522090 0.841370 0.450730 -0.492284
O5    O     O_R   0.814460 0.840990 0.926980 -0.520055
O6    O     O_R   0.001710 0.811400 0.930110 -0.521773
O7    O     O_R   0.023410 0.659800 0.926210 -0.442990
O8    O     O_R   0.806940 0.473170 0.931090 -0.506068
O9    O     O_R   0.633420 0.451310 0.927930 -0.520239
O10   O     O_R   0.663190 0.668000 0.931580 -0.499344
O11   O     O_3   0.826130 0.653050 0.980200 -0.258017
O12   O     O_R   0.657980 0.180990 0.549630 -0.506461
O13   O     O_R   0.693280 0.995650 0.447220 -0.507840
O14   O     O_R   0.657260 0.178740 0.451050 -0.494086
O15   O     O_R   0.502640 0.195380 0.446850 -0.503907
O16   O     O_R   0.319630 0.976590 0.450330 -0.498495
O17   O     O_R   0.303680 0.807790 0.552740 -0.481396
O18   O     O_R   0.522820 0.843620 0.549310 -0.421032
O19   O     O_R   0.694060 0.998080 0.553560 -0.537172
O20   O     O_R   0.503420 0.197810 0.553190 -0.516349
O21   O     O_R   0.320350 0.978840 0.548910 -0.508998
O22   O     O_3   0.499990 0.999990 0.500010 -0.261743
O23   O     O_R   0.819150 0.845650 0.033320 -0.504316
O24   O     O_R   0.006060 0.815720 0.028680 -0.495249
O25   O     O_R   0.028100 0.664460 0.032550 -0.499948
O26   O     O_R   0.811290 0.477490 0.029660 -0.495179

loop_
_geom_bond_atom_site_label_1
_geom_bond_atom_site_label_2
_ccdc_geom_bond_type
C25   C31   A    
C7    C10   S    
C63   C65   A    
C5    H24   S    
C70   C78   S    
C41   C42   A    
C2    C7    A    
Cr6   O11   S    
C75   C76   A    
C4    O14   A    
Cr1   O18   S    
C17   H23   S    
C39   C41   A    
C62   H15   S    
C54   C60   A    
Cr3   O16   S    
C79   H31   S    
C12   C23   A    
C26   C27   A    
C45   C76   A    
C36   C37   A    
C55   F3    S    
C25   C40   S    
C30   C31   A    
C49   C53   A    
C72   O7    A    
C27   C29   A    
C73   O9    A    
Cr3   O15   S    
C68   C74   S    
C17   C20   A    
C56   C78   T    
C18   C19   A    
Cr6   O2    S    
C41   H5    S    
C16   C81   S    
C1    O13   A    
Cr5   O8    S    
C71   O3    A    
C80   H27   S    
C27   H37   S    
C61   C66   A    
C58   C66   S    
C35   C36   A    
C45   C56   S    
C8    C9    S    
C13   C22   T    
C47   H6    S    
C77   H32   S    
Cr1   O1    S    
C16   O1    A    
C35   H39   S    
Cr1   O22   S    
Cr5   O11   S    
C34   C75   A    
Cr3   O20   S    
C39   C52   S    
C80   H29   S    
C59   C60   A    
C40   O12   A    
C15   C20   A    
C26   H34   S    
C1    O4    A    
Cr1   O17   S    
C44   C46   A    
C50   C51   A    
Cr2   O22   S    
C77   C79   S    
C48   C53   A    
C46   H11   S    
C80   H28   S    
C50   H8    S    
C28   O19   A    
C70   O26   A    
C64   C67   T    
C19   C22   S    
C12   H13   S    
C30   H2    S    
C3    C8    A    
C42   H7    S    
Cr2   O12   S    
C28   C54   S    
C72   O6    A    
C47   C51   A    
C58   C59   A    
C69   O24   A    
Cr2   O19   S    
C33   H36   S    
C16   O16   A    
Cr6   O3    S    
Cr5   O26   S    
C29   C30   A    
C77   H33   S    
C76   H3    S    
C49   H9    S    
C47   C48   A    
C3    H22   S    
C23   C34   A    
C79   H30   S    
C61   H14   S    
C17   C18   A    
Cr4   O24   S    
C32   C37   A    
C9    C11   T    
Cr4   O11   S    
Cr4   O6    S    
C39   C46   A    
Cr5   O7    S    
C49   C50   A    
C48   F2    S    
C55   C57   A    
C43   C44   A    
C5    C8    A    
C1    C13   S    
C42   C43   A    
Cr6   O9    S    
C36   H38   S    
C4    C64   S    
C54   C55   A    
C28   O18   A    
C52   O17   A    
C14   C15   A    
C14   C19   A    
C69   O25   A    
Cr6   O10   S    
C12   C45   A    
C34   C67   S    
C4    O15   A    
Cr2   O13   S    
C11   C69   S    
C6    C7    A    
C75   H1    S    
C31   H4    S    
C23   H21   S    
C74   O10   A    
C63   C68   A    
C10   C81   T    
C33   C38   A    
C62   C68   A    
C32   C33   A    
Cr1   O4    S    
C2    C3    A    
C25   C26   A    
Cr4   O23   S    
C2    C77   S    
Cr2   O14   S    
C44   H10   S    
C43   C51   S    
C57   C58   A    
C5    C6    A    
C73   O8    A    
C14   H26   S    
C74   O5    A    
C70   O2    A    
C59   H19   S    
C32   H35   S    
C40   O20   A    
C57   H16   S    
C15   H12   S    
Cr5   O25   S    
C61   C62   A    
C18   F1    S    
C6    H25   S    
C60   H20   S    
C79   C80   S    
Cr3   O22   S    
C20   C21   S    
C52   O21   A    
C65   C66   A    
C21   C24   T    
C29   C37   S    
C71   O23   A    
C35   C38   A    
Cr4   O5    S    
C63   H18   S    
C53   C72   S    
C65   H17   S    
C24   C71   S    
C38   C73   S    
Cr3   O21   S    
