data_mof_unit_61121.cif
_audit_creation_date              2012-12-10T19:30:50-0500
_audit_creation_method            fapswitch 2.2
_symmetry_space_group_name_H-M    P1
_symmetry_Int_Tables_number       1
_space_group_crystal_system       triclinic
_cell_length_a                    17.703941
_cell_length_b                    16.447656
_cell_length_c                    23.51827
_cell_angle_alpha                 89.948911
_cell_angle_beta                  90.21772
_cell_angle_gamma                 90.038376
_cell_volume                      6848.19211348

loop_
_atom_site_label
_atom_site_type_symbol
_atom_type_description
_atom_site_fract_x
_atom_site_fract_y
_atom_site_fract_z
_atom_type_partial_charge
C1    C     C_R   0.355439 0.499985 0.499925 0.908959
C2    C     C_R   0.644559 0.500013 0.500061 0.908859
C3    C     C_R   0.500532 0.573419 0.238573 -0.142982
C4    C     C_R   0.500658 0.573487 0.761308 -0.141230
C5    C     C_R   0.500583 0.573626 0.297831 -0.181705
C6    C     C_R   0.500549 0.573632 0.702052 -0.127692
C7    C     C_R   0.499607 0.499950 0.328096 -0.101049
C8    C     C_R   0.500401 0.499915 0.671907 -0.101954
C9    C     C_R   0.498351 0.426121 0.298044 -0.174247
C10   C     C_R   0.500453 0.426109 0.702080 -0.227184
C11   C     C_R   0.498269 0.425853 0.238691 0.436294
C12   C     C_R   0.500562 0.425900 0.761438 0.440612
C13   C     C_R   0.499494 0.499791 0.208836 0.258037
C14   C     C_R   0.500701 0.499881 0.791174 0.257037
C15   C     C_R   0.846529 0.547798 0.539088 -0.140452
C16   C     C_R   0.153513 0.452064 0.460835 -0.140048
C17   C     C_R   0.153974 0.547993 0.538939 -0.146687
C18   C     C_R   0.845972 0.452063 0.460868 -0.146682
C19   C     C_R   0.767731 0.548165 0.539437 0.330804
C20   C     C_R   0.232313 0.451715 0.460531 0.329396
C21   C     C_R   0.232782 0.548373 0.539215 0.334019
C22   C     C_R   0.767162 0.451704 0.460637 0.332060
C23   C     C_R   0.727338 0.500000 0.500033 -0.216153
C24   C     C_R   0.272658 0.499988 0.499902 -0.216059
C25   C     C_R   0.885417 0.499951 0.499940 -0.018012
C26   C     C_R   0.114577 0.499998 0.499904 -0.018065
C27   C     C_R   0.499842 0.500012 0.390685 0.865964
C28   C     C_R   0.500153 0.499975 0.609316 0.867437
C29   C     C_1   0.966125 0.499950 0.499908 0.038299
C30   C     C_1   0.033869 0.499974 0.499906 0.038359
C31   C     C_R   0.546032 0.828639 0.537981 0.269768
C32   C     C_R   0.454379 0.171367 0.461734 0.274094
C33   C     C_R   0.453836 0.828663 0.462091 0.271768
C34   C     C_R   0.545743 0.171336 0.538192 0.276189
C35   C     C_R   0.545023 0.742864 0.537153 0.038825
C36   C     C_R   0.455370 0.257140 0.462578 0.045334
C37   C     C_R   0.454836 0.742873 0.462926 0.029085
C38   C     C_R   0.544767 0.257125 0.537344 0.034689
C39   C     C_R   0.499958 0.873046 0.500021 -0.082352
C40   C     C_R   0.500035 0.126956 0.499978 -0.086993
C41   C     C_1   0.499984 0.962759 0.500005 0.203123
C42   C     C_1   0.500008 0.037244 0.499992 0.203310
C43   C     C_R   0.567761 0.493846 0.880743 0.605839
C44   C     C_R   0.432711 0.508351 0.119276 0.594978
C45   C     C_R   0.433434 0.508472 0.880125 0.593271
C46   C     C_R   0.567032 0.493663 0.119887 0.601797
C47   C     C_R   0.431860 0.508938 0.939755 -0.026693
C48   C     C_R   0.568664 0.493806 0.060259 -0.027777
C49   C     C_R   0.500358 0.501439 0.970005 -0.007462
C50   C     C_R   0.500174 0.501394 0.030011 -0.007417
C51   C     C_R   0.569031 0.493907 0.940387 -0.028437
C52   C     C_R   0.431495 0.508860 0.059630 -0.027143
C53   C     C_R   0.363728 0.516479 0.969715 -0.124532
C54   C     C_R   0.636815 0.486469 0.030300 -0.123307
C55   C     C_R   0.363547 0.516443 0.029043 -0.123867
C56   C     C_R   0.636998 0.486525 0.970973 -0.122234
Cu1   Cu    Cu3+1 0.500000 0.580420 0.500000 1.023945
Cu2   Cu    Cu3+1 0.500000 0.419580 0.500000 1.028891
H1    H     H_    0.310345 0.522339 0.947446 0.201315
H2    H     H_    0.690195 0.480577 0.052570 0.201601
H3    H     H_    0.310031 0.522279 0.050819 0.201484
H4    H     H_    0.690512 0.480671 0.949197 0.201886
H5    H     H_    0.501424 0.630518 0.215629 0.171968
H6    H     H_    0.500737 0.630620 0.784152 0.174027
H7    H     H_    0.501476 0.631396 0.319885 0.183652
H8    H     H_    0.500556 0.631395 0.679905 0.192386
H9    H     H_    0.497363 0.368616 0.320524 0.205773
H10   H     H_    0.500306 0.368577 0.679694 0.198559
H11   H     H_    0.877443 0.584464 0.569588 0.193739
H12   H     H_    0.122636 0.415312 0.430366 0.194416
H13   H     H_    0.123455 0.584808 0.569374 0.192487
H14   H     H_    0.876452 0.415315 0.430372 0.193127
N1    N     N_R   0.500642 0.500773 0.852074 -0.459163
N2    N     N_R   0.499749 0.500619 0.147938 -0.459440
N3    N     N_R   0.500000 0.701220 0.500000 -0.227464
N4    N     N_R   0.500000 0.298780 0.500000 -0.229546
O1    O     O_R   0.391260 0.567930 0.500000 -0.550343
O2    O     O_R   0.608740 0.432070 0.500000 -0.549712
O3    O     O_R   0.608740 0.567930 0.500000 -0.555939
O4    O     O_R   0.391260 0.432070 0.500000 -0.554875
O5    O     O_R   0.499980 0.567930 0.417880 -0.600956
O6    O     O_R   0.500020 0.432070 0.582120 -0.599498
O7    O     O_R   0.500020 0.567930 0.582120 -0.566292
O8    O     O_R   0.499980 0.432070 0.417880 -0.565539
O9    O     O_2   0.632905 0.486870 0.851553 -0.485816
O10   O     O_2   0.367560 0.515230 0.148468 -0.490111
O11   O     O_2   0.368450 0.515332 0.850339 -0.491374
O12   O     O_2   0.631992 0.486577 0.149677 -0.488383
H15   H     H_    0.580462 0.709375 0.566481 0.204554
H16   H     H_    0.420233 0.290630 0.433043 0.205746
H17   H     H_    0.419203 0.709363 0.433715 0.170681
H18   H     H_    0.580098 0.290629 0.566765 0.172872
Cl1   Cl    Cl    0.496248 0.332416 0.202432 -0.474682
Cl2   Cl    Cl    0.499952 0.332468 0.797847 -0.489719
Cl3   Cl    Cl    0.721901 0.606818 0.591646 -0.564939
Cl4   Cl    Cl    0.278204 0.392941 0.408416 -0.556862
Cl5   Cl    Cl    0.279345 0.607572 0.591083 -0.545054
Cl6   Cl    Cl    0.720526 0.392642 0.408728 -0.536852
Cl7   Cl    Cl    0.605514 0.878292 0.587010 -0.453698
Cl8   Cl    Cl    0.395449 0.121723 0.412325 -0.438643
Cl9   Cl    Cl    0.394294 0.878389 0.413120 -0.476769
Cl10  Cl    Cl    0.604727 0.121610 0.587545 -0.461231

loop_
_geom_bond_atom_site_label_1
_geom_bond_atom_site_label_2
_ccdc_geom_bond_type
C43   N1    A    
C22   Cl6   S    
C1    O1    A    
C41   C42   T    
Cu1   O3    S    
C43   C51   A    
C53   H1    S    
Cu2   N4    S    
C39   C41   S    
C38   N4    A    
C15   C19   A    
C35   N3    A    
C34   Cl10  S    
C33   Cl9   S    
C17   C26   A    
C32   C36   A    
C27   O8    A    
C45   O11   S    
Cu2   O6    S    
C15   C25   A    
C38   H18   S    
C7    C27   S    
C45   N1    A    
C51   C56   A    
C2    O3    A    
C36   N4    A    
C20   C24   A    
C49   C51   A    
C50   C52   A    
Cu1   O7    S    
C31   Cl7   S    
C3    C13   A    
C52   C55   A    
Cu2   O4    S    
C47   C53   A    
C44   C52   A    
C45   C47   A    
C37   N3    A    
C18   C22   A    
C28   O7    A    
C18   H14   S    
C12   Cl2   S    
C18   C25   A    
C44   O10   S    
C46   O12   S    
C53   C55   A    
C25   C29   S    
C15   H11   S    
C46   C48   A    
C37   H17   S    
C28   O6    A    
C43   O9    S    
C14   N1    S    
Cu1   O1    S    
C27   O5    A    
C16   H12   S    
C5    H7    S    
C5    C7    A    
C6    C8    A    
C33   C37   A    
C32   Cl8   S    
C48   C54   A    
C19   C23   A    
C9    H9    S    
C29   C30   T    
C2    O2    A    
Cu2   O8    S    
C21   Cl5   S    
C16   C20   A    
C33   C39   A    
C44   N2    A    
C9    C11   A    
C10   C12   A    
C35   H15   S    
C4    C6    A    
C12   C14   A    
C17   H13   S    
C3    H5    S    
C8    C28   S    
C31   C35   A    
C46   N2    A    
C19   Cl3   S    
C36   H16   S    
C7    C9    A    
C34   C38   A    
C20   Cl4   S    
C40   C42   S    
C3    C5    A    
C16   C26   A    
C54   C56   A    
C26   C30   S    
C10   H10   S    
C47   C49   A    
C4    H6    S    
C54   H2    S    
Cu1   N3    S    
C11   C13   A    
C11   Cl1   S    
Cu1   Cu2   S    
C55   H3    S    
C48   C50   A    
C31   C39   A    
C56   H4    S    
C32   C40   A    
C4    C14   A    
Cu1   O5    S    
C17   C21   A    
Cu2   O2    S    
C6    H8    S    
C13   N2    S    
C1    C24   S    
C8    C10   A    
C49   C50   A    
C21   C24   A    
C2    C23   S    
C1    O4    A    
C22   C23   A    
C34   C40   A    
