data_mof_unit_59553.cif
_audit_creation_date              2012-12-10T20:41:46-0500
_audit_creation_method            fapswitch 2.2
_symmetry_space_group_name_H-M    P1
_symmetry_Int_Tables_number       1
_space_group_crystal_system       triclinic
_cell_length_a                    15.048931
_cell_length_b                    15.216721
_cell_length_c                    9.872752
_cell_angle_alpha                 89.669434
_cell_angle_beta                  88.9306
_cell_angle_gamma                 89.905918
_cell_volume                      2260.38057295

loop_
_atom_site_label
_atom_site_type_symbol
_atom_type_description
_atom_site_fract_x
_atom_site_fract_y
_atom_site_fract_z
_atom_type_partial_charge
C1    C     C_R   0.382327 0.877531 0.500640 0.882136
C2    C     C_R   0.382076 0.122091 0.500315 0.878842
C3    C     C_R   0.882327 0.377531 0.500640 0.882136
C4    C     C_R   0.882076 0.622091 0.500315 0.878842
C5    C     C_3   0.252195 0.183444 0.741515 -0.571559
C6    C     C_3   0.266136 0.798853 0.751219 -0.571143
C7    C     C_3   0.752195 0.683444 0.741515 -0.571559
C8    C     C_3   0.766137 0.298853 0.751219 -0.571142
C9    C     C_R   0.428324 0.031108 0.073677 0.227310
C10   C     C_R   0.928324 0.531107 0.073677 0.227310
C11   C     C_R   0.573974 0.977526 0.069941 -0.131442
C12   C     C_R   0.073974 0.477526 0.069941 -0.131443
C13   C     C_R   0.574031 0.977690 0.926047 -0.090921
C14   C     C_R   0.074031 0.477690 0.926047 -0.090921
C15   C     C_R   0.427941 0.030480 0.930959 0.268035
C16   C     C_R   0.927941 0.530480 0.930959 0.268034
C17   C     C_3   0.337071 0.991508 0.933332 -0.552127
C18   C     C_3   0.837071 0.491508 0.933332 -0.552127
C19   C     C_3   0.336792 0.995654 0.086233 -0.500517
C20   C     C_3   0.836793 0.495654 0.086233 -0.500517
C21   C     C_R   0.621851 0.118060 0.498905 0.873097
C22   C     C_R   0.621896 0.881977 0.499413 0.875650
C23   C     C_R   0.121851 0.618060 0.498905 0.873097
C24   C     C_R   0.121895 0.381977 0.499413 0.875650
C25   C     C_R   0.292914 0.230332 0.622398 0.162383
C26   C     C_R   0.299752 0.761207 0.620564 0.171932
C27   C     C_R   0.792914 0.730331 0.622398 0.162384
C28   C     C_R   0.799752 0.261206 0.620564 0.171931
C29   C     C_R   0.326480 0.197724 0.500485 -0.101189
C30   C     C_R   0.327414 0.801152 0.499864 -0.105310
C31   C     C_R   0.826480 0.697724 0.500485 -0.101189
C32   C     C_R   0.827414 0.301152 0.499864 -0.105311
C33   C     C_R   0.307138 0.240882 0.378358 -0.224279
C34   C     C_R   0.302867 0.764115 0.375768 -0.222456
C35   C     C_R   0.807139 0.740882 0.378358 -0.224279
C36   C     C_R   0.802867 0.264116 0.375768 -0.222455
C37   C     C_R   0.742118 0.805342 0.377767 -0.209659
C38   C     C_R   0.737671 0.200039 0.374496 -0.208333
C39   C     C_R   0.242118 0.305341 0.377767 -0.209659
C40   C     C_R   0.237672 0.700039 0.374496 -0.208333
C41   C     C_R   0.697007 0.825559 0.499170 -0.121783
C42   C     C_R   0.697373 0.173866 0.497235 -0.125714
C43   C     C_R   0.197007 0.325559 0.499170 -0.121782
C44   C     C_R   0.197373 0.673866 0.497235 -0.125713
C45   C     C_R   0.727923 0.792914 0.621667 0.037352
C46   C     C_R   0.733988 0.199599 0.619094 0.039914
C47   C     C_R   0.227923 0.292915 0.621667 0.037352
C48   C     C_R   0.233988 0.699600 0.619094 0.039914
C49   C     C_3   0.679998 0.753338 0.741833 -0.193559
C50   C     C_3   0.692525 0.230791 0.749336 -0.194564
C51   C     C_3   0.179998 0.253339 0.741833 -0.193560
C52   C     C_3   0.192524 0.730792 0.749335 -0.194564
H1    H     H_    0.337403 0.221149 0.282832 0.175610
H2    H     H_    0.328850 0.788536 0.279722 0.173286
H3    H     H_    0.837404 0.721149 0.282832 0.175610
H4    H     H_    0.828850 0.288536 0.279722 0.173286
H5    H     H_    0.289409 0.044944 0.128498 0.204985
H6    H     H_    0.334065 0.929884 0.135632 0.220619
H7    H     H_    0.789410 0.544944 0.128498 0.204985
H8    H     H_    0.834065 0.429884 0.135632 0.220619
H9    H     H_    0.723476 0.834561 0.282072 0.166897
H10   H     H_    0.714905 0.176160 0.277996 0.176960
H11   H     H_    0.223476 0.334561 0.282072 0.166898
H12   H     H_    0.214906 0.676160 0.277996 0.176960
H13   H     H_    0.681355 0.796573 0.832266 0.175634
H14   H     H_    0.697051 0.181072 0.832058 0.184030
H15   H     H_    0.181356 0.296574 0.832266 0.175634
H16   H     H_    0.197050 0.681073 0.832058 0.184030
H17   H     H_    0.295211 0.186988 0.831630 0.221133
H18   H     H_    0.313513 0.786132 0.834075 0.227934
H19   H     H_    0.795210 0.686987 0.831630 0.221132
H20   H     H_    0.813513 0.286132 0.834075 0.227934
H21   H     H_    0.229105 0.116437 0.714656 0.181034
H22   H     H_    0.243160 0.868018 0.739703 0.187194
H23   H     H_    0.729105 0.616436 0.714656 0.181034
H24   H     H_    0.743161 0.368018 0.739703 0.187194
H25   H     H_    0.633274 0.957904 0.122518 0.141325
H26   H     H_    0.133274 0.457904 0.122518 0.141325
H27   H     H_    0.633438 0.958477 0.870411 0.138009
H28   H     H_    0.133438 0.458477 0.870411 0.138009
H29   H     H_    0.286022 0.034098 0.887959 0.205077
H30   H     H_    0.338860 0.923592 0.896035 0.225137
H31   H     H_    0.786022 0.534098 0.887959 0.205077
H32   H     H_    0.838860 0.423592 0.896035 0.225137
N1    N     N_R   0.499140 0.000000 0.142800 -0.110005
N2    N     N_R   0.999140 0.500000 0.142800 -0.110005
N3    N     N_R   0.499160 0.000000 0.857150 -0.097139
N4    N     N_R   0.999160 0.500000 0.857150 -0.097139
O1    O     O_R   0.408400 0.908380 0.614690 -0.597422
O2    O     O_R   0.408400 0.091620 0.614690 -0.599541
O3    O     O_R   0.908400 0.408380 0.614690 -0.597422
O4    O     O_R   0.908400 0.591620 0.614690 -0.599540
O5    O     O_R   0.408370 0.908370 0.385350 -0.629304
O6    O     O_R   0.408370 0.091630 0.385350 -0.626781
O7    O     O_R   0.908370 0.408370 0.385350 -0.629304
O8    O     O_R   0.908370 0.591630 0.385350 -0.626781
O9    O     O_R   0.591610 0.091610 0.614650 -0.605510
O10   O     O_R   0.591610 0.908390 0.614650 -0.611837
O11   O     O_R   0.091610 0.591610 0.614650 -0.605510
O12   O     O_R   0.091610 0.408390 0.614650 -0.611838
O13   O     O_R   0.591590 0.091600 0.385310 -0.624039
O14   O     O_R   0.591590 0.908400 0.385310 -0.629247
O15   O     O_R   0.091590 0.591600 0.385310 -0.624039
O16   O     O_R   0.091590 0.408400 0.385310 -0.629247
Zn1   Zn    Zn3+2 0.500010 0.000000 0.653130 0.993906
Zn2   Zn    Zn3+2 0.000010 0.500000 0.653130 0.993906
Zn3   Zn    Zn3+2 0.499980 0.000000 0.346870 0.947259
Zn4   Zn    Zn3+2 0.999980 0.500000 0.346870 0.947258
C53   C     C_2   0.589466 0.717422 0.710739 0.469184
H33   H     H_    0.580511 0.674927 0.624079 0.049030
O17   O     O_2   0.525429 0.736331 0.782488 -0.574702
C54   C     C_2   0.601639 0.270888 0.734077 0.477876
H34   H     H_    0.589648 0.319146 0.655009 0.047447
O18   O     O_2   0.540734 0.249010 0.810277 -0.576138
C55   C     C_2   0.089467 0.217422 0.710740 0.469185
H35   H     H_    0.080511 0.174928 0.624079 0.049030
O19   O     O_2   0.025430 0.236331 0.782488 -0.574703
C56   C     C_2   0.101639 0.770889 0.734076 0.477876
H36   H     H_    0.089648 0.819146 0.655007 0.047447
O20   O     O_2   0.040733 0.749010 0.810276 -0.576138

loop_
_geom_bond_atom_site_label_1
_geom_bond_atom_site_label_2
_ccdc_geom_bond_type
O13   Zn3   S    
C23   O11   A    
C13   H27   S    
C6    H18   S    
C22   O10   A    
C2    O6    A    
C54   O18   D    
C7    C27   S    
C19   H5    S    
C28   C46   A    
C33   C39   A    
O10   Zn1   S    
C49   H13   S    
C2    C29   S    
C34   C40   A    
C32   C36   A    
C49   C53   S    
C35   C37   A    
C38   C42   A    
C53   O17   D    
C7    H19   S    
C22   C41   S    
C55   H35   S    
C29   C33   A    
C8    H24   S    
N4    Zn2   S    
C3    O3    A    
C17   H30   S    
C42   C46   A    
C2    O2    A    
C56   H36   S    
C5    H17   S    
C11   H25   S    
C9    N1    A    
C4    O8    A    
C9    C19   S    
C23   O15   A    
C10   C20   S    
C55   O19   D    
C12   H26   S    
C18   H32   S    
O15   Zn4   S    
C14   H28   S    
C20   H8    S    
C25   C47   A    
C40   C44   A    
C17   H29   S    
C52   H16   S    
C26   C48   A    
O9    Zn1   S    
C27   C45   A    
O8    Zn4   S    
C25   C29   A    
O3    Zn2   S    
C54   H34   S    
C6    H22   S    
C19   H6    S    
C33   H1    S    
O6    Zn3   S    
C8    H20   S    
C30   C34   A    
C27   C31   A    
C28   C32   A    
C7    C49   S    
C7    H23   S    
C35   H3    S    
C51   C55   S    
C23   C44   S    
C24   O16   A    
C36   H4    S    
C21   O9    A    
C37   H9    S    
N3    Zn1   S    
C45   C49   S    
C13   N3    A    
C50   C54   S    
C18   H31   S    
O14   Zn3   S    
C16   C18   S    
C51   H15   S    
C20   H7    S    
C50   H14   S    
C5    C25   S    
O4    Zn2   S    
C12   C14   A    
C34   H2    S    
C4    O4    A    
C8    C28   S    
C31   C35   A    
C8    C50   S    
O16   Zn4   S    
C15   N3    A    
C15   C17   S    
O11   Zn2   S    
C10   N2    A    
C1    O1    A    
C24   O12   A    
C5    H21   S    
N2    Zn4   S    
O2    Zn1   S    
C22   O14   A    
C47   C51   S    
C26   C30   A    
C39   H11   S    
C46   C50   S    
O12   Zn2   S    
C40   H12   S    
C12   N2    A    
C36   C38   A    
C9    C15   A    
C14   N4    A    
C21   O13   A    
C10   C16   A    
C53   H33   S    
O5    Zn3   S    
C11   C13   A    
C6    C26   S    
C11   N1    A    
C1    C30   S    
C17   C19   S    
C18   C20   S    
C37   C41   A    
C3    C32   S    
C56   O20   D    
C4    C31   S    
O7    Zn4   S    
C21   C42   S    
C48   C52   S    
C39   C43   A    
C1    O5    A    
O1    Zn1   S    
C16   N4    A    
C24   C43   S    
C41   C45   A    
C5    C51   S    
C3    O7    A    
C6    C52   S    
N1    Zn3   S    
C43   C47   A    
C44   C48   A    
C38   H10   S    
C52   C56   S    
