data_mof_unit_56160.cif
_audit_creation_date              2012-10-26T19:59:13-0400
_audit_creation_method            fapswitch 2.2
_symmetry_space_group_name_H-M    P1
_symmetry_Int_Tables_number       1
_space_group_crystal_system       triclinic
_cell_length_a                    7.546953
_cell_length_b                    8.682446
_cell_length_c                    15.741349
_cell_angle_alpha                 95.265703
_cell_angle_beta                  76.055265
_cell_angle_gamma                 103.463762
_cell_volume                      972.861729717

loop_
_atom_site_label
_atom_site_type_symbol
_atom_type_description
_atom_site_fract_x
_atom_site_fract_y
_atom_site_fract_z
_atom_type_partial_charge
C1    C     C_R   0.544849 0.799918 0.503107 0.522047
C2    C     C_R   0.613990 0.520366 0.334532 0.525572
C3    C     C_R   0.321837 0.448425 0.759846 -0.024391
C4    C     C_R   0.678164 0.551558 0.240153 -0.024392
C5    C     C_R   0.074918 0.374891 0.888755 -0.142883
C6    C     C_R   0.925088 0.625076 0.111243 -0.142883
C7    C     C_R   0.131777 0.416132 0.801014 -0.157810
C8    C     C_R   0.868225 0.583843 0.198984 -0.157809
C9    C     C_R   0.452303 0.439727 0.808963 -0.031218
C10   C     C_R   0.547701 0.560248 0.191032 -0.031220
C11   C     C_R   0.399620 0.449393 0.900693 0.017729
C12   C     C_R   0.455151 0.200082 0.496893 0.522043
C13   C     C_R   0.600387 0.550572 0.099304 0.017729
C14   C     C_R   0.208008 0.397902 0.940034 0.032264
C15   C     C_R   0.791999 0.602061 0.059962 0.032263
C16   C     C_R   0.530467 0.506029 0.953937 0.027381
C17   C     C_R   0.469541 0.493933 0.046059 0.027382
C18   C     C_1   0.395016 0.636727 0.231404 0.214359
C19   C     C_1   0.604992 0.363256 0.768586 0.214352
C20   C     C_3   0.957914 0.748274 0.619586 0.049058
C21   C     C_3   0.068778 0.832698 0.685758 -0.396204
C22   C     C_3   0.042078 0.251733 0.380413 0.049065
C23   C     C_R   0.283076 0.416254 0.081752 -0.142389
C24   C     C_3   0.931207 0.167313 0.314242 -0.396188
C25   C     C_R   0.716933 0.583709 0.918244 -0.142390
C26   C     C_R   0.153496 0.370895 0.029445 -0.140732
C27   C     C_R   0.846512 0.629068 0.970552 -0.140732
C28   C     C_2   0.568066 0.968358 0.506235 -0.161157
C29   C     C_2   0.431933 0.031642 0.493765 -0.161155
C30   C     C_R   0.386010 0.479629 0.665467 0.525574
Cu1   Cu    Cu3+1 0.322120 0.483240 0.490330 1.053977
Cu2   Cu    Cu3+1 0.677880 0.516760 0.509670 1.053965
H1    H     H_    0.009164 0.319277 0.059537 0.122568
H2    H     H_    0.302508 0.959498 0.480475 0.129425
H3    H     H_    0.807611 0.741087 0.649465 0.162453
H4    H     H_    0.001152 0.820834 0.560244 0.129920
H5    H     H_    0.220850 0.843595 0.658126 0.164075
H6    H     H_    0.040690 0.953195 0.702235 0.112206
H7    H     H_    0.027955 0.764964 0.746507 0.141110
H8    H     H_    0.998817 0.179182 0.439758 0.129911
H9    H     H_    0.192379 0.258896 0.350538 0.162442
H10   H     H_    0.972006 0.235056 0.253493 0.141120
H11   H     H_    0.959321 0.046821 0.297756 0.112199
H12   H     H_    0.990844 0.680686 0.940460 0.122571
H13   H     H_    0.779130 0.156389 0.341885 0.164057
H14   H     H_    0.971100 0.583712 0.235719 0.187028
H15   H     H_    0.028900 0.416267 0.764281 0.187022
H16   H     H_    0.927237 0.335752 0.917772 0.138232
H17   H     H_    0.072769 0.664212 0.082226 0.138234
H18   H     H_    0.234830 0.391461 0.150511 0.119516
H19   H     H_    0.765179 0.608505 0.849485 0.119516
H20   H     H_    0.697491 0.040502 0.519526 0.129419
N1    N     N_2   0.945180 0.542040 0.524240 0.100378
N2    N     N_2   0.054820 0.457960 0.475760 0.100376
N3    N     N_1   0.277540 0.701861 0.264812 -0.311251
N4    N     N_1   0.722473 0.298131 0.735173 -0.311254
O1    O     O_R   0.384450 0.714270 0.493720 -0.480384
O2    O     O_3   0.005939 0.404382 0.399851 -0.451176
O3    O     O_R   0.615550 0.285730 0.506280 -0.480399
O4    O     O_R   0.684880 0.742590 0.510050 -0.545778
O5    O     O_R   0.315120 0.257410 0.489950 -0.545776
O6    O     O_R   0.265540 0.477900 0.617090 -0.457549
O7    O     O_R   0.734460 0.522100 0.382910 -0.457551
O8    O     O_R   0.565970 0.506210 0.633420 -0.506350
O9    O     O_R   0.434030 0.493790 0.366580 -0.506336
O10   O     O_3   0.994085 0.595639 0.600140 -0.451181

loop_
_geom_bond_atom_site_label_1
_geom_bond_atom_site_label_2
_ccdc_geom_bond_type
C19   N4    T    
C22   O2    S    
C3    C30   S    
C2    C4    S    
C25   H19   S    
C3    C9    A    
C1    O1    A    
C12   C29   S    
C25   C27   A    
C9    C11   A    
C11   C16   A    
Cu1   O5    S    
C26   H1    S    
C15   C27   A    
Cu1   Cu2   S    
C21   H7    S    
C13   C17   A    
C4    C8    A    
C2    O9    A    
C22   H8    S    
Cu1   O1    S    
C13   C15   A    
C21   H5    S    
C6    H17   S    
C1    C28   S    
N1    N2    D    
C2    O7    A    
N1    O10   S    
C28   H20   S    
Cu1   O6    S    
C5    C14   A    
C17   C23   A    
C18   N3    T    
C10   C18   S    
C24   H13   S    
Cu2   O3    S    
C20   O10   S    
C28   C29   D    
C11   C14   A    
C12   O3    A    
C3    C7    A    
C30   O6    A    
Cu1   N2    S    
C5    H16   S    
C22   C24   S    
C23   C26   A    
C22   H9    S    
C24   H10   S    
Cu2   O4    S    
C4    C10   A    
C20   H4    S    
Cu2   N1    S    
C12   O5    A    
C20   C21   S    
Cu2   O8    S    
C5    C7    A    
C30   O8    A    
N2    O2    S    
C1    O4    A    
C16   C25   A    
Cu1   O9    S    
C24   H11   S    
C23   H18   S    
C6    C8    A    
C8    H14   S    
C6    C15   A    
C27   H12   S    
C20   H3    S    
C29   H2    S    
C9    C19   S    
C14   C26   A    
C21   H6    S    
Cu2   O7    S    
C16   C17   A    
C10   C13   A    
C7    H15   S    
