data_mof_unit_52053.cif
_audit_creation_date              2013-03-05T16:35:50-0500
_audit_creation_method            fapswitch 2.2
_symmetry_space_group_name_H-M    P1
_symmetry_Int_Tables_number       1
_space_group_crystal_system       triclinic
_cell_length_a                    23.615749
_cell_length_b                    9.099046
_cell_length_c                    7.768005
_cell_angle_alpha                 90.000972
_cell_angle_beta                  89.99699
_cell_angle_gamma                 90.020488
_cell_volume                      1669.19491449

loop_
_atom_site_label
_atom_site_type_symbol
_atom_site_description
_atom_site_fract_x
_atom_site_fract_y
_atom_site_fract_z
_atom_type_partial_charge
O1    O     O_R   0.500000 0.288390 0.642760 -0.579998
O2    O     O_R   0.500000 0.711610 0.357240 -0.576288
O3    O     O_R   0.500000 0.711610 0.642760 -0.580067
O4    O     O_R   0.500000 0.288390 0.357240 -0.576218
H1    H     H_    0.949522 0.128612 0.482647 0.182322
H2    H     H_    0.050487 0.872476 0.482785 0.182322
H3    H     H_    0.947511 0.870525 0.464202 0.183936
H4    H     H_    0.052493 0.130566 0.463835 0.183947
C1    C     C_R   0.500020 0.219942 0.499995 0.829683
C2    C     C_R   0.499976 0.780057 0.499996 0.829639
O5    O     O_R   0.417880 0.500000 0.642820 -0.597515
O6    O     O_R   0.582120 0.500000 0.357180 -0.546903
O7    O     O_R   0.582120 0.500000 0.642820 -0.597479
O8    O     O_R   0.417880 0.500000 0.357180 -0.546842
C3    C     C_R   0.208243 0.503713 0.484167 0.128164
C4    C     C_R   0.791762 0.497295 0.484262 0.128259
C5    C     C_R   0.390516 0.500656 0.500113 0.859628
C6    C     C_R   0.609484 0.499422 0.500107 0.859578
Cu1   Cu    Cu3+1 0.500000 0.500000 0.669080 0.982007
Cu2   Cu    Cu3+1 0.500000 0.500000 0.330920 1.012496
C7    C     C_R   0.299118 0.568692 0.356583 0.132746
C8    C     C_R   0.700944 0.431925 0.356570 0.132489
C9    C     C_R   0.295489 0.441154 0.634504 0.103877
C10   C     C_R   0.704453 0.559462 0.634503 0.103768
C11   C     C_R   0.327659 0.504438 0.498715 -0.226843
C12   C     C_R   0.672342 0.495973 0.498714 -0.226516
C13   C     C_R   0.880719 0.629090 0.461497 0.639883
C14   C     C_R   0.119283 0.371996 0.461205 0.639816
C15   C     C_R   0.881507 0.367634 0.490933 0.643212
C16   C     C_R   0.118507 0.633445 0.490763 0.643268
N1    N     N_R   0.852646 0.497905 0.477881 -0.436202
N2    N     N_R   0.147362 0.503168 0.477642 -0.436210
C17   C     C_R   0.940767 0.365618 0.480617 -0.024085
C18   C     C_R   0.059244 0.635470 0.480557 -0.024156
C19   C     C_R   0.940030 0.633234 0.466962 -0.023176
C20   C     C_R   0.059975 0.367858 0.466746 -0.023124
C21   C     C_R   0.970156 0.499980 0.473179 -0.012468
C22   C     C_R   0.029852 0.501111 0.473109 -0.012458
C23   C     C_R   0.971229 0.233165 0.478388 -0.130184
C24   C     C_R   0.028780 0.767924 0.478491 -0.130204
C25   C     C_R   0.969794 0.766809 0.467939 -0.128860
C26   C     C_R   0.030212 0.234282 0.467698 -0.128858
C27   C     C_1   0.500005 0.065344 0.499985 -0.188922
C28   C     C_1   0.499989 0.934656 0.499987 -0.189004
C29   C     C_R   0.239630 0.565236 0.348324 0.245416
C30   C     C_R   0.760433 0.435683 0.348365 0.245129
C31   C     C_R   0.236238 0.443341 0.627236 0.292403
C32   C     C_R   0.763708 0.557563 0.627288 0.292442
N3    N     N_1   0.500000 0.500000 0.076820 -0.044382
N4    N     N_1   0.500000 0.500000 0.923180 -0.053237
O9    O     O_2   0.851244 0.755044 0.441911 -0.480386
O10   O     O_2   0.148754 0.246042 0.441532 -0.480405
O11   O     O_2   0.852888 0.240666 0.513520 -0.479505
O12   O     O_2   0.147132 0.760400 0.513354 -0.479389
Br1   Br    Br    0.200800 0.647042 0.151780 -0.402219
Br2   Br    Br    0.799352 0.354116 0.151821 -0.402293
Br3   Br    Br    0.193476 0.364269 0.817468 -0.364789
Br4   Br    Br    0.806389 0.636865 0.817544 -0.364686
N5    N     N_2   0.330579 0.638748 0.223089 -0.391998
H5    H     H_    0.315699 0.621226 0.100074 0.287625
C33   C     C_3   0.344497 0.790883 0.256933 -0.576955
H6    H     H_    0.305357 0.858746 0.259186 0.252794
H7    H     H_    0.372931 0.832639 0.153959 0.217976
H8    H     H_    0.366888 0.801618 0.382225 0.205881
N6    N     N_2   0.669567 0.361708 0.223017 -0.391999
H9    H     H_    0.684459 0.379470 0.100059 0.287737
C34   C     C_3   0.655929 0.209388 0.256665 -0.577039
H10   H     H_    0.695225 0.142328 0.261241 0.253040
H11   H     H_    0.628251 0.166784 0.152410 0.217877
H12   H     H_    0.632875 0.198520 0.380746 0.206062
N7    N     N_2   0.321392 0.372074 0.778896 -0.382309
H13   H     H_    0.348881 0.436223 0.849186 0.278520
C35   C     C_3   0.339865 0.222451 0.750626 -0.549724
H14   H     H_    0.374645 0.218940 0.654547 0.193579
H15   H     H_    0.303950 0.154091 0.704394 0.254009
H16   H     H_    0.355484 0.175286 0.873588 0.219286
N8    N     N_2   0.678488 0.628476 0.778839 -0.382320
H17   H     H_    0.651048 0.564222 0.849170 0.278565
C36   C     C_3   0.659903 0.777985 0.750469 -0.549968
H18   H     H_    0.625112 0.781261 0.654428 0.193652
H19   H     H_    0.695762 0.846494 0.704135 0.253858
H20   H     H_    0.644261 0.825148 0.873407 0.219296

loop_
_geom_bond_atom_site_label_1
_geom_bond_atom_site_label_2
_geom_bond_distance
_ccdc_geom_bond_type
C35   H14   1.110234 S    
C20   C26   1.403813 A    
Cu1   Cu2   2.626829 S    
C6    C12   1.484816 S    
C3    C31   1.405105 A    
C4    C32   1.405059 A    
C3    N2    1.438658 S    
N8    H17   1.029524 S    
C4    N1    1.438672 S    
C16   O12   1.349683 S    
O5    Cu1   1.950037 S    
C17   C23   1.403904 A    
O7    C6    1.283172 A    
C18   C24   1.403917 A    
C19   C21   1.406848 A    
C21   C22   1.409788 A    
H4    C26   1.081077 S    
C7    N5    1.425931 S    
C15   C17   1.401886 A    
C33   H7    1.111247 S    
O2    Cu2   1.936270 S    
N6    C34   1.446594 S    
O3    Cu1   1.936277 S    
C9    C11   1.421610 A    
N5    H5    1.030549 S    
C35   H15   1.111250 S    
O8    C5    1.284657 A    
C13   O9    1.349707 S    
C23   C26   1.395418 A    
C7    C29   1.406664 A    
N8    C36   1.446481 S    
N5    C33   1.446741 S    
C1    C27   1.406701 S    
C16   C18   1.401923 A    
C13   N1    1.371121 A    
C34   H10   1.111394 S    
C10   C32   1.400576 A    
C9    N7    1.423987 S    
C14   N2    1.371119 A    
O1    C1    1.271908 A    
C4    C30   1.405660 A    
C36   H19   1.111241 S    
O7    Cu1   1.950013 S    
C13   C19   1.401808 A    
O1    Cu1   1.936271 S    
C2    C28   1.406699 S    
C17   C21   1.406810 A    
C34   H11   1.110523 S    
C33   H8    1.111944 S    
C27   C28   1.189132 T    
C8    N6    1.425926 S    
Cu2   N3    1.973849 S    
O8    Cu2   1.950016 S    
C31   Br3   1.928851 S    
O6    Cu2   1.950035 S    
C14   C20   1.401769 A    
C24   C25   1.395446 A    
C8    C30   1.406708 A    
N3    N4    1.193477 T    
H1    C23   1.080998 S    
C35   H16   1.110290 S    
H2    C24   1.081005 S    
C3    C29   1.405687 A    
C30   Br2   1.930512 S    
O2    C2    1.271847 A    
N7    C35   1.446529 S    
C7    C11   1.419689 A    
O5    C5    1.283193 A    
C18   C22   1.406821 A    
C10   C12   1.421682 A    
C36   H20   1.110252 S    
C32   Br4   1.928836 S    
C34   H12   1.111361 S    
C5    C11   1.484862 S    
C9    C31   1.400563 A    
C20   C22   1.406848 A    
N7    H13   1.029555 S    
C15   N1    1.371294 A    
O3    C2    1.271915 A    
C16   N2    1.371290 A    
C14   O10   1.349717 S    
Cu1   N4    1.973849 S    
C15   O11   1.349688 S    
H3    C25   1.081071 S    
C33   H6    1.111911 S    
C19   C25   1.403821 A    
C36   H18   1.110220 S    
O4    Cu2   1.936278 S    
C10   N8    1.423946 S    
C29   Br1   1.930443 S    
N6    H9    1.030541 S    
C8    C12   1.419608 A    
O6    C6    1.284668 A    
O4    C1    1.271855 A    
