data_mof_unit_63276.cif
_audit_creation_date              2012-12-11T14:24:13-0500
_audit_creation_method            fapswitch 2.2
_symmetry_space_group_name_H-M    P1
_symmetry_Int_Tables_number       1
_space_group_crystal_system       triclinic
_cell_length_a                    6.954321
_cell_length_b                    17.454858
_cell_length_c                    18.870076
_cell_angle_alpha                 105.366229
_cell_angle_beta                  89.778308
_cell_angle_gamma                 90.50085
_cell_volume                      2208.60466988

loop_
_atom_site_label
_atom_site_type_symbol
_atom_type_description
_atom_site_fract_x
_atom_site_fract_y
_atom_site_fract_z
_atom_type_partial_charge
O1    O     O_R   0.494360 0.416740 0.414860 -0.540248
O2    O     O_R   0.818980 0.432970 0.557290 -0.526726
O3    O     O_R   0.994290 0.583260 0.585140 -0.534010
C1    C     C_R   0.650022 0.415969 0.580630 0.717721
O4    O     O_R   0.823740 0.407570 0.413690 -0.538185
O5    O     O_R   0.999090 0.557670 0.440510 -0.522079
C2    C     C_R   0.654327 0.385009 0.386515 0.742478
O6    O     O_R   0.489560 0.442330 0.559490 -0.522783
O7    O     O_3   0.662450 0.549280 0.508970 -0.359144
V1    V     V_3+5 0.935350 0.490860 0.498340 1.420939
O8    O     O_R   0.329100 0.567030 0.442710 -0.524739
C3    C     C_R   0.160929 0.584052 0.419386 0.720941
O9    O     O_R   0.324330 0.592430 0.586310 -0.536079
C4    C     C_R   0.155245 0.614027 0.613974 0.720515
V2    V     V_3+5 0.435960 0.509140 0.501660 1.421959
O10   O     O_3   0.158990 0.450720 0.491030 -0.364401
C5    C     C_2   0.273979 0.786451 0.786296 -0.232113
C6    C     C_2   0.110257 0.822751 0.815898 0.445989
H1    H     H_    0.409324 0.805059 0.814391 0.129220
C7    C     C_2   0.287357 0.723731 0.715170 -0.089387
C8    C     C_2   0.139249 0.677162 0.683396 -0.267944
H2    H     H_    0.428534 0.713946 0.689714 0.152596
H3    H     H_    0.999645 0.682524 0.709595 0.208998
C9    C     C_1   0.110749 0.863912 0.132630 -0.210604
C10   C     C_1   0.118316 0.821340 0.176193 0.002541
C11   C     C_1   0.127811 0.771124 0.228083 0.001697
C12   C     C_1   0.135926 0.728839 0.271883 0.002413
C13   C     C_1   0.145421 0.678622 0.323772 0.004618
C14   C     C_1   0.152988 0.636049 0.367333 -0.208405
C15   C     C_1   0.641414 0.364039 0.632676 -0.210646
C16   C     C_1   0.637011 0.321452 0.676250 0.003039
C17   C     C_1   0.633268 0.271210 0.728138 0.002816
C18   C     C_1   0.630423 0.228887 0.771949 0.003907
C19   C     C_1   0.626683 0.178641 0.823835 0.006524
C20   C     C_1   0.622288 0.136046 0.867401 -0.205748
C21   C     C_2   0.778371 0.211772 0.215419 -0.128786
C22   C     C_2   0.613966 0.182809 0.180221 -0.309701
H4    H     H_    0.914109 0.184965 0.193833 0.135968
H5    H     H_    0.476607 0.208671 0.200060 0.128665
C23   C     C_2   0.790211 0.279633 0.282950 -0.131685
C24   C     C_2   0.637256 0.317585 0.319923 -0.309310
H6    H     H_    0.933826 0.298507 0.302940 0.134833
H7    H     H_    0.492421 0.299686 0.301592 0.129526
O11   O     O_R   0.774180 0.057760 0.940580 -0.520346
O12   O     O_R   0.439830 0.092440 0.086330 -0.542932
O13   O     O_R   0.264640 0.942310 0.059470 -0.523443
C25   C     C_R   0.608638 0.115056 0.113545 0.737448
O14   O     O_R   0.444740 0.067040 0.942730 -0.526681
O15   O     O_R   0.269590 0.916730 0.914840 -0.557222
C26   C     C_R   0.613699 0.084090 0.919423 0.727016
O16   O     O_R   0.769230 0.083340 0.085210 -0.538042
O17   O     O_3   0.601340 0.950770 0.991070 -0.358324
V3    V     V_3+5 0.328370 0.009130 0.001660 1.412785
O18   O     O_R   0.939550 0.907490 0.913620 -0.506594
C27   C     C_R   0.107951 0.885921 0.885859 0.651388
O19   O     O_R   0.934640 0.932890 0.057220 -0.526553
C28   C     C_R   0.102805 0.915905 0.080575 0.710321
V4    V     V_3+5 0.827780 0.990750 0.998250 1.457677
O20   O     O_3   0.104690 0.049230 0.008930 -0.365180
F1    F     F_    0.939712 0.806176 0.779897 -0.696499

loop_
_geom_bond_atom_site_label_1
_geom_bond_atom_site_label_2
_ccdc_geom_bond_type
O5    V1    S    
O2    C1    A    
O8    C3    A    
O1    V2    S    
C3    C14   S    
C22   C25   S    
O7    V1    S    
C9    C28   S    
C16   C17   S    
O3    V1    S    
O9    V2    S    
C1    O6    A    
C17   C18   T    
C20   C26   S    
C21   H4    S    
C5    C6    D    
V3    O20   S    
O12   V3    S    
O4    V1    S    
C22   H5    S    
O16   V4    S    
V1    O10   S    
O9    C4    A    
C9    C10   T    
C24   H7    S    
C13   C14   T    
C11   C12   T    
C15   C16   T    
O3    C4    A    
O17   V4    S    
C6    C27   S    
O17   V3    S    
O15   V3    S    
O13   V3    S    
O14   C26   A    
C23   C24   D    
C5    H1    S    
O19   V4    S    
C18   C19   S    
O6    V2    S    
C8    H3    S    
O13   C28   A    
O5    C3    A    
O14   V3    S    
V4    O20   S    
O19   C28   A    
C7    H2    S    
O11   C26   A    
V2    O10   S    
O2    V1    S    
C21   C23   S    
C5    C7    S    
C7    C8    D    
C4    C8    S    
C19   C20   T    
O18   V4    S    
O12   C25   A    
C6    F1    S    
C12   C13   S    
O4    C2    A    
O18   C27   A    
C21   C22   D    
C2    C24   S    
C25   O16   A    
O1    C2    A    
C10   C11   S    
O15   C27   A    
O8    V2    S    
C1    C15   S    
O7    V2    S    
O11   V4    S    
C23   H6    S    
