data_mof_unit_59851.cif
_audit_creation_date              2012-10-26T19:35:12-0400
_audit_creation_method            fapswitch 2.2
_symmetry_space_group_name_H-M    P1
_symmetry_Int_Tables_number       1
_space_group_crystal_system       triclinic
_cell_length_a                    10.858622
_cell_length_b                    10.874667
_cell_length_c                    9.545728
_cell_angle_alpha                 89.236677
_cell_angle_beta                  89.751062
_cell_angle_gamma                 92.477091
_cell_volume                      1126.02990473

loop_
_atom_site_label
_atom_site_type_symbol
_atom_type_description
_atom_site_fract_x
_atom_site_fract_y
_atom_site_fract_z
_atom_type_partial_charge
C1    C     C_R   0.502737 0.262423 0.500356 0.568741
C2    C     C_R   0.537645 0.937909 0.377136 -0.163830
C3    C     C_R   0.504389 0.870893 0.498723 -0.013294
C4    C     C_R   0.262408 0.507503 0.500720 0.544155
C5    C     C_R   0.487057 0.934268 0.622361 0.004659
C6    C     C_3   0.380408 0.925714 0.721716 -0.271895
C7    C     C_3   0.389130 0.064943 0.726352 -0.265697
C8    C     C_R   0.595903 0.556355 0.071712 0.133979
C9    C     C_R   0.414512 0.432174 0.076718 -0.005439
C10   C     C_R   0.414945 0.430671 0.927696 0.192063
C11   C     C_R   0.593283 0.559944 0.924257 0.116167
C12   C     C_R   0.061468 0.522866 0.631127 0.029161
C13   C     C_3   0.626378 0.695274 0.920185 -0.119376
C14   C     C_3   0.643684 0.687823 0.080226 -0.105842
C15   C     C_R   0.498484 0.737533 0.499337 0.529500
C16   C     C_R   0.736976 0.488570 0.501159 0.529523
C17   C     C_R   0.114862 0.569815 0.755706 -0.098989
C18   C     C_R   0.055923 0.549736 0.884656 -0.155338
C19   C     C_R   0.944192 0.482568 0.890975 -0.150914
C20   C     C_R   0.883525 0.450773 0.767332 -0.101486
C21   C     C_R   0.936485 0.482920 0.635136 0.025666
C22   C     C_3   0.736511 0.734151 0.824568 -0.266526
C23   C     C_R   0.127697 0.511817 0.503541 -0.011262
C24   C     C_3   0.765875 0.872820 0.830121 -0.463303
C25   C     C_3   0.778008 0.696591 0.137811 -0.263646
C26   C     C_3   0.790339 0.773295 0.269902 -0.435329
C27   C     C_R   0.063607 0.484946 0.379673 -0.165921
C28   C     C_R   0.936445 0.470674 0.380775 -0.164981
C29   C     C_R   0.870932 0.475479 0.506664 -0.010545
C30   C     C_R   0.492694 0.061196 0.623540 -0.013508
C31   C     C_R   0.513362 0.129525 0.500048 0.041922
C32   C     C_R   0.544545 0.066461 0.376773 0.067797
Cu1   Cu    Cu3+1 0.499990 0.499980 0.640670 0.945687
Cu2   Cu    Cu3+1 0.500010 0.500020 0.359330 0.939107
H1    H     H_    0.111643 0.474718 0.281068 0.129552
H2    H     H_    0.901915 0.459582 0.991338 0.102565
H3    H     H_    0.797206 0.398155 0.777291 0.148516
H4    H     H_    0.889536 0.453048 0.283072 0.124501
H5    H     H_    0.555249 0.891840 0.280798 0.117021
H6    H     H_    0.294365 0.888525 0.672044 0.130829
H7    H     H_    0.237772 0.385324 0.886621 0.213430
H8    H     H_    0.329093 0.266686 0.896250 0.185004
H9    H     H_    0.686240 0.924148 0.792550 0.162115
H10   H     H_    0.787473 0.903009 0.938057 0.152020
H11   H     H_    0.846390 0.897041 0.761532 0.140044
H12   H     H_    0.402849 0.882144 0.823559 0.122727
H13   H     H_    0.819404 0.683105 0.849222 0.160840
H14   H     H_    0.713107 0.712480 0.714736 0.198046
H15   H     H_    0.769978 0.870450 0.245974 0.131407
H16   H     H_    0.728225 0.736333 0.353732 0.190436
H17   H     H_    0.886417 0.771121 0.309050 0.135322
H18   H     H_    0.810748 0.603738 0.160588 0.152223
H19   H     H_    0.845406 0.738677 0.062998 0.147823
H20   H     H_    0.518026 0.104778 0.171456 0.219032
H21   H     H_    0.667408 0.103717 0.220634 0.216906
H22   H     H_    0.306757 0.109400 0.683421 0.146979
H23   H     H_    0.422205 0.098663 0.829364 0.134026
H24   H     H_    0.344233 0.379093 0.134640 0.115149
H25   H     H_    0.544026 0.747271 0.892602 0.133691
H26   H     H_    0.577915 0.745325 0.134872 0.142396
H27   H     H_    0.201640 0.622324 0.755415 0.139876
H28   H     H_    0.099439 0.581862 0.980035 0.105349
N1    N     N_R   0.500790 0.500930 0.147930 -0.249366
N2    N     N_R   0.500790 0.500890 0.852020 -0.214485
N3    N     N_3   0.324169 0.356181 0.856871 -0.556539
N4    N     N_3   0.580041 0.131280 0.250142 -0.600059
O1    O     O_R   0.500000 0.319640 0.618810 -0.482370
O2    O     O_R   0.500010 0.319680 0.381230 -0.462216
O3    O     O_R   0.319640 0.499980 0.618820 -0.475290
O4    O     O_R   0.319650 0.500020 0.381230 -0.516492
O5    O     O_R   0.499990 0.680320 0.618770 -0.514618
O6    O     O_R   0.500000 0.680360 0.381190 -0.517800
O7    O     O_R   0.680350 0.499980 0.618770 -0.529884
O8    O     O_R   0.680360 0.500020 0.381180 -0.499712

loop_
_geom_bond_atom_site_label_1
_geom_bond_atom_site_label_2
_ccdc_geom_bond_type
C22   H14   S    
C19   C20   A    
C4    O4    A    
C3    C15   S    
C15   O6    A    
C12   C23   A    
C16   O8    A    
C24   H11   S    
C28   C29   A    
C25   H19   S    
C9    H24   S    
C19   H2    S    
C26   H16   S    
C30   C31   A    
C1    C31   S    
C1    O2    A    
C2    C32   A    
C18   C19   A    
C17   H27   S    
C2    H5    S    
C12   C17   A    
H8    N3    S    
C23   C27   A    
C9    C10   A    
Cu2   O4    S    
Cu1   O3    S    
C22   H13   S    
C7    C30   S    
C13   C14   S    
C7    H22   S    
C4    O3    A    
Cu1   Cu2   S    
C8    C11   A    
C16   O7    A    
C11   N2    A    
C26   H15   S    
Cu2   O2    S    
C4    C23   S    
C18   H28   S    
H7    N3    S    
C27   H1    S    
C25   C26   S    
C21   C29   A    
C12   C21   A    
C31   C32   A    
C28   H4    S    
C17   C18   A    
Cu2   O8    S    
C13   H25   S    
Cu1   O7    S    
C24   H10   S    
C22   C24   S    
Cu2   O6    S    
H21   N4    S    
C14   H26   S    
Cu1   O1    S    
C32   N4    S    
C5    C30   A    
C10   N3    S    
C8    C14   S    
C6    H12   S    
C9    N1    A    
C10   N2    A    
C3    C5    A    
C6    C7    S    
H20   N4    S    
C15   O5    A    
C2    C3    A    
C16   C29   S    
C25   H18   S    
C26   H17   S    
C20   H3    S    
C11   C13   S    
C5    C6    S    
Cu1   N2    S    
Cu2   N1    S    
C1    O1    A    
C13   C22   S    
C6    H6    S    
C14   C25   S    
Cu1   O5    S    
C8    N1    A    
C20   C21   A    
C27   C28   A    
C24   H9    S    
C7    H23   S    
