data_mof_unit_30698.cif
_audit_creation_date              2013-03-05T16:04:20-0500
_audit_creation_method            fapswitch 2.2
_symmetry_space_group_name_H-M    P1
_symmetry_Int_Tables_number       1
_space_group_crystal_system       triclinic
_cell_length_a                    9.529086
_cell_length_b                    10.942756
_cell_length_c                    13.449924
_cell_angle_alpha                 90.576013
_cell_angle_beta                  72.619774
_cell_angle_gamma                 89.655262
_cell_volume                      1338.32365606

loop_
_atom_site_label
_atom_site_type_symbol
_atom_site_description
_atom_site_fract_x
_atom_site_fract_y
_atom_site_fract_z
_atom_type_partial_charge
O1    O     O_R   0.381250 0.680340 0.500010 -0.574934
O2    O     O_R   0.618820 0.680370 0.500010 -0.581797
C1    C     C_R   0.502258 0.737403 0.492588 0.817869
O3    O     O_R   0.323240 0.499950 0.650980 -0.577481
O4    O     O_R   0.560810 0.499980 0.650980 -0.596054
C2    C     C_R   0.421745 0.491707 0.699949 0.793917
Cu1   Cu    Cu3+1 0.359340 0.499980 0.500000 0.998224
Cu2   Cu    Cu3+1 0.640660 0.500020 0.500000 0.991729
O5    O     O_R   0.381180 0.319630 0.499990 -0.589333
O6    O     O_R   0.618750 0.319660 0.499990 -0.541839
O7    O     O_R   0.439190 0.500020 0.349020 -0.582633
O8    O     O_R   0.676760 0.500050 0.349020 -0.585950
C3    C     C_R   0.500902 0.262053 0.497399 0.832747
C4    C     C_R   0.578556 0.499974 0.300103 0.813722
C5    C     C_R   0.786365 0.387136 0.033437 -0.189533
H1    H     H_    0.830631 0.396477 0.179616 0.180594
H2    H     H_    0.889949 0.340459 0.997671 0.158836
C6    C     C_R   0.623974 0.484545 0.186734 -0.082085
C7    C     C_R   0.228048 0.506915 0.870553 -0.153686
C8    C     C_R   0.183620 0.509946 0.978687 -0.146987
C9    C     C_R   0.286479 0.494374 0.032301 -0.137281
C10   C     C_R   0.436644 0.473139 0.978303 0.080486
C11   C     C_R   0.475735 0.448973 0.869908 0.064932
C12   C     C_R   0.546859 0.466286 0.029993 0.029086
C13   C     C_R   0.683213 0.406963 0.978851 0.099762
C14   C     C_R   0.712855 0.367448 0.874780 -0.053790
C15   C     C_R   0.610897 0.389402 0.821371 -0.234457
C16   C     C_R   0.527847 0.518175 0.130108 -0.074582
C17   C     C_R   0.754325 0.421407 0.137346 -0.175150
C18   C     C_R   0.374839 0.479939 0.814531 -0.098109
H3    H     H_    0.146777 0.525033 0.830960 0.172064
H4    H     H_    0.245363 0.493378 0.116321 0.143920
H5    H     H_    0.069329 0.527004 0.021252 0.151806
H6    H     H_    0.635636 0.352144 0.743250 0.184142
C19   C     C_R   0.638224 0.935358 0.452710 -0.151323
C20   C     C_R   0.637157 0.063255 0.454337 0.325339
C21   C     C_R   0.502029 0.127883 0.488948 -0.203777
C22   C     C_R   0.368138 0.063389 0.508429 -0.118524
C23   C     C_R   0.370813 0.936982 0.495173 -0.070000
C24   C     C_R   0.503981 0.871225 0.480459 -0.187896
C25   C     C_R   0.894586 0.568889 0.570658 -0.027503
H7    H     H_    0.813309 0.624371 0.626682 0.137437
C26   C     C_R   0.042882 0.568988 0.571130 0.084505
N1    N     N_R   0.147940 0.499970 0.499970 -0.206115
C27   C     C_R   0.103127 0.429553 0.429802 0.066398
C28   C     C_R   0.954828 0.430959 0.429591 0.009879
H8    H     H_    0.921594 0.376410 0.373215 0.176661
N2    N     N_R   0.852060 0.500060 0.499990 -0.181406
N3    N     N_R   0.773164 0.126859 0.413458 0.120880
O9    O     O_R   0.876604 0.116803 0.457899 -0.357345
O10   O     O_R   0.800285 0.181466 0.324283 -0.393425
C29   C     C_1   0.225098 0.124039 0.541272 0.340928
N4    N     N_1   0.110832 0.171359 0.566766 -0.198405
C30   C     C_1   0.237621 0.879342 0.487010 0.352153
N5    N     N_1   0.131283 0.835650 0.478955 -0.242112
C31   C     C_1   0.080604 0.645019 0.646989 0.289411
N6    N     N_1   0.109654 0.707375 0.707901 -0.295549
C32   C     C_1   0.204224 0.350065 0.356055 0.325448
N7    N     N_1   0.284540 0.285629 0.296517 -0.265820
C33   C     C_1   0.849039 0.305943 0.819977 0.235869
N8    N     N_1   0.958514 0.256945 0.776972 -0.251375
C34   C     C_1   0.426483 0.619506 0.169367 0.227431
N9    N     N_1   0.346219 0.700465 0.200923 -0.245719
C35   C     C_1   0.777879 0.872021 0.410404 0.390525
N10   N     N_1   0.889100 0.821396 0.375941 -0.224726

loop_
_geom_bond_atom_site_label_1
_geom_bond_atom_site_label_2
_geom_bond_distance
_ccdc_geom_bond_type
C7    C8    1.388018 A    
O4    Cu2   1.944095 S    
C26   N1    1.375718 A    
Cu2   N2    2.014411 S    
C5    H2    1.082551 S    
C21   C22   1.417521 A    
C11   C15   1.410311 A    
C25   H7    1.082924 S    
C4    C6    1.463054 S    
C3    C21   1.471172 S    
C19   C20   1.399426 A    
Cu2   O8    1.955669 S    
C7    H3    1.081338 S    
C35   N10   1.157267 T    
C8    C9    1.390130 A    
C34   N9    1.157720 T    
C19   C24   1.413878 A    
C32   N7    1.157666 T    
Cu1   Cu2   2.680726 S    
C6    C17   1.396059 A    
O1    Cu1   1.985900 S    
Cu1   N1    2.014570 S    
C12   C13   1.424681 A    
Cu1   O7    1.944096 S    
C25   C26   1.415046 A    
C14   C15   1.391147 A    
C19   C35   1.450419 S    
O3    Cu1   1.955667 S    
O4    C2    1.295866 A    
C8    H5    1.082412 S    
C9    C10   1.414492 A    
C20   C21   1.413926 A    
C2    C18   1.478021 S    
C25   N2    1.361726 A    
O8    C4    1.294758 A    
C1    C24   1.474714 S    
C5    C17   1.385716 A    
C28   N2    1.360162 A    
C10   C11   1.414497 A    
C15   H6    1.080768 S    
C22   C23   1.392015 A    
C9    H4    1.080019 S    
C10   C12   1.424185 A    
C27   C32   1.438820 S    
C5    C13   1.408557 A    
C23   C30   1.453357 S    
C22   C29   1.454987 S    
C31   N6    1.157552 T    
C11   C18   1.422301 A    
C26   C31   1.438062 S    
C6    C16   1.404605 A    
N1    C27   1.377273 A    
H1    C17   1.083543 S    
O3    C2    1.300979 A    
N3    O9    1.301140 A    
C28   H8    1.080824 S    
C23   C24   1.415391 A    
Cu1   O5    1.983217 S    
O5    C3    1.291065 A    
C30   N5    1.156497 T    
O2    C1    1.300896 A    
N3    O10   1.301347 A    
C13   C14   1.405784 A    
C27   C28   1.413996 A    
C7    C18   1.404414 A    
C14   C33   1.445129 S    
O7    C4    1.294033 A    
Cu2   O6    1.985900 S    
O2    Cu2   1.983219 S    
C20   N3    1.435003 S    
C12   C16   1.416357 A    
C29   N4    1.156673 T    
C33   N8    1.156225 T    
O1    C1    1.292539 A    
O6    C3    1.300437 A    
C16   C34   1.453259 S    
