data_mof_unit_36004.cif
_audit_creation_date              2012-12-11T17:01:22-0500
_audit_creation_method            fapswitch 2.2
_symmetry_space_group_name_H-M    P1
_symmetry_Int_Tables_number       1
_space_group_crystal_system       triclinic
_cell_length_a                    19.458424
_cell_length_b                    7.181212
_cell_length_c                    17.5349
_cell_angle_alpha                 89.999874
_cell_angle_beta                  108.605167
_cell_angle_gamma                 89.999404
_cell_volume                      2322.18999984

loop_
_atom_site_label
_atom_site_type_symbol
_atom_type_description
_atom_site_fract_x
_atom_site_fract_y
_atom_site_fract_z
_atom_type_partial_charge
O1    O     O_R   0.413720 0.494330 0.415730 -0.526345
O2    O     O_R   0.586280 0.994330 0.584270 -0.526339
O3    O     O_R   0.560210 0.819300 0.430070 -0.506852
O4    O     O_R   0.439790 0.319300 0.569930 -0.506853
C1    C     C_R   0.579575 0.655183 0.412589 0.835899
C2    C     C_R   0.420425 0.155184 0.587412 0.835900
O5    O     O_R   0.412670 0.823730 0.406310 -0.559719
O6    O     O_R   0.587330 0.323730 0.593690 -0.559721
O7    O     O_R   0.437690 0.998790 0.560340 -0.521169
O8    O     O_R   0.562310 0.498790 0.439660 -0.521170
C3    C     C_R   0.385870 0.654862 0.383597 0.750866
C4    C     C_R   0.614130 0.154860 0.616403 0.750872
O9    O     O_3   0.508380 0.662350 0.550560 -0.360259
O10   O     O_3   0.491620 0.162350 0.449440 -0.360258
V1    V     V_3+5 0.498450 0.935370 0.490620 1.698378
V2    V     V_3+5 0.501550 0.435370 0.509380 1.698371
C5    C     C_R   0.733545 0.003395 0.687191 0.045155
C6    C     C_R   0.266458 0.503394 0.312810 0.045210
C7    C     C_R   0.682925 0.143723 0.684026 -0.088580
C8    C     C_R   0.317075 0.643726 0.315975 -0.088566
C9    C     C_R   0.696551 0.262018 0.750556 -0.096514
C10   C     C_R   0.303447 0.762019 0.249444 -0.096468
H1    H     H_    0.654300 0.356395 0.753506 0.187311
H2    H     H_    0.345698 0.856394 0.246493 0.187308
C11   C     C_R   0.761267 0.246321 0.816067 0.073839
C12   C     C_R   0.238730 0.746321 0.183934 0.073862
H3    H     H_    0.766600 0.320984 0.870768 0.214564
H4    H     H_    0.233397 0.820984 0.129232 0.214548
C13   C     C_R   0.816243 0.120730 0.814724 -0.059878
C14   C     C_R   0.183756 0.620728 0.185278 -0.059882
C15   C     C_R   0.798698 0.991042 0.751798 0.015940
C16   C     C_R   0.201304 0.491038 0.248203 0.015828
C17   C     C_3   0.788637 0.786058 0.758861 0.681716
C18   C     C_3   0.211373 0.286054 0.241143 0.681771
C19   C     C_3   0.718978 0.800109 0.688268 -0.454693
C20   C     C_3   0.281032 0.300112 0.311733 -0.454683
H5    H     H_    0.668476 0.770735 0.702770 0.221560
H6    H     H_    0.331534 0.270745 0.297228 0.221554
H7    H     H_    0.720132 0.731117 0.631969 0.201348
H8    H     H_    0.279881 0.231117 0.368033 0.201349
C21   C     C_R   0.321803 0.288823 0.632972 0.608946
C22   C     C_R   0.678198 0.788818 0.367031 0.608935
C23   C     C_R   0.374058 0.147591 0.640561 -0.297343
C24   C     C_R   0.625943 0.647589 0.359440 -0.297320
C25   C     C_R   0.380931 0.003626 0.698463 0.282478
C26   C     C_R   0.619071 0.503626 0.301538 0.282448
C27   C     C_R   0.328000 0.988939 0.738398 -0.002513
C28   C     C_R   0.672001 0.488938 0.261603 -0.002539
C29   C     C_R   0.277479 0.135045 0.731674 -0.035901
C30   C     C_R   0.722522 0.635043 0.268328 -0.035883
C31   C     C_R   0.275807 0.287215 0.680391 -0.107594
C32   C     C_R   0.724195 0.787210 0.319612 -0.107597
C33   C     C_R   0.323864 0.831833 0.784997 -0.119497
C34   C     C_R   0.676139 0.331833 0.215004 -0.119572
C35   C     C_R   0.275047 0.825319 0.828347 -0.092378
C36   C     C_R   0.724956 0.325321 0.171654 -0.092361
C37   C     C_R   0.227957 0.974381 0.825824 0.054617
C38   C     C_R   0.772044 0.474383 0.174176 0.054616
C39   C     C_R   0.228619 0.129675 0.776806 -0.037184
C40   C     C_R   0.771383 0.629673 0.223195 -0.037178
C41   C     C_R   0.180584 0.279729 0.773006 -0.023899
C42   C     C_R   0.819418 0.779726 0.226997 -0.023926
C43   C     C_R   0.180383 0.431681 0.722515 0.621362
C44   C     C_R   0.819620 0.931674 0.277490 0.621331
C45   C     C_R   0.226997 0.434208 0.676188 -0.162932
C46   C     C_R   0.773006 0.934200 0.323817 -0.162897
C47   C     C_R   0.179851 0.969593 0.870890 0.620769
C48   C     C_R   0.820149 0.469598 0.129108 0.620686
C49   C     C_R   0.132291 0.119668 0.868011 -0.233261
C50   C     C_R   0.867710 0.619670 0.131990 -0.233340
C51   C     C_R   0.133453 0.274462 0.819358 -0.207645
C52   C     C_R   0.866549 0.774459 0.180645 -0.207640
H9    H     H_    0.356826 0.709787 0.786930 0.201635
H10   H     H_    0.643178 0.209787 0.213072 0.201631
H11   H     H_    0.274168 0.702117 0.863698 0.178665
H12   H     H_    0.725835 0.202120 0.136302 0.178666
H13   H     H_    0.096655 0.389442 0.816644 0.209092
H14   H     H_    0.903348 0.889436 0.183361 0.209189
H15   H     H_    0.225147 0.552923 0.637456 0.217221
H16   H     H_    0.774857 0.052912 0.362551 0.217220
O11   O     O_R   0.937800 0.775460 0.060470 -0.551530
O12   O     O_R   0.062200 0.275460 0.939530 -0.551628
O13   O     O_R   0.087350 0.441340 0.093710 -0.502438
O14   O     O_R   0.912650 0.941340 0.906290 -0.502439
C53   C     C_R   0.114638 0.610005 0.116457 0.751925
C54   C     C_R   0.885361 0.110007 0.883544 0.751994
O15   O     O_R   0.939820 0.446010 0.069950 -0.498979
O16   O     O_R   0.060180 0.946010 0.930050 -0.498944
O17   O     O_R   0.913690 0.271230 0.915700 -0.515141
O18   O     O_R   0.086310 0.771230 0.084300 -0.515083
C55   C     C_R   0.918509 0.613934 0.084370 0.799344
C56   C     C_R   0.081491 0.113934 0.915630 0.799335
O19   O     O_3   0.991670 0.603050 0.949510 -0.349245
O20   O     O_3   0.008330 0.103050 0.050490 -0.348991
V3    V     V_3+5 0.001550 0.329940 0.009370 1.757059
V4    V     V_3+5 0.998450 0.829940 0.990630 1.757194
F1    F     F_    0.180910 0.820756 0.919254 -0.679906
F2    F     F_    0.819089 0.320766 0.080741 -0.679896
F3    F     F_    0.134642 0.577480 0.717301 -0.660126
F4    F     F_    0.865361 0.077469 0.282706 -0.660238
S1    S     S_3+6 0.773424 0.719452 0.853013 -0.021211
O21   O     O_2   0.703373 0.615693 0.835982 -0.357511
O22   O     O_2   0.835308 0.600127 0.901088 -0.345305
O23   O     O_3   0.766691 0.900276 0.911189 -0.522103
H17   H     H_    0.768932 0.844641 0.963633 0.366171
S2    S     S_3+6 0.226581 0.219450 0.146989 -0.021168
O24   O     O_2   0.296630 0.115685 0.164015 -0.357501
O25   O     O_2   0.164693 0.100132 0.098917 -0.345273
O26   O     O_3   0.233311 0.400277 0.088814 -0.522093
H18   H     H_    0.231044 0.344652 0.036360 0.366157
S3    S     S_3+6 0.858270 0.660262 0.732606 0.048653
O27   O     O_2   0.846328 0.454590 0.735092 -0.338558
O28   O     O_2   0.855775 0.712935 0.648740 -0.308840
O29   O     O_3   0.940830 0.714334 0.795301 -0.484994
H19   H     H_    0.975002 0.639244 0.776500 0.370226
S4    S     S_3+6 0.141752 0.160241 0.267410 0.048563
O30   O     O_2   0.153745 0.954573 0.265021 -0.338354
O31   O     O_2   0.144205 0.213099 0.351243 -0.309095
O32   O     O_3   0.059195 0.214117 0.204660 -0.485047
H20   H     H_    0.024992 0.140054 0.223825 0.370317
F5    F     F_    0.315128 0.428219 0.578518 -0.654859
F6    F     F_    0.684873 0.928212 0.421486 -0.654863
S5    S     S_3+6 0.460085 0.859582 0.729694 0.033290
O33   O     O_2   0.444190 0.679249 0.684016 -0.287780
O34   O     O_2   0.523817 0.952119 0.714722 -0.349056
O35   O     O_3   0.483573 0.813163 0.828765 -0.475818
H21   H     H_    0.492286 0.936636 0.855315 0.349398
S6    S     S_3+6 0.539917 0.359588 0.270308 0.033317
O36   O     O_2   0.555808 0.179269 0.315998 -0.287774
O37   O     O_2   0.476182 0.452146 0.285269 -0.349035
O38   O     O_3   0.516433 0.313130 0.171240 -0.475789
H22   H     H_    0.507774 0.436601 0.144683 0.349362

loop_
_geom_bond_atom_site_label_1
_geom_bond_atom_site_label_2
_ccdc_geom_bond_type
C43   C45   A    
O4    V2    S    
S1    O21   D    
C36   H12   S    
O15   C55   A    
S3    O27   D    
O1    C3    A    
O2    C4    A    
S6    O36   D    
C2    O7    A    
O16   V4    S    
O29   H19   S    
C32   C46   A    
S5    O33   D    
C27   C29   A    
C25   S5    S    
C28   C34   A    
O35   H21   S    
C45   H15   S    
C10   H2    S    
C26   S6    S    
O19   V4    S    
C19   H5    S    
O14   C54   A    
O14   V4    S    
S5    O34   D    
S2    O24   D    
C18   S4    S    
O12   C56   A    
S4    O30   D    
C40   C42   A    
C31   C45   A    
C25   C27   A    
C21   F5    S    
C49   C51   A    
C52   H14   S    
C17   C19   S    
C34   H10   S    
C50   C55   S    
S4    O31   D    
C29   C31   A    
O15   V3    S    
C30   C32   A    
C15   C17   S    
C17   S3    S    
C49   C56   S    
C42   C44   A    
C27   C33   A    
C35   H11   S    
C41   C51   A    
C28   C30   A    
O6    V2    S    
C21   C23   A    
C22   C24   A    
C37   C47   A    
O23   H17   S    
C24   C26   A    
O5    C3    A    
C38   C40   A    
C26   C28   A    
C33   C35   A    
C11   C13   A    
C53   O18   A    
C34   C36   A    
C3    C8    S    
C39   C41   A    
C18   S2    S    
O16   C56   A    
C20   H8    S    
O4    C2    A    
O11   V4    S    
S5    O35   S    
O5    V1    S    
C16   C18   S    
C47   C49   A    
C44   C46   A    
O17   V3    S    
C19   H7    S    
O6    C4    A    
O13   V3    S    
C41   C43   A    
C42   C52   A    
S3    O28   D    
O1    V2    S    
C14   C53   S    
O20   V4    S    
O2    V1    S    
C23   C25   A    
C13   C54   S    
C38   C48   A    
O13   C53   A    
C1    C24   S    
C8    C10   A    
C12   C14   A    
S1    O23   S    
C2    C23   S    
C9    H1    S    
C5    C15   A    
C17   S1    S    
C6    C16   A    
O38   H22   S    
S6    O38   S    
C51   H13   S    
O3    V1    S    
C22   F6    S    
C9    C11   A    
O12   V3    S    
C7    C9    A    
C33   H9    S    
O3    C1    A    
C54   O17   A    
S6    O37   D    
O32   H20   S    
O18   V4    S    
C11   H3    S    
C43   F3    S    
C46   H16   S    
C12   H4    S    
C29   C39   A    
S4    O32   S    
C30   C40   A    
C35   C37   A    
O7    V1    S    
C1    O8    A    
C13   C15   A    
O8    V2    S    
O26   H18   S    
C14   C16   A    
O19   V3    S    
S2    O25   D    
C4    C7    S    
C20   H6    S    
C5    C7    A    
C18   C20   S    
C36   C38   A    
S3    O29   S    
C6    C8    A    
O20   V3    S    
C48   F2    S    
C37   C39   A    
C47   F1    S    
O11   C55   A    
C44   F4    S    
S1    O22   D    
C10   C12   A    
O9    V2    S    
C48   C50   A    
O10   V1    S    
C50   C52   A    
C5    C19   S    
C6    C20   S    
C21   C31   A    
C22   C32   A    
S2    O26   S    
