data_mof_unit_44844.cif
_audit_creation_date              2012-10-26T20:13:53-0400
_audit_creation_method            fapswitch 2.2
_symmetry_space_group_name_H-M    P1
_symmetry_Int_Tables_number       1
_space_group_crystal_system       triclinic
_cell_length_a                    8.713481
_cell_length_b                    10.809683
_cell_length_c                    9.638159
_cell_angle_alpha                 90.022601
_cell_angle_beta                  97.386919
_cell_angle_gamma                 91.966709
_cell_volume                      899.742579267

loop_
_atom_site_label
_atom_site_type_symbol
_atom_type_description
_atom_site_fract_x
_atom_site_fract_y
_atom_site_fract_z
_atom_type_partial_charge
C1    C     C_R   0.495370 0.262628 0.499413 0.580014
C2    C     C_R   0.632834 0.524653 0.941969 0.121074
C3    C     C_3   0.744518 0.631760 0.943561 -0.251734
C4    C     C_R   0.204282 0.499814 0.464226 0.554623
C5    C     C_3   0.742162 0.638026 0.102031 -0.064745
C6    C     C_R   0.495419 0.737378 0.499705 0.551980
C7    C     C_R   0.795661 0.503534 0.535446 0.553447
C8    C     C_2   0.038301 0.495814 0.444594 -0.126001
C9    C     C_2   0.961417 0.513420 0.553373 -0.139190
C10   C     C_R   0.496488 0.064359 0.623775 0.055046
C11   C     C_R   0.477203 0.129209 0.498291 0.020361
C12   C     C_R   0.430116 0.933502 0.374177 -0.147277
C13   C     C_R   0.432213 0.062927 0.373271 -0.165172
C14   C     C_2   0.245442 0.380676 0.832128 0.628772
C15   C     C_2   0.676767 0.755752 0.148565 0.599989
C16   C     C_R   0.476304 0.870167 0.499290 0.006552
C17   C     C_R   0.495759 0.937132 0.624587 -0.020212
C18   C     C_3   0.618516 0.933493 0.747971 -0.244350
C19   C     C_3   0.620483 0.074446 0.746685 0.122407
C20   C     C_R   0.632014 0.527532 0.087392 0.102738
C21   C     C_R   0.377990 0.449966 0.060883 0.335010
C22   C     C_R   0.376985 0.450109 0.912779 0.181638
Cu1   Cu    Cu3+1 0.499990 0.499980 0.640670 1.022863
Cu2   Cu    Cu3+1 0.500010 0.500020 0.359330 1.013744
H1    H     H_    0.979188 0.475230 0.340466 0.142717
H2    H     H_    0.580233 0.116475 0.840317 0.179585
H3    H     H_    0.014588 0.344543 0.803552 0.358321
H4    H     H_    0.713094 0.908143 0.270847 0.333638
H5    H     H_    0.787899 0.089852 0.628082 0.333311
H6    H     H_    0.302219 0.337718 0.191255 0.347808
H7    H     H_    0.857898 0.603724 0.914776 0.155297
H8    H     H_    0.694164 0.710858 0.883135 0.149910
H9    H     H_    0.855734 0.616655 0.161954 0.124384
H10   H     H_    0.020583 0.537675 0.656049 0.159524
H11   H     H_    0.405093 0.110429 0.274707 0.144380
H12   H     H_    0.399573 0.883909 0.276610 0.196364
H13   H     H_    0.571883 0.894923 0.841326 0.162175
H14   H     H_    0.726931 0.892220 0.722870 0.144875
N1    N     N_R   0.500980 0.500930 0.148050 -0.247435
N2    N     N_R   0.500990 0.500890 0.852140 -0.283961
O1    O     O_R   0.500000 0.319640 0.618810 -0.435464
O2    O     O_R   0.094316 0.402909 0.857594 -0.680997
O3    O     O_2   0.550302 0.789154 0.094460 -0.545124
O4    O     O_R   0.764349 0.828227 0.251968 -0.694010
O5    O     O_3   0.760857 0.128973 0.714635 -0.680659
O6    O     O_3   0.256746 0.390364 0.114231 -0.653104
O7    O     O_R   0.500020 0.319680 0.381230 -0.550075
O8    O     O_R   0.274830 0.499980 0.591380 -0.494468
O9    O     O_R   0.274850 0.500020 0.353800 -0.474328
O10   O     O_R   0.499980 0.680320 0.618770 -0.511555
O11   O     O_R   0.500000 0.680360 0.381190 -0.470460
O12   O     O_R   0.725150 0.499980 0.646200 -0.493482
O13   O     O_R   0.725170 0.500020 0.408620 -0.505577
O14   O     O_2   0.268488 0.295793 0.754864 -0.503165

loop_
_geom_bond_atom_site_label_1
_geom_bond_atom_site_label_2
_ccdc_geom_bond_type
C15   O4    S    
Cu1   Cu2   S    
C19   O5    S    
C6    O11   A    
C12   H12   S    
C4    O9    A    
Cu1   O1    S    
C14   O2    S    
C10   C19   S    
C4    C8    S    
C22   N2    A    
C14   C22   S    
Cu2   O11   S    
C2    C3    S    
C18   H14   S    
C15   O3    D    
C5    C20   S    
C21   C22   A    
C6    O10   A    
C3    H7    S    
C8    H1    S    
C11   C13   A    
H3    O2    S    
Cu1   O12   S    
C9    H10   S    
C1    O1    A    
C14   O14   D    
C18   H13   S    
H6    O6    S    
C7    O12   A    
C13   H11   S    
C3    H8    S    
C5    C15   S    
C16   C17   A    
C10   C11   A    
C7    O13   A    
C10   C17   A    
C2    C20   A    
Cu1   N2    S    
C2    N2    A    
Cu2   N1    S    
C12   C13   A    
C19   H2    S    
C17   C18   S    
C21   O6    S    
C4    O8    A    
H5    O5    S    
Cu2   O9    S    
C7    C9    S    
C20   N1    A    
C18   C19   S    
Cu1   O10   S    
Cu1   O8    S    
Cu2   O13   S    
Cu2   O7    S    
C6    C16   S    
C21   N1    A    
H4    O4    S    
C1    O7    A    
C12   C16   A    
C5    H9    S    
C8    C9    D    
C3    C5    S    
C1    C11   S    
