data_mof_unit_56845.cif
_audit_creation_date              2012-12-10T17:30:23-0500
_audit_creation_method            fapswitch 2.2
_symmetry_space_group_name_H-M    P1
_symmetry_Int_Tables_number       1
_space_group_crystal_system       triclinic
_cell_length_a                    11.96652
_cell_length_b                    12.863297
_cell_length_c                    14.992086
_cell_angle_alpha                 90.679864
_cell_angle_beta                  86.122711
_cell_angle_gamma                 95.683167
_cell_volume                      2291.0851354

loop_
_atom_site_label
_atom_site_type_symbol
_atom_type_description
_atom_site_fract_x
_atom_site_fract_y
_atom_site_fract_z
_atom_type_partial_charge
C1    C     C_R   0.524833 0.700904 0.495353 0.959754
C2    C     C_R   0.475125 0.299221 0.505927 0.906442
C3    C     C_R   0.531268 0.692577 0.953497 -0.089923
C4    C     C_R   0.473795 0.309265 0.046755 -0.089901
C5    C     C_R   0.454447 0.186403 0.514597 -0.151635
C6    C     C_R   0.545318 0.813917 0.489200 -0.097059
C7    C     C_R   0.630108 0.971744 0.554315 -0.220284
C8    C     C_R   0.367962 0.027759 0.452364 -0.227988
C9    C     C_R   0.635765 0.867978 0.531705 0.005695
C10   C     C_R   0.362040 0.131382 0.475272 0.012027
C11   C     C_R   0.461222 0.868247 0.454954 -0.107220
C12   C     C_R   0.539502 0.132699 0.548241 -0.106859
C13   C     C_R   0.457350 0.974120 0.476977 0.120073
C14   C     C_R   0.542329 0.026233 0.527743 0.130477
C15   C     C_R   0.952352 0.408882 0.410660 -0.264322
C16   C     C_R   0.047643 0.591001 0.589409 -0.256819
C17   C     C_R   0.836274 0.416958 0.419824 0.090717
C18   C     C_R   0.163741 0.583094 0.580135 0.091228
C19   C     C_R   0.859346 0.537705 0.539710 0.055651
C20   C     C_R   0.140637 0.462024 0.460465 0.053521
C21   C     C_R   0.976542 0.532585 0.532816 0.070606
C22   C     C_R   0.023449 0.467209 0.467308 0.069812
C23   C     C_R   0.499854 0.499269 0.672762 0.822457
C24   C     C_R   0.500297 0.501230 0.327108 1.007261
C25   C     C_R   0.457531 0.411171 0.187007 -0.059203
C26   C     C_R   0.538714 0.591409 0.812145 -0.175574
C27   C     C_R   0.501288 0.501414 0.231438 -0.173020
C28   C     C_R   0.499224 0.499653 0.768372 -0.175485
C29   C     C_R   0.549090 0.590230 0.183689 -0.093353
C30   C     C_R   0.455875 0.409591 0.815529 -0.076518
C31   C     C_R   0.530578 0.595344 0.092354 -0.045997
C32   C     C_R   0.473781 0.405126 0.907176 0.060335
C33   C     C_R   0.502441 0.500669 0.046232 0.042237
C34   C     C_R   0.500421 0.500638 0.953172 0.059785
C35   C     C_R   0.476643 0.405885 0.093613 0.056836
C36   C     C_R   0.524440 0.596116 0.905958 -0.010048
C37   C     C_R   0.535442 0.692086 0.047070 -0.066153
C38   C     C_R   0.470871 0.308747 0.953050 -0.079917
H1    H     H_    0.986090 0.357888 0.359795 0.165915
H2    H     H_    0.013901 0.642002 0.640265 0.169883
H3    H     H_    0.696429 0.008781 0.592518 0.193672
H4    H     H_    0.299997 0.989720 0.416410 0.189673
H5    H     H_    0.178570 0.412193 0.410757 0.140475
H6    H     H_    0.821396 0.587258 0.589619 0.153012
H7    H     H_    0.218941 0.627730 0.623867 0.136907
H8    H     H_    0.781101 0.372442 0.376004 0.157020
N1    N     N_R   0.207800 0.519350 0.516680 -0.109480
N2    N     N_R   0.792200 0.480650 0.483320 -0.115120
O1    O     O_R   0.421700 0.658830 0.504450 -0.632474
O2    O     O_R   0.578300 0.341170 0.495550 -0.612755
O3    O     O_R   0.609310 0.646410 0.493750 -0.549535
O4    O     O_R   0.390690 0.353590 0.506250 -0.573331
O5    O     O_R   0.406180 0.506230 0.637500 -0.634150
O6    O     O_R   0.593820 0.493770 0.362500 -0.591865
O7    O     O_R   0.593800 0.493820 0.626800 -0.617866
O8    O     O_R   0.406200 0.506180 0.373200 -0.631943
Zn1   Zn    Zn3+2 0.374730 0.508290 0.507150 1.012361
Zn2   Zn    Zn3+2 0.625270 0.491710 0.492850 1.041548
C39   C     C_2   0.387004 0.325645 0.236379 0.910378
O9    O     O_2   0.417497 0.290914 0.305231 -0.650186
O10   O     O_R   0.286809 0.283088 0.201701 -0.794102
H9    H     H_    0.246919 0.224212 0.239621 0.336346
C40   C     C_2   0.598943 0.679585 0.759263 0.914842
O11   O     O_2   0.697997 0.705660 0.770063 -0.558102
O12   O     O_R   0.543381 0.734695 0.699015 -0.832534
H10   H     H_    0.460102 0.710836 0.699191 0.297902
C41   C     C_2   0.626216 0.672945 0.224777 0.420715
H11   H     H_    0.694792 0.713124 0.183534 0.117430
O13   O     O_2   0.613280 0.699059 0.302861 -0.592375
C42   C     C_2   0.386581 0.325163 0.769399 0.471722
H12   H     H_    0.405994 0.306604 0.699714 0.032614
O14   O     O_2   0.303630 0.278883 0.808195 -0.501727
C43   C     C_2   0.523709 0.790552 0.098483 0.922257
O15   O     O_2   0.438702 0.799123 0.146944 -0.623372
O16   O     O_R   0.610775 0.871594 0.093329 -0.725229
H13   H     H_    0.592908 0.933814 0.131972 0.365344
C44   C     C_2   0.485488 0.209957 0.902689 0.935944
O17   O     O_2   0.418118 0.132958 0.916009 -0.574183
O18   O     O_R   0.576175 0.206103 0.839320 -0.800804
H14   H     H_    0.577518 0.135008 0.809548 0.356417
C45   C     C_2   0.513728 0.791210 0.907585 0.482480
H15   H     H_    0.447913 0.790992 0.861210 0.058741
O19   O     O_2   0.574488 0.871666 0.918404 -0.471024
C46   C     C_2   0.492803 0.211118 0.093020 0.458201
H16   H     H_    0.445538 0.137654 0.077514 0.129803
O20   O     O_2   0.564236 0.211540 0.147520 -0.538525
C47   C     C_2   0.623109 0.190138 0.605180 0.439881
H17   H     H_    0.593689 0.238312 0.659993 0.075413
O21   O     O_2   0.724172 0.191935 0.586382 -0.532223
C48   C     C_2   0.380065 0.812669 0.394994 0.461852
H18   H     H_    0.411617 0.772066 0.336201 0.134139
O22   O     O_2   0.278890 0.804892 0.414664 -0.550786
C49   C     C_2   0.257370 0.177082 0.456053 0.508077
H19   H     H_    0.218663 0.158413 0.393722 0.042136
O23   O     O_2   0.208249 0.228024 0.512629 -0.539149
C50   C     C_2   0.737471 0.820583 0.555698 0.501427
H20   H     H_    0.769539 0.835505 0.621111 0.106904
O24   O     O_2   0.791582 0.772347 0.500256 -0.536224

loop_
_geom_bond_atom_site_label_1
_geom_bond_atom_site_label_2
_ccdc_geom_bond_type
C47   H17   S    
C40   O12   S    
C49   H19   S    
C27   C29   A    
C43   O15   D    
C24   C27   S    
C26   C40   S    
C18   N1    A    
C6    C9    A    
C45   H15   S    
C15   C22   A    
C44   O17   D    
C16   C21   A    
C19   C21   A    
C8    H4    S    
C24   O6    A    
O1    Zn1   S    
O8    Zn1   S    
C15   C17   A    
C2    O2    A    
C13   C14   A    
C45   O19   D    
C29   C41   S    
C7    C14   A    
C50   O24   D    
C3    C45   S    
C17   N2    A    
C42   H12   S    
C32   C38   A    
C4    C35   A    
C39   O9    D    
C49   O23   D    
C21   C22   A    
C43   O16   S    
C30   C42   S    
C23   O5    A    
C44   O18   S    
C39   O10   S    
C41   H11   S    
O2    Zn2   S    
C17   H8    S    
C5    C12   A    
C6    C11   A    
O5    Zn1   S    
C19   N2    A    
C10   C49   S    
C1    C6    S    
C41   O13   D    
C32   C34   A    
O16   H13   S    
N1    Zn1   S    
C48   O22   D    
C4    C46   S    
C50   H20   S    
C31   C33   A    
C33   C34   A    
O3    Zn2   S    
C23   C28   S    
C46   H16   S    
C23   O7    A    
C1    O3    A    
C9    C50   S    
C15   H1    S    
C2    O4    A    
C25   C35   A    
C26   C36   A    
C20   C22   A    
C47   O21   D    
O18   H14   S    
C2    C5    S    
C25   C27   A    
C18   H7    S    
C16   H2    S    
C20   H5    S    
C19   H6    S    
O6    Zn2   S    
C7    C9    A    
C37   C43   S    
C12   C47   S    
C8    C10   A    
C46   O20   D    
N2    Zn2   S    
C38   C44   S    
C24   O8    A    
C26   C28   A    
C28   C30   A    
C12   C14   A    
C5    C10   A    
C29   C31   A    
C30   C32   A    
C11   C13   A    
C11   C48   S    
C48   H18   S    
C3    C36   A    
C33   C35   A    
C34   C36   A    
C7    H3    S    
O10   H9    S    
C20   N1    A    
O4    Zn1   S    
C40   O11   D    
C8    C13   A    
C31   C37   A    
C3    C37   A    
C16   C18   A    
O12   H10   S    
O7    Zn2   S    
C42   O14   D    
C25   C39   S    
C4    C38   A    
C1    O1    A    
