data_mof_unit_55018.cif
_audit_creation_date              2012-12-10T17:22:09-0500
_audit_creation_method            fapswitch 2.2
_symmetry_space_group_name_H-M    P1
_symmetry_Int_Tables_number       1
_space_group_crystal_system       triclinic
_cell_length_a                    15.888657
_cell_length_b                    10.808195
_cell_length_c                    9.598773
_cell_angle_alpha                 88.692524
_cell_angle_beta                  90.135548
_cell_angle_gamma                 92.949608
_cell_volume                      1645.76166339

loop_
_atom_site_label
_atom_site_type_symbol
_atom_type_description
_atom_site_fract_x
_atom_site_fract_y
_atom_site_fract_z
_atom_type_partial_charge
C1    C     C_R   0.511007 0.263964 0.502479 0.906443
C2    C     C_3   0.948382 0.446252 0.637069 -0.420005
C3    C     C_3   0.917187 0.507038 0.499070 -0.003515
C4    C     C_3   0.956364 0.643967 0.480879 -0.039828
C5    C     C_3   0.055410 0.639166 0.484921 -0.405143
C6    C     C_1   0.824658 0.503564 0.499865 -0.034975
C7    C     C_1   0.175363 0.501899 0.499779 0.106740
C8    C     C_1   0.250819 0.500774 0.499643 -0.045549
C9    C     C_R   0.521583 0.105892 0.770938 -0.004241
C10   C     C_R   0.475142 0.049229 0.880872 -0.188732
C11   C     C_R   0.427160 0.940053 0.859969 -0.037063
C12   C     C_R   0.340363 0.499707 0.499921 0.828862
C13   C     C_R   0.430702 0.881644 0.732600 -0.125126
C14   C     C_R   0.477575 0.936996 0.620496 0.006029
C15   C     C_R   0.510408 0.059622 0.633602 0.057709
C16   C     C_R   0.527756 0.130472 0.509364 -0.128087
C17   C     C_R   0.540772 0.069548 0.383540 -0.072440
C18   C     C_R   0.514883 0.944349 0.373615 0.278826
C19   C     C_R   0.490253 0.874707 0.494869 -0.153748
C20   C     C_R   0.615644 0.659910 0.140610 -0.037820
C21   C     C_R   0.672786 0.737533 0.066889 -0.156374
C22   C     C_R   0.672169 0.738857 0.923329 -0.174761
C23   C     C_R   0.494011 0.738061 0.498106 0.796142
C24   C     C_R   0.614838 0.661947 0.852658 -0.100233
C25   C     C_R   0.556556 0.579286 0.923542 0.183141
C26   C     C_R   0.556771 0.578770 0.073105 0.157632
C27   C     C_R   0.446474 0.423601 0.074264 0.454234
C28   C     C_R   0.446770 0.424086 0.926801 -0.115093
C29   C     C_R   0.659609 0.500382 0.500075 0.829636
C30   C     C_3   0.046335 0.444940 0.640212 0.606657
C31   C     C_3   0.045344 0.427936 0.375682 0.221744
C32   C     C_3   0.947677 0.427533 0.377858 -0.394327
C33   C     C_1   0.749148 0.501646 0.500228 -0.087266
C34   C     C_3   0.082991 0.503267 0.500351 -0.007751
Cu1   Cu    Cu3+1 0.499990 0.499990 0.640660 0.969634
Cu2   Cu    Cu3+1 0.500010 0.500010 0.359340 1.049229
H1    H     H_    0.920076 0.350043 0.646689 0.229436
H2    H     H_    0.924216 0.494658 0.728490 0.198222
H3    H     H_    0.477918 0.087601 0.983963 0.167670
H4    H     H_    0.390581 0.897177 0.944703 0.202493
H5    H     H_    0.394072 0.795274 0.721207 0.168342
H6    H     H_    0.618299 0.671137 0.250108 0.193149
H7    H     H_    0.716708 0.798966 0.121880 0.167209
H8    H     H_    0.716000 0.800758 0.865939 0.183570
H9    H     H_    0.619130 0.671937 0.742674 0.194882
H10   H     H_    0.403494 0.361766 0.871893 0.189230
H11   H     H_    0.064375 0.330527 0.384650 0.179155
H12   H     H_    0.921688 0.330327 0.391277 0.195715
H13   H     H_    0.922788 0.461808 0.276511 0.225467
H14   H     H_    0.082681 0.694725 0.571777 0.192467
H15   H     H_    0.086054 0.683322 0.391313 0.263205
N1    N     N_R   0.500800 0.501210 0.147910 -0.227617
N2    N     N_R   0.500820 0.501290 0.852040 -0.232161
O1    O     O_R   0.499990 0.319640 0.618810 -0.594076
O2    O     O_R   0.500000 0.319660 0.381240 -0.522715
O3    O     O_R   0.379430 0.499990 0.618840 -0.575341
O4    O     O_R   0.379440 0.500020 0.381260 -0.512153
O5    O     O_R   0.500000 0.680340 0.618760 -0.620178
O6    O     O_R   0.500010 0.680360 0.381190 -0.544485
O7    O     O_R   0.620560 0.499980 0.618740 -0.584257
O8    O     O_R   0.620570 0.500010 0.381160 -0.595109
Cl1   Cl    Cl    0.086212 0.527738 0.788936 -0.499371
C35   C     C_2   0.925188 0.701148 0.343541 0.524186
H16   H     H_    0.857918 0.707476 0.326693 0.057594
O9    O     O_2   0.973090 0.740550 0.251660 -0.484633
C36   C     C_2   0.587803 0.133202 0.265598 0.455070
H17   H     H_    0.580390 0.101865 0.159867 0.094911
O10   O     O_2   0.639441 0.218361 0.286843 -0.534519
C37   C     C_2   0.590066 0.197990 0.808219 0.439224
H18   H     H_    0.589972 0.241093 0.909300 0.048651
O11   O     O_2   0.648730 0.223268 0.728846 -0.521147
Cl2   Cl    Cl    0.502921 0.882626 0.205248 -0.683124
Cl3   Cl    Cl    0.374274 0.319113 0.158887 -0.539336
Cl4   Cl    Cl    0.077350 0.288306 0.666166 -0.524714
Cl5   Cl    Cl    0.085356 0.484810 0.209984 -0.447976
C38   C     C_2   0.928655 0.723573 0.600362 0.340826
H19   H     H_    0.951851 0.706417 0.705035 0.142253
O12   O     O_2   0.880997 0.807706 0.581911 -0.530593

loop_
_geom_bond_atom_site_label_1
_geom_bond_atom_site_label_2
_ccdc_geom_bond_type
C23   O5    A    
C36   O10   D    
C35   O9    D    
Cu1   N2    S    
Cu1   Cu2   S    
C3    C6    S    
C13   H5    S    
C7    C8    T    
C23   O6    A    
C4    C35   S    
C28   H10   S    
C17   C36   S    
Cu1   O5    S    
C24   H9    S    
C38   O12   D    
C37   H18   S    
C30   Cl4   S    
C15   C16   A    
C29   C33   S    
C18   C19   A    
C37   O11   D    
C21   H7    S    
C22   H8    S    
C16   C17   A    
C13   C14   A    
C9    C10   A    
Cu2   N1    S    
Cu2   O6    S    
C36   H17   S    
C31   H11   S    
C21   C22   A    
C25   N2    A    
Cu1   O1    S    
C32   H12   S    
C3    C32   S    
C18   Cl2   S    
C29   O8    A    
C30   C34   S    
C38   H19   S    
Cu2   O4    S    
C25   C26   A    
Cu1   O7    S    
C19   C23   S    
C1    O1    A    
C26   N1    A    
C2    H2    S    
C31   Cl5   S    
C31   C32   S    
C29   O7    A    
C8    C12   S    
C5    C34   S    
C17   C18   A    
C31   C34   S    
C1    C16   S    
C24   C25   A    
C12   O3    A    
C12   O4    A    
C30   Cl1   S    
C7    C34   S    
C22   C24   A    
C5    H14   S    
C3    C4    S    
C27   N1    A    
Cu1   O3    S    
C14   C19   A    
C5    H15   S    
C9    C37   S    
C4    C5    S    
C20   H6    S    
C28   N2    A    
C6    C33   T    
C2    C30   S    
C2    C3    S    
C9    C15   A    
Cu2   O2    S    
C11   C13   A    
C2    H1    S    
C20   C26   A    
C1    O2    A    
C11   H4    S    
C32   H13   S    
C4    C38   S    
C10   C11   A    
C35   H16   S    
C20   C21   A    
C27   C28   A    
C14   C15   A    
C10   H3    S    
C27   Cl3   S    
Cu2   O8    S    
