data_mof_unit_64702.cif
_audit_creation_date              2012-12-10T17:38:11-0500
_audit_creation_method            fapswitch 2.2
_symmetry_space_group_name_H-M    P1
_symmetry_Int_Tables_number       1
_space_group_crystal_system       triclinic
_cell_length_a                    37.015013
_cell_length_b                    30.09365
_cell_length_c                    21.327571
_cell_angle_alpha                 89.997
_cell_angle_beta                  54.485755
_cell_angle_gamma                 89.999213
_cell_volume                      19337.6262707

loop_
_atom_site_label
_atom_site_type_symbol
_atom_type_description
_atom_site_fract_x
_atom_site_fract_y
_atom_site_fract_z
_atom_type_partial_charge
C1    C     C_R   0.086847 0.500016 0.413330 0.871410
C2    C     C_R   0.656949 0.465909 0.866448 -0.292072
C3    C     C_R   0.971270 0.157295 0.988826 -0.184215
C4    C     C_R   0.500001 0.634545 0.999994 -0.040699
C5    C     C_R   0.000002 0.134545 0.999994 -0.040696
C6    C     C_R   0.470553 0.703486 0.989932 0.113548
C7    C     C_R   0.529450 0.703484 0.010056 0.113548
C8    C     C_R   0.970559 0.203486 0.989918 0.113553
C9    C     C_R   0.029444 0.203484 0.010072 0.113561
C10   C     C_R   0.500001 0.726711 0.999995 0.061751
C11   C     C_R   0.000001 0.226711 0.999996 0.061781
C12   C     C_R   0.440917 0.726795 0.981343 -0.168879
C13   C     C_R   0.843049 0.965918 0.133539 -0.292099
C14   C     C_R   0.559085 0.726791 0.018647 -0.168883
C15   C     C_R   0.940929 0.226795 0.981314 -0.168889
C16   C     C_R   0.059073 0.226791 0.018678 -0.168906
C17   C     C_R   0.940320 0.273076 0.982860 -0.171081
C18   C     C_R   0.059680 0.273073 0.017137 -0.171054
C19   C     C_R   0.440308 0.773076 0.982889 -0.171136
C20   C     C_R   0.559692 0.773073 0.017105 -0.171146
C21   C     C_R   0.969724 0.296388 0.992040 0.107813
C22   C     C_R   0.030275 0.296386 0.007959 0.107732
C23   C     C_R   0.469719 0.796387 0.992054 0.107797
C24   C     C_R   0.156949 0.965913 0.866457 -0.292092
C25   C     C_R   0.530281 0.796385 0.007942 0.107794
C26   C     C_3   0.972861 0.468746 0.797829 0.572594
C27   C     C_3   0.026798 0.468470 0.202518 0.572598
C28   C     C_3   0.472788 0.968807 0.797902 0.572607
C29   C     C_3   0.527178 0.968784 0.202138 0.572608
C30   C     C_R   1.000000 0.273164 0.999998 0.066011
C31   C     C_R   0.500000 0.773163 0.999997 0.066030
C32   C     C_R   0.969529 0.342582 0.993232 -0.207210
C33   C     C_R   0.030469 0.342580 0.006771 -0.206863
C34   C     C_R   0.469524 0.842581 0.993246 -0.207254
C35   C     C_R   0.365754 0.502236 0.134947 -0.153902
C36   C     C_R   0.530475 0.842580 0.006754 -0.207227
C37   C     C_R   0.999999 0.365383 0.000002 -0.063550
C38   C     C_R   0.499999 0.865383 0.000001 -0.063520
C39   C     C_R   0.522288 0.342429 0.929992 -0.174271
C40   C     C_R   0.477719 0.342425 0.070012 -0.174278
C41   C     C_R   0.022196 0.842423 0.930001 -0.174243
C42   C     C_R   0.977811 0.842419 0.070007 -0.174260
C43   C     C_R   0.500003 0.365221 0.000002 -0.117968
C44   C     C_R   0.000002 0.865217 0.000003 -0.118085
C45   C     C_R   0.477042 0.296226 0.070750 0.006756
C46   C     C_R   0.634246 0.502235 0.865052 -0.153892
C47   C     C_R   0.522967 0.296230 0.929253 0.006742
C48   C     C_R   0.977139 0.796220 0.070748 0.006746
C49   C     C_R   0.022874 0.796224 0.929261 0.006716
C50   C     C_R   0.500004 0.272983 0.000002 -0.010631
C51   C     C_R   0.000007 0.772977 0.000005 -0.010649
C52   C     C_R   0.453824 0.272877 0.140696 0.597419
C53   C     C_R   0.546185 0.272887 0.859307 0.597429
C54   C     C_R   0.954019 0.772872 0.140693 0.597446
C55   C     C_R   0.045997 0.772880 0.859316 0.597417
C56   C     C_R   0.953453 0.726653 0.140572 -0.166603
C57   C     C_R   0.865754 0.002237 0.134947 -0.153911
C58   C     C_R   0.046567 0.726662 0.859438 -0.166342
C59   C     C_R   0.453254 0.226659 0.140570 -0.166364
C60   C     C_R   0.546755 0.226668 0.859432 -0.166330
C61   C     C_R   0.976291 0.703262 0.070772 -0.088773
C62   C     C_R   0.023728 0.703267 0.929239 -0.088978
C63   C     C_R   0.476187 0.203268 0.070767 -0.088971
C64   C     C_R   0.523821 0.203273 0.929236 -0.089000
C65   C     C_3   0.000599 0.499956 0.810455 -0.267637
C66   C     C_3   0.999395 0.499974 0.189551 -0.267572
C67   C     C_3   0.500598 0.999953 0.810456 -0.267642
C68   C     C_R   0.134246 0.002235 0.865052 -0.153906
C69   C     C_3   0.499401 0.999958 0.189544 -0.267635
C70   C     C_R   0.000008 0.726494 0.000005 -0.109443
C71   C     C_R   0.500004 0.226500 0.000001 -0.109485
C72   C     C_R   0.975995 0.657014 0.070241 0.576907
C73   C     C_R   0.024023 0.657019 0.929769 0.577413
C74   C     C_R   0.475889 0.157020 0.070233 0.577457
C75   C     C_R   0.524117 0.157025 0.929768 0.577499
C76   C     C_R   0.000005 0.634359 0.000005 -0.323661
C77   C     C_R   0.500002 0.134363 0.000001 -0.323925
C78   C     C_3   0.042075 0.491569 0.728198 -0.353645
C79   C     C_R   0.343477 0.539556 0.181427 0.373694
C80   C     C_3   0.957831 0.492031 0.271901 -0.353403
C81   C     C_3   0.542055 0.991470 0.728219 -0.353666
C82   C     C_3   0.457935 0.991520 0.271793 -0.353637
C83   C     C_3   0.028519 0.531689 0.700333 -0.214348
C84   C     C_3   0.971818 0.532002 0.299324 -0.214297
C85   C     C_3   0.528591 0.031621 0.700260 -0.214367
C86   C     C_3   0.471443 0.031657 0.299700 -0.214360
C87   C     C_3   0.987189 0.539549 0.783289 0.449547
C88   C     C_3   0.013227 0.539422 0.216285 0.449385
C89   C     C_3   0.487280 0.039577 0.783199 0.449494
C90   C     C_R   0.656525 0.539559 0.818582 0.373690
C91   C     C_3   0.512762 0.039569 0.216751 0.449489
C92   C     C_3   0.958754 0.508421 0.770785 -0.355937
C93   C     C_3   0.041330 0.507992 0.229128 -0.355886
C94   C     C_3   0.458773 0.008516 0.770766 -0.355879
C95   C     C_3   0.541236 0.008478 0.229223 -0.355879
C96   C     C_R   0.843476 0.039555 0.181429 0.373691
C97   C     C_R   0.913153 0.500015 0.586670 0.871612
C98   C     C_R   0.156525 0.039557 0.818573 0.373688
C99   C     C_R   0.296670 0.540028 0.228613 -0.127441
C100  C     C_R   0.703331 0.540031 0.771394 -0.127423
C101  C     C_R   0.796670 0.040027 0.228616 -0.127451
C102  C     C_R   0.203331 0.040029 0.771385 -0.127437
C103  C     C_R   0.273737 0.502406 0.227622 -0.069162
C104  C     C_R   0.726263 0.502404 0.772376 -0.069148
C105  C     C_R   0.773737 0.002406 0.227622 -0.069160
C106  C     C_R   0.226263 0.002404 0.772375 -0.069160
C107  C     C_R   0.297145 0.465442 0.180024 0.164794
C108  C     C_R   0.586847 0.000016 0.413330 0.871394
C109  C     C_R   0.702853 0.465434 0.819963 0.164781
C110  C     C_R   0.797145 0.965443 0.180022 0.164783
C111  C     C_R   0.202853 0.965438 0.819972 0.164775
C112  C     C_R   0.271802 0.576449 0.276694 0.704565
C113  C     C_R   0.728201 0.576457 0.723323 0.704558
C114  C     C_R   0.771801 0.076448 0.276699 0.704570
C115  C     C_R   0.228201 0.076452 0.723304 0.704556
C116  C     C_R   0.225668 0.575393 0.321992 -0.300473
C117  C     C_R   0.774334 0.575401 0.678024 -0.300489
C118  C     C_R   0.725668 0.075392 0.321997 -0.300486
C119  C     C_R   0.413153 0.000015 0.586669 0.871415
C120  C     C_R   0.274334 0.075395 0.678005 -0.300502
C121  C     C_R   0.203314 0.538379 0.321017 0.015972
C122  C     C_R   0.796687 0.538382 0.678990 0.015991
C123  C     C_R   0.703314 0.038379 0.321020 0.015975
C124  C     C_R   0.296687 0.038379 0.678980 0.015984
C125  C     C_R   0.000185 0.499974 0.621370 0.947158
C126  C     C_R   0.999811 0.499977 0.378634 0.947469
C127  C     C_R   0.500184 0.999974 0.621371 0.947098
C128  C     C_R   0.499816 0.999976 0.378630 0.947127
C129  C     C_R   0.227232 0.501589 0.274106 0.086928
C130  C     C_3   0.000290 0.499983 0.688698 -0.261643
C131  C     C_R   0.772768 0.501586 0.725890 0.086920
C132  C     C_R   0.727231 0.001589 0.274107 0.086916
C133  C     C_R   0.272768 0.001586 0.725889 0.086915
C134  C     C_R   0.204546 0.463943 0.273626 0.138079
C135  C     C_R   0.795452 0.463935 0.726360 0.138020
C136  C     C_R   0.704546 0.963944 0.273625 0.138028
C137  C     C_R   0.295452 0.963938 0.726368 0.138015
C138  C     C_R   0.228270 0.427559 0.226473 -0.196127
C139  C     C_R   0.771726 0.427546 0.773504 -0.195971
C140  C     C_R   0.728270 0.927561 0.226469 -0.196043
C141  C     C_3   0.999707 0.499996 0.311305 -0.261782
C142  C     C_R   0.271726 0.927552 0.773521 -0.196017
C143  C     C_R   0.274380 0.428368 0.179677 -0.170309
C144  C     C_R   0.725617 0.428355 0.820301 -0.170274
C145  C     C_R   0.774380 0.928370 0.179673 -0.170328
C146  C     C_R   0.225617 0.928361 0.820318 -0.170309
C147  C     C_R   0.157221 0.537606 0.366390 -0.187637
C148  C     C_R   0.842780 0.537609 0.633617 -0.187622
C149  C     C_R   0.657220 0.037606 0.366393 -0.187728
C150  C     C_R   0.342781 0.037606 0.633607 -0.187732
C151  C     C_R   0.134877 0.500258 0.365991 -0.067089
C152  C     C_3   0.500289 0.999981 0.688700 -0.261623
C153  C     C_R   0.865123 0.500256 0.634006 -0.067095
C154  C     C_R   0.634877 0.000258 0.365992 -0.067146
C155  C     C_R   0.365123 0.000256 0.634005 -0.067149
C156  C     C_R   0.158403 0.463418 0.320168 -0.230839
C157  C     C_R   0.841596 0.463411 0.679819 -0.230553
C158  C     C_R   0.658403 0.963419 0.320167 -0.230694
C159  C     C_R   0.341596 0.963414 0.679827 -0.230659
C160  C     C_R   1.000000 0.413271 0.000001 0.885797
C161  C     C_R   0.500000 0.913271 0.000000 0.885432
C162  C     C_R   0.000150 0.499928 0.878317 0.993581
C163  C     C_3   0.499710 0.999987 0.311301 -0.261645
C164  C     C_R   0.999848 0.499936 0.121684 0.993945
C165  C     C_R   0.500150 0.999926 0.878317 0.993448
C166  C     C_R   0.499850 0.999928 0.121683 0.993484
C167  C     C_R   0.000001 0.586661 0.000002 1.050703
C168  C     C_R   0.500000 0.086663 0.000000 1.050621
C169  C     C_3   0.013709 0.460420 0.715858 0.648074
C170  C     C_3   0.985863 0.460580 0.284581 0.648115
C171  C     C_3   0.513616 0.960387 0.715951 0.648056
C172  C     C_3   0.486340 0.960407 0.284100 0.648059
C173  C     C_R   0.500000 0.413129 0.000001 0.865919
C174  C     C_R   0.343049 0.465917 0.133541 -0.292093
C175  C     C_R   1.000000 0.913127 0.000002 0.865961
C176  C     C_R   0.413377 0.500484 0.086845 0.937705
C177  C     C_R   0.586622 0.500483 0.913155 0.937713
C178  C     C_R   0.913377 0.000484 0.086845 0.937712
C179  C     C_R   0.086622 0.000484 0.913155 0.937720
C180  C     C_R   0.500000 0.586739 0.999998 0.945369
C181  C     C_R   0.000000 0.086739 0.999998 0.945360
C182  C     C_R   0.528739 0.657293 0.011147 -0.184198
C183  C     C_R   0.471264 0.657295 0.988840 -0.184219
C184  C     C_R   0.028733 0.157294 0.011162 -0.184200
Cl1   Cl    Cl    0.969957 0.592248 0.829846 -0.522016
Cl2   Cl    Cl    0.031005 0.591938 0.169166 -0.522488
Cl3   Cl    Cl    0.470170 0.092314 0.829636 -0.522155
Cl4   Cl    Cl    0.529929 0.092288 0.170248 -0.522201
Cl5   Cl    Cl    0.375460 0.585221 0.176298 -0.511880
Cl6   Cl    Cl    0.624542 0.585230 0.823720 -0.511910
Cl7   Cl    Cl    0.875460 0.085220 0.176304 -0.511842
Cl8   Cl    Cl    0.124543 0.085225 0.823701 -0.511892
F1    F     F_    0.944883 0.436110 0.848855 -0.625559
F2    F     F_    0.568507 0.294715 0.790836 -0.645360
F3    F     F_    0.931790 0.794696 0.209160 -0.645425
F4    F     F_    0.068226 0.794709 0.790849 -0.645377
F5    F     F_    0.953412 0.633891 0.137613 -0.625350
F6    F     F_    0.046620 0.633902 0.862396 -0.624781
F7    F     F_    0.453201 0.133900 0.137608 -0.624750
F8    F     F_    0.546805 0.133910 0.862394 -0.624687
F9    F     F_    0.291164 0.613407 0.281112 -0.587555
F10   F     F_    0.708840 0.613421 0.718914 -0.587575
F11   F     F_    0.791164 0.113405 0.281120 -0.587531
F12   F     F_    0.054422 0.435537 0.151844 -0.625867
F13   F     F_    0.208840 0.113413 0.718886 -0.587563
F14   F     F_    0.444734 0.936235 0.849003 -0.625484
F15   F     F_    0.555195 0.936182 0.151079 -0.625511
F16   F     F_    0.027011 0.419357 0.680238 -0.607842
F17   F     F_    0.972123 0.419665 0.320661 -0.607802
F18   F     F_    0.526823 0.919293 0.680429 -0.607844
F19   F     F_    0.473088 0.919327 0.319674 -0.607836
F20   F     F_    0.431503 0.294702 0.209167 -0.645384
H1    H     H_    0.207327 0.603726 0.358209 0.192046
H2    H     H_    0.859187 0.434691 0.680168 0.170113
H3    H     H_    0.640810 0.934703 0.319809 0.170119
H4    H     H_    0.359187 0.934696 0.680183 0.170129
H5    H     H_    0.211170 0.398585 0.225626 0.162003
H6    H     H_    0.788826 0.398567 0.774343 0.162060
H7    H     H_    0.711170 0.898587 0.225620 0.162050
H8    H     H_    0.288826 0.898575 0.774368 0.162063
H9    H     H_    0.292278 0.399950 0.143314 0.156830
H10   H     H_    0.707717 0.399933 0.856656 0.156849
H11   H     H_    0.792278 0.899953 0.143308 0.156835
H12   H     H_    0.792677 0.603738 0.641814 0.192019
H13   H     H_    0.207717 0.899941 0.856680 0.156849
H14   H     H_    0.551047 0.638949 0.019077 0.161938
H15   H     H_    0.448956 0.638951 0.980911 0.161933
H16   H     H_    0.051037 0.138949 0.019103 0.161931
H17   H     H_    0.948966 0.138952 0.980886 0.161928
H18   H     H_    0.418120 0.709237 0.973818 0.164645
H19   H     H_    0.581883 0.709232 0.026171 0.164638
H20   H     H_    0.918136 0.209237 0.973778 0.164636
H21   H     H_    0.081866 0.209232 0.026214 0.164623
H22   H     H_    0.917056 0.290634 0.976513 0.170839
H23   H     H_    0.707326 0.103724 0.358216 0.192055
H24   H     H_    0.082943 0.290629 0.023486 0.170827
H25   H     H_    0.417040 0.790633 0.976553 0.170837
H26   H     H_    0.582960 0.790629 0.023442 0.170827
H27   H     H_    0.946371 0.360876 0.987395 0.181842
H28   H     H_    0.053627 0.360873 0.012609 0.181950
H29   H     H_    0.446361 0.860875 0.987420 0.181815
H30   H     H_    0.553637 0.860872 0.012581 0.181817
H31   H     H_    0.539682 0.360842 0.876302 0.210771
H32   H     H_    0.460325 0.360835 0.123701 0.210765
H33   H     H_    0.039519 0.860834 0.876313 0.210849
H34   H     H_    0.292677 0.103731 0.641789 0.192043
H35   H     H_    0.960486 0.860827 0.123694 0.210844
H36   H     H_    0.935245 0.709261 0.195217 0.232364
H37   H     H_    0.064776 0.709273 0.804793 0.232498
H38   H     H_    0.434970 0.209267 0.195216 0.232486
H39   H     H_    0.565039 0.209279 0.804786 0.232505
H40   H     H_    0.075897 0.484326 0.712045 0.217034
H41   H     H_    0.923930 0.485153 0.288144 0.217197
H42   H     H_    0.575859 0.984148 0.712085 0.217008
H43   H     H_    0.424122 0.984233 0.287937 0.217025
H44   H     H_    0.051020 0.557779 0.659095 0.203132
H45   H     H_    0.138708 0.565900 0.402643 0.167976
H46   H     H_    0.949597 0.558333 0.340272 0.203417
H47   H     H_    0.551153 0.057659 0.658961 0.203073
H48   H     H_    0.448909 0.057719 0.340966 0.203100
H49   H     H_    0.924913 0.515256 0.786706 0.198487
H50   H     H_    0.075245 0.514462 0.213125 0.198373
H51   H     H_    0.424948 0.015429 0.786672 0.198517
H52   H     H_    0.575069 0.015356 0.213308 0.198507
H53   H     H_    0.361397 0.437676 0.096815 0.157813
H54   H     H_    0.638600 0.437665 0.903168 0.157809
H55   H     H_    0.861397 0.937678 0.096811 0.157816
H56   H     H_    0.861294 0.565907 0.597372 0.167962
H57   H     H_    0.138600 0.937671 0.903183 0.157817
H58   H     H_    0.638707 0.065899 0.402647 0.167986
H59   H     H_    0.361295 0.065903 0.597355 0.167985
H60   H     H_    0.140810 0.434702 0.319812 0.170033
O1    O     O_R   0.066070 0.537300 0.433950 -0.628039
O2    O     O_R   0.566110 0.499970 0.986370 -0.624934
O3    O     O_R   0.933890 0.999970 0.013630 -0.624931
O4    O     O_R   0.066110 0.999970 0.986370 -0.624928
O5    O     O_R   0.500060 0.566050 0.052450 -0.605844
O6    O     O_R   0.499940 0.566050 0.947550 -0.605852
O7    O     O_R   0.000060 0.066050 0.052450 -0.605841
O8    O     O_R   0.999940 0.066050 0.947550 -0.605854
O9    O     O_R   0.066060 0.462690 0.433950 -0.616123
O10   O     O_R   0.933940 0.462690 0.566050 -0.615887
O11   O     O_R   0.566060 0.962690 0.433950 -0.616059
O12   O     O_R   0.933930 0.537300 0.566050 -0.628164
O13   O     O_R   0.433940 0.962690 0.566050 -0.616035
O14   O     O_R   0.999990 0.537300 0.593030 -0.618254
O15   O     O_R   0.000010 0.537300 0.406970 -0.618390
O16   O     O_R   0.499990 0.037300 0.593030 -0.618218
O17   O     O_R   0.500010 0.037300 0.406970 -0.618235
O18   O     O_R   0.999980 0.462680 0.593030 -0.573751
O19   O     O_R   0.000020 0.462680 0.406970 -0.573918
O20   O     O_R   0.499980 0.962680 0.593030 -0.573707
O21   O     O_R   0.500020 0.962680 0.406970 -0.573714
O22   O     O_R   0.962690 0.433950 0.037260 -0.622483
O23   O     O_R   0.566070 0.037300 0.433950 -0.628089
O24   O     O_R   0.037310 0.433950 0.962740 -0.622688
O25   O     O_R   0.462690 0.933950 0.037260 -0.622579
O26   O     O_R   0.537310 0.933950 0.962740 -0.622602
O27   O     O_R   0.962690 0.500030 0.944250 -0.590133
O28   O     O_R   0.037310 0.500030 0.055750 -0.590235
O29   O     O_R   0.462690 0.000030 0.944250 -0.590107
O30   O     O_R   0.537310 0.000030 0.055750 -0.590118
O31   O     O_R   0.037300 0.500060 0.869680 -0.619205
O32   O     O_R   0.962700 0.500060 0.130320 -0.619334
O33   O     O_R   0.537300 0.000060 0.869680 -0.619139
O34   O     O_R   0.433930 0.037300 0.566050 -0.628104
O35   O     O_R   0.462700 0.000060 0.130320 -0.619152
O36   O     O_R   0.962680 0.566120 0.037310 -0.587625
O37   O     O_R   0.037320 0.566120 0.962690 -0.587348
O38   O     O_R   0.462680 0.066120 0.037310 -0.587397
O39   O     O_R   0.537320 0.066120 0.962690 -0.587362
O40   O     O_R   0.499970 0.433870 0.052530 -0.623107
O41   O     O_R   0.500030 0.433870 0.947470 -0.623105
O42   O     O_R   0.999970 0.933870 0.052530 -0.623140
O43   O     O_R   0.000030 0.933870 0.947470 -0.623138
O44   O     O_R   0.433940 0.499980 0.118610 -0.585672
O45   O     O_R   0.566060 0.499980 0.881390 -0.585675
O46   O     O_R   0.933940 0.999980 0.118610 -0.585669
O47   O     O_R   0.066060 0.999980 0.881390 -0.585673
O48   O     O_R   0.433890 0.499970 0.013630 -0.624939
Zn1   Zn    Zn3+2 1.000000 0.549810 0.500000 1.014370
Zn2   Zn    Zn3+2 0.499980 0.499960 0.929910 1.044138
Zn3   Zn    Zn3+2 0.000020 0.999960 0.070090 1.044155
Zn4   Zn    Zn3+2 0.999980 0.999960 0.929910 1.044145
Zn5   Zn    Zn3+2 0.500000 0.049810 0.500000 1.014444
Zn6   Zn    Zn3+2 0.000000 0.450170 0.500000 1.079260
Zn7   Zn    Zn3+2 0.500000 0.950170 0.500000 1.079331
Zn8   Zn    Zn3+2 0.950180 0.500030 0.049790 1.078825
Zn9   Zn    Zn3+2 0.049820 0.500030 0.950210 1.078790
Zn10  Zn    Zn3+2 0.450180 0.000030 0.049790 1.078889
Zn11  Zn    Zn3+2 0.549820 0.000030 0.950210 1.078891
Zn12  Zn    Zn3+2 0.500020 0.499960 0.070090 1.044144

loop_
_geom_bond_atom_site_label_1
_geom_bond_atom_site_label_2
_ccdc_geom_bond_type
C99   C103  A    
C105  C110  A    
C133  C137  A    
O40   Zn12  S    
C119  O34   A    
C15   H20   S    
C78   H40   S    
C142  C146  A    
O4    Zn3   S    
O35   Zn10  S    
C80   C170  S    
C91   Cl4   S    
O11   Zn7   S    
C75   F8    S    
C77   C168  S    
C135  C139  A    
C56   H36   S    
O46   Zn3   S    
C37   C160  S    
C79   C99   A    
C154  C158  A    
C138  C143  A    
C160  O24   A    
C57   C178  S    
C18   H24   S    
C26   C92   S    
C100  C104  A    
C28   F14   S    
C62   C70   A    
C28   C94   S    
C89   C94   S    
C69   C166  S    
O6    Zn2   S    
O47   Zn4   S    
C108  O23   A    
C106  C133  A    
C49   C51   A    
C121  C147  A    
C65   C78   S    
C122  C148  A    
C110  C145  A    
O18   Zn6   S    
C136  C140  A    
C47   C53   A    
C53   F2    S    
C42   C44   A    
C41   C49   A    
C177  O2    A    
C65   C87   S    
C29   C69   S    
C116  C121  A    
C179  O47   A    
C180  O6    A    
C3    C8    A    
C97   O12   A    
C183  H15   S    
C181  O7    A    
C98   C102  A    
C17   C21   A    
C175  O42   A    
C23   C31   A    
C92   C130  S    
C95   C163  S    
C59   H38   S    
C157  H2    S    
C163  C172  S    
C142  H8    S    
C40   H32   S    
C156  H60   S    
C124  C133  A    
C63   C74   A    
C63   C71   A    
O10   Zn6   S    
C82   H43   S    
C27   C93   S    
C148  C153  A    
C184  H16   S    
C107  C143  A    
C96   Cl7   S    
C39   C47   A    
O2    Zn12  S    
C166  O35   A    
C84   C88   S    
C140  C145  A    
O16   Zn5   S    
C145  H11   S    
C146  H13   S    
C24   H57   S    
C126  C141  S    
C59   C63   A    
C83   H44   S    
C60   C64   A    
C168  O39   A    
O12   Zn1   S    
C27   C66   S    
C1    O9    A    
C43   C173  S    
C139  H6    S    
C45   C50   A    
C20   H26   S    
C109  C144  A    
C179  O4    A    
C81   C171  S    
C9    C184  A    
O28   Zn9   S    
C68   C98   A    
O8    Zn4   S    
C25   C36   A    
C79   Cl5   S    
C52   F20   S    
C103  C107  A    
C86   C163  S    
C94   C152  S    
C178  O3    A    
C25   C31   A    
C137  C142  A    
C2    C109  A    
O27   Zn8   S    
C135  C157  A    
C123  C132  A    
C17   H22   S    
O5    Zn12  S    
C16   H21   S    
O34   Zn5   S    
C149  H58   S    
C164  O32   A    
C66   C88   S    
C166  O30   A    
C13   C57   A    
C130  C169  S    
C175  O43   A    
C2    H54   S    
C69   C82   S    
C72   F5    S    
O38   Zn10  S    
C118  H23   S    
O19   Zn6   S    
C74   C77   A    
C62   C73   A    
C5    C184  A    
C136  C158  A    
C67   C165  S    
C55   F4    S    
C34   H29   S    
C46   C177  S    
C120  H34   S    
C161  O26   A    
C78   C83   S    
C53   C60   A    
C47   C50   A    
C39   H31   S    
C106  C111  A    
C40   C43   A    
C155  C159  A    
C138  H5    S    
C111  C146  A    
C45   C52   A    
C49   C55   A    
O48   Zn2   S    
C147  C151  A    
C117  C122  A    
O43   Zn4   S    
C132  C136  A    
C23   C34   A    
C73   F6    S    
C66   C164  S    
C42   C48   A    
C32   C37   A    
C85   H47   S    
C75   C77   A    
C86   H48   S    
C174  H53   S    
C113  C117  A    
C67   C81   S    
C150  C155  A    
O21   Zn7   S    
C122  C131  A    
C112  C116  A    
C93   H50   S    
C90   Cl6   S    
O15   Zn1   S    
C22   C30   A    
C18   C22   A    
O37   Zn9   S    
C116  H1    S    
C127  O20   A    
O9    Zn6   S    
C107  C174  A    
C66   C80   S    
C68   C179  S    
O1    Zn1   S    
C29   F15   S    
C36   H30   S    
C33   H28   S    
C35   C79   A    
C64   C75   A    
C168  O38   A    
C4    C183  A    
C91   C95   S    
C108  C154  S    
C58   H37   S    
C96   C101  A    
C81   C85   S    
C162  O27   A    
O13   Zn7   S    
C61   C70   A    
C58   C62   A    
C7    C10   A    
C83   C87   S    
O41   Zn2   S    
C80   C84   S    
C172  F19   S    
C3    H17   S    
C87   Cl1   S    
O26   Zn11  S    
C4    C180  S    
C86   C91   S    
C19   H25   S    
C6    C12   A    
C20   C25   A    
C64   C71   A    
O7    Zn3   S    
C102  C115  A    
C10   C31   A    
C38   C161  S    
C134  C156  A    
C11   C30   A    
C57   C96   A    
C60   H39   S    
O33   Zn11  S    
C97   C153  S    
C92   H49   S    
O20   Zn7   S    
O17   Zn5   S    
C119  O13   A    
O39   Zn11  S    
C94   H51   S    
C87   C92   S    
C101  C114  A    
C89   Cl3   S    
C128  O21   A    
C112  F9    S    
O32   Zn8   S    
C5    C181  S    
O30   Zn11  S    
C105  C132  A    
O22   Zn8   S    
C40   C45   A    
C82   C172  S    
C176  O48   A    
C80   H41   S    
C137  C159  A    
C14   C20   A    
C171  F18   S    
C85   C89   S    
C182  H14   S    
C82   C86   S    
O44   Zn12  S    
C33   C37   A    
C147  H45   S    
C149  C154  A    
C143  H9    S    
O36   Zn8   S    
C140  H7    S    
O23   Zn5   S    
O3    Zn4   S    
C151  C156  A    
C103  C129  A    
C27   C170  S    
C14   H19   S    
C108  O11   A    
C61   C72   A    
C95   H52   S    
C32   H27   S    
C8    C15   A    
C41   C44   A    
C177  O45   A    
C93   C141  S    
C15   C17   A    
C124  C150  A    
C125  O14   A    
C54   F3    S    
C41   H33   S    
C127  O16   A    
C121  C129  A    
C180  O5    A    
C3    C5    A    
C150  H59   S    
C6    C10   A    
C181  O8    A    
C12   H18   S    
C46   C90   A    
C21   C30   A    
C6    C183  A    
C148  H56   S    
C36   C38   A    
C85   C152  S    
C165  O33   A    
C84   C141  S    
C12   C19   A    
C141  C170  S    
C1    C151  S    
C118  C123  A    
C153  C157  A    
O14   Zn1   S    
C24   C68   A    
C129  C134  A    
O42   Zn3   S    
C74   F7    S    
C55   C58   A    
C56   C61   A    
C4    C182  A    
C26   F1    S    
C123  C149  A    
C19   C23   A    
C50   C71   A    
C161  O25   A    
C169  F16   S    
C2    C46   A    
C48   C54   A    
C167  O37   A    
C35   C176  S    
C84   H46   S    
C9    C16   A    
C131  C135  A    
C104  C109  A    
C67   C89   S    
O24   Zn9   S    
C76   C167  S    
C162  O31   A    
C125  C130  S    
C7    C14   A    
C26   C169  S    
C65   C162  S    
C51   C70   A    
C81   H42   S    
C1    O1    A    
C125  O18   A    
C26   C65   S    
C88   Cl2   S    
O25   Zn10  S    
C126  O15   A    
C173  O41   A    
C24   C111  A    
C13   H55   S    
C90   C100  A    
C48   C51   A    
C101  C105  A    
C21   C32   A    
C54   C56   A    
C42   H35   S    
C27   F12   S    
C28   C67   S    
O31   Zn9   S    
C83   C130  S    
C98   Cl8   S    
C29   C95   S    
C152  C171  S    
C39   C43   A    
C158  H3    S    
C113  F10   S    
C104  C131  A    
C78   C169  S    
C173  O40   A    
O29   Zn10  S    
C13   C110  A    
C52   C59   A    
C160  O22   A    
C127  C152  S    
C139  C144  A    
C28   C171  S    
C44   C175  S    
C167  O36   A    
C72   C76   A    
C9    C11   A    
C114  C118  A    
C128  O17   A    
C176  O44   A    
C115  F13   S    
C128  C163  S    
C22   C33   A    
C88   C93   S    
C119  C155  S    
C159  H4    S    
C7    C182  A    
C34   C38   A    
C35   C174  A    
C144  H10   S    
C100  C113  A    
C117  H12   S    
C134  C138  A    
C69   C91   S    
C97   O10   A    
C170  F17   S    
C8    C11   A    
C99   C112  A    
C73   C76   A    
C102  C106  A    
C29   C172  S    
C178  O46   A    
C164  O28   A    
C165  O29   A    
C126  O19   A    
C16   C18   A    
C115  C120  A    
C114  F11   S    
O45   Zn2   S    
C120  C124  A    
