data_mof_unit_58714.cif
_audit_creation_date              2012-12-10T17:47:03-0500
_audit_creation_method            fapswitch 2.2
_symmetry_space_group_name_H-M    P1
_symmetry_Int_Tables_number       1
_space_group_crystal_system       triclinic
_cell_length_a                    10.000527
_cell_length_b                    10.689988
_cell_length_c                    13.5551
_cell_angle_alpha                 93.31835
_cell_angle_beta                  83.10545
_cell_angle_gamma                 93.758594
_cell_volume                      1433.71091824

loop_
_atom_site_label
_atom_site_type_symbol
_atom_type_description
_atom_site_fract_x
_atom_site_fract_y
_atom_site_fract_z
_atom_type_partial_charge
Br1   Br    Br    0.798241 0.582491 0.762025 -0.433569
Br2   Br    Br    0.177719 0.322817 0.335246 -0.378825
Br3   Br    Br    0.668114 0.338588 0.942922 -0.281247
Br4   Br    Br    0.969163 0.055946 0.439390 -0.440651
Br5   Br    Br    0.848999 0.323650 0.335432 -0.305579
C1    C     C_R   0.505068 0.738958 0.491905 0.846976
C2    C     C_R   0.605752 0.943848 0.532052 -0.220977
C3    C     C_R   0.589121 0.069884 0.553501 -0.043377
C4    C     C_R   0.475841 0.499924 0.685424 0.915149
C5    C     C_R   0.481246 0.125447 0.518063 -0.115660
C6    C     C_R   0.853717 0.659852 0.637786 0.183857
C7    C     C_R   0.917978 0.777594 0.659726 -0.108644
C8    C     C_R   0.061595 0.785215 0.650444 -0.094515
C9    C     C_R   0.125419 0.671417 0.629602 -0.053986
C10   C     C_R   0.066632 0.582279 0.564107 -0.057794
C11   C     C_R   0.923235 0.579946 0.565694 0.061513
C12   C     C_1   0.457958 0.500787 0.789565 -0.032438
C13   C     C_R   0.933974 0.426388 0.433931 0.290673
C14   C     C_R   0.076725 0.425857 0.434287 0.257112
C15   C     C_R   0.494010 0.259920 0.506391 0.941994
C16   C     C_R   0.523801 0.497229 0.314530 0.909584
C17   C     C_1   0.539219 0.478737 0.210768 -0.098337
C18   C     C_2   0.541133 0.443779 0.019794 0.331490
C19   C     C_2   0.448192 0.503518 0.981693 -0.234475
C20   C     C_1   0.448302 0.502177 0.877677 0.156341
C21   C     C_1   0.545276 0.460582 0.123245 0.013232
C22   C     C_2   0.831899 0.876117 0.709732 0.496848
C23   C     C_R   0.320759 0.858028 0.381688 -0.276536
C24   C     C_2   0.146280 0.895873 0.682404 0.622122
C25   C     C_2   0.166997 0.621192 0.720038 0.538999
C26   C     C_2   0.103564 0.813770 0.313608 0.487100
C27   C     C_2   0.679941 0.138674 0.619524 0.517507
C28   C     C_R   0.192697 0.897204 0.372184 -0.050342
C29   C     C_R   0.152480 0.009353 0.423470 0.351592
C30   C     C_R   0.246366 0.086592 0.471359 -0.205123
C31   C     C_R   0.378701 0.049565 0.475642 0.010047
C32   C     C_R   0.406573 0.926837 0.443339 0.092243
C33   C     C_R   0.513142 0.872080 0.480642 -0.069430
H1    H     H_    0.377449 0.561007 0.028402 0.161322
H2    H     H_    0.685572 0.899638 0.561416 0.144993
H3    H     H_    0.351073 0.769992 0.344682 0.159384
H4    H     H_    0.209573 0.169095 0.512679 0.210001
H5    H     H_    0.724855 0.853713 0.729366 0.069658
H6    H     H_    0.243049 0.917149 0.639806 0.017913
H7    H     H_    0.143564 0.522990 0.735358 0.101052
H8    H     H_    0.132091 0.719253 0.290615 0.053955
H9    H     H_    0.784054 0.115708 0.615454 0.143371
N1    N     N_R   0.857120 0.501200 0.500900 -0.149701
N2    N     N_R   0.142720 0.501280 0.500940 -0.154952
O1    O     O_R   0.385310 0.683220 0.500000 -0.629481
O2    O     O_2   0.116962 0.955568 0.760575 -0.446866
O3    O     O_2   0.225723 0.688118 0.779270 -0.571057
O4    O     O_2   0.000028 0.849050 0.287958 -0.470200
O5    O     O_2   0.638079 0.219642 0.680612 -0.520812
O6    O     O_R   0.614640 0.683250 0.500010 -0.619248
O7    O     O_R   0.368830 0.499960 0.640340 -0.654282
O8    O     O_R   0.598160 0.499980 0.640350 -0.549508
O9    O     O_R   0.385360 0.316750 0.499990 -0.616695
O10   O     O_R   0.614690 0.316780 0.500000 -0.563476
O11   O     O_R   0.401840 0.500020 0.359650 -0.590984
O12   O     O_R   0.631170 0.500040 0.359660 -0.571546
O13   O     O_2   0.876304 0.982603 0.728171 -0.505440
Zn1   Zn    Zn3+2 0.346870 0.499980 0.499990 0.977142
Zn2   Zn    Zn3+2 0.653130 0.500020 0.500010 1.052582

loop_
_geom_bond_atom_site_label_1
_geom_bond_atom_site_label_2
_ccdc_geom_bond_type
O12   Zn2   S    
C18   C19   D    
C26   C28   S    
C32   C33   A    
N2    Zn1   S    
C22   O13   D    
C6    C11   A    
C14   N2    A    
C25   H7    S    
C16   O12   A    
C30   C31   A    
Br1   C6    S    
C1    O6    A    
C2    H2    S    
C12   C20   T    
O6    Zn2   S    
C11   N1    A    
C1    C33   S    
C28   C29   A    
O7    Zn1   S    
C2    C3    A    
C4    O7    A    
C8    C9    A    
C1    O1    A    
C15   O10   A    
O1    Zn1   S    
O10   Zn2   S    
C23   C32   A    
C9    C25   S    
O11   Zn1   S    
C27   O5    D    
C31   C32   A    
C2    C33   A    
C23   C28   A    
C29   C30   A    
C4    O8    A    
C10   N2    A    
C24   H6    S    
C24   O2    D    
C27   H9    S    
Br4   C29   S    
N1    Zn2   S    
C8    C24   S    
C7    C22   S    
C15   O9    A    
C10   C11   A    
C3    C27   S    
C22   H5    S    
C23   H3    S    
C19   H1    S    
C19   C20   S    
C16   O11   A    
C3    C5    A    
C13   C14   A    
C17   C21   T    
C18   C21   S    
C4    C12   S    
O9    Zn1   S    
C30   H4    S    
C25   O3    D    
C9    C10   A    
C5    C31   A    
Br5   C13   S    
C7    C8    A    
Br2   C14   S    
C16   C17   S    
Br3   C18   S    
C26   O4    D    
C6    C7    A    
C5    C15   S    
O8    Zn2   S    
C26   H8    S    
C13   N1    A    
