data_mof_unit_66752.cif
_audit_creation_date              2013-03-05T15:40:47-0500
_audit_creation_method            fapswitch 2.2
_symmetry_space_group_name_H-M    P1
_symmetry_Int_Tables_number       1
_space_group_crystal_system       triclinic
_cell_length_a                    8.37097
_cell_length_b                    12.875367
_cell_length_c                    15.029169
_cell_angle_alpha                 95.019848
_cell_angle_beta                  99.403461
_cell_angle_gamma                 98.165876
_cell_volume                      1571.66614362

loop_
_atom_site_label
_atom_site_type_symbol
_atom_site_description
_atom_site_fract_x
_atom_site_fract_y
_atom_site_fract_z
_atom_type_partial_charge
P1    P     P_3+3 0.998660 0.747790 0.570900 0.459980
O1    O     O_2   0.168170 0.764170 0.543850 -0.329975
O2    O     O_3   0.898670 0.629780 0.545890 -0.393354
O3    O     O_3   0.365980 0.695510 0.380810 -0.383849
O4    O     O_2   0.298961 0.880528 0.439460 -0.326454
O5    O     O_3   0.026712 0.785266 0.687960 -0.657867
O6    O     O_3   0.331906 0.856046 0.271453 -0.429380
H1    H     H_    0.383128 0.711575 0.218280 0.044144
C1    C     C_3   0.314584 0.807898 0.113263 -0.497092
H2    H     H_    0.198927 0.750676 0.096934 0.189134
H3    H     H_    0.283818 0.888577 0.109904 0.296266
P2    P     P_3+3 0.306970 0.411860 0.294270 0.535247
P3    P     P_3+3 0.887859 0.637031 0.217963 0.553019
O7    O     O_2   0.136040 0.444100 0.280280 -0.267565
O8    O     O_3   0.934510 0.640480 0.335500 -0.312509
O9    O     O_2   0.012298 0.574587 0.180860 -0.323618
O10   O     O_3   0.241229 0.275222 0.272656 -0.499425
O11   O     O_3   0.951804 0.766700 0.195735 -0.498099
C2    C     C_3   0.832591 0.800208 0.132163 0.430539
H4    H     H_    0.834971 0.885377 0.151240 0.181665
H5    H     H_    0.706910 0.761567 0.132902 -0.051503
C3    C     C_3   0.872319 0.788225 0.036583 -0.882840
H6    H     H_    0.988650 0.840589 0.034321 0.283135
H7    H     H_    0.883382 0.705073 0.014844 0.244906
C4    C     C_3   0.730665 0.247115 0.239689 0.360064
C5    C     C_3   0.741507 0.172406 0.155466 0.027241
H8    H     H_    0.697812 0.208390 0.093634 0.191079
H9    H     H_    0.870964 0.161276 0.155766 0.168672
Ba1   Ba    Ba6+2 0.153570 0.551840 0.456200 1.660633
C6    C     C_3   0.156157 0.749151 0.740235 0.388974
H10   H     H_    0.218185 0.697000 0.699590 0.095993
C7    C     C_3   0.277479 0.846155 0.787458 -0.684419
H11   H     H_    0.321212 0.894805 0.736626 0.255936
H12   H     H_    0.383823 0.822015 0.829725 0.255212
H13   H     H_    0.217604 0.896107 0.831761 0.244414
C8    C     C_3   0.219744 0.231926 0.353042 0.210319
H14   H     H_    0.132840 0.271859 0.386089 0.082357
H15   H     H_    0.338005 0.241355 0.400858 0.103088
C9    C     C_3   0.152442 0.113625 0.330498 -0.125292
H16   H     H_    0.017735 0.101437 0.309336 0.152206
H17   H     H_    0.180112 0.071922 0.391179 0.092501
P4    P     P_3+3 0.811620 0.252200 0.429030 0.492148
O12   O     O_2   0.642110 0.235770 0.456130 -0.402746
O13   O     O_3   0.911620 0.370210 0.454030 -0.342971
O14   O     O_3   0.444310 0.304480 0.619110 -0.354759
O15   O     O_3   0.794590 0.198230 0.314792 -0.633512
P5    P     P_3+3 0.931990 0.378719 0.782097 0.484342
O16   O     O_3   0.400800 0.556680 0.607590 -0.355866
O17   O     O_3   0.875770 0.359510 0.664420 -0.400176
O18   O     O_2   0.792249 0.420550 0.823360 -0.330909
O19   O     O_3   0.934791 0.252939 0.815820 -0.510092
Ba2   Ba    Ba6+2 0.656590 0.448150 0.543720 1.646418
P6    P     P_3+3 0.411244 0.831922 0.381035 0.565720
C10   C     C_3   0.400925 0.796931 0.208996 0.321508
H18   H     H_    0.534033 0.826734 0.217892 0.057308
O20   O     O_3   0.409490 0.443300 0.392340 -0.427380
C11   C     C_3   0.699810 0.768102 0.721104 0.360811
H19   H     H_    0.786012 0.739500 0.774590 0.057823
H20   H     H_    0.718128 0.742392 0.651263 0.108332
C12   C     C_3   0.732721 0.886311 0.739071 -0.223466
H21   H     H_    0.866676 0.912672 0.747370 0.130259
H22   H     H_    0.691017 0.908410 0.803682 0.128044
P7    P     P_3+3 0.504627 0.597014 0.718326 0.454511
O21   O     O_2   0.674250 0.555830 0.719690 -0.389768
O22   O     O_3   0.538241 0.733752 0.730458 -0.602777
H23   H     H_    0.773148 0.812946 0.987869 0.239458
C13   C     C_3   0.026440 0.197815 0.763070 0.352490
H24   H     H_    0.948021 0.164477 0.697391 0.134855
H25   H     H_    0.136156 0.248292 0.748779 0.107191
C14   C     C_3   0.084012 0.108614 0.813242 -0.800356
H26   H     H_    0.146871 0.059776 0.769967 0.211256
H27   H     H_    0.167636 0.140666 0.877408 0.312457
H28   H     H_    0.979735 0.058617 0.832360 0.247152
P8    P     P_3+3 0.390426 0.166175 0.615376 0.497024
C15   C     C_3   0.549026 0.184645 0.786273 0.665797
O23   O     O_2   0.493083 0.114738 0.552579 -0.324731
O24   O     O_3   0.438029 0.114449 0.719715 -0.618081
H29   H     H_    0.640574 0.231766 0.754488 0.118107
H30   H     H_    0.548151 0.057793 0.874260 0.153217
C16   C     C_3   0.638171 0.117136 0.851479 -0.128807
H31   H     H_    0.712593 0.076054 0.811299 0.115393
C17   C     C_R   0.071619 0.185453 0.539052 -0.583859
C18   C     C_R   0.731075 0.816039 0.463553 -0.429480
C19   C     C_R   0.692164 0.994178 0.432709 -0.053850
C20   C     C_R   0.630782 0.885584 0.426843 0.206259
C21   C     C_R   0.890817 0.851177 0.510585 0.273372
C22   C     C_R   0.953085 0.963823 0.518837 -0.032698
C23   C     C_R   0.852254 0.036777 0.479501 -0.022516
C24   C     C_R   0.913268 0.150106 0.491675 0.307271
C25   C     C_R   0.173512 0.114979 0.569722 0.221894
C26   C     C_R   0.113418 0.006340 0.563873 -0.194827
H32   H     H_    0.611227 0.045014 0.403471 0.195603
H33   H     H_    0.195014 0.955723 0.593016 0.210753
H34   H     H_    0.120990 0.268744 0.546480 0.172857
H35   H     H_    0.680380 0.733292 0.459577 0.154809
C27   C     C_R   0.228049 0.494210 0.768344 -0.443121
C28   C     C_R   0.134105 0.452795 0.828179 0.225922
C29   C     C_R   0.201401 0.455130 0.920126 -0.127845
C30   C     C_R   0.365550 0.502920 0.954593 0.124622
C31   C     C_R   0.455165 0.551464 0.892442 -0.171741
C32   C     C_R   0.387425 0.544179 0.800287 0.324817
C33   C     C_R   0.607661 0.548948 0.085579 -0.240637
C34   C     C_R   0.671368 0.570848 0.178097 0.244109
C35   C     C_R   0.415603 0.480053 0.211496 0.254685
C36   C     C_R   0.348222 0.466813 0.118703 -0.164383
C37   C     C_R   0.440847 0.505224 0.053739 0.059220
C38   C     C_R   0.572534 0.539024 0.240950 -0.438062
H36   H     H_    0.690748 0.568685 0.040085 0.141835
H37   H     H_    0.123967 0.416744 0.962065 0.162211
H38   H     H_    0.224693 0.425136 0.099534 0.173325
H39   H     H_    0.577626 0.594473 0.912692 0.100771
H40   H     H_    0.621671 0.554368 0.312844 0.181089
H41   H     H_    0.176446 0.487523 0.696766 0.144937
N1    N     N_R   0.640200 0.070001 0.152488 0.268720
O25   O     O_R   0.506919 0.044422 0.092106 -0.283426
O26   O     O_R   0.673569 0.008908 0.215123 -0.437438
C39   C     C_2   0.083201 0.687702 0.808412 0.358482
H42   H     H_    0.986046 0.621753 0.783872 0.057541
O27   O     O_2   0.127081 0.710932 0.890092 -0.613039
N2    N     N_R   0.224145 0.066743 0.257973 0.320547
O28   O     O_R   0.133536 0.031157 0.179556 -0.337544
O29   O     O_R   0.380092 0.062692 0.270904 -0.347163
C40   C     C_2   0.417296 0.785595 0.043619 0.628852
H43   H     H_    0.450605 0.708642 0.033062 -0.036383
O30   O     O_2   0.463416 0.853575 0.997826 -0.545915
N3    N     N_R   0.648822 0.935408 0.664886 0.257530
O31   O     O_R   0.719733 0.024071 0.644331 -0.433947
O32   O     O_R   0.502451 0.895053 0.621992 -0.352737
N4    N     N_R   0.460385 0.254627 0.833795 0.217410
O33   O     O_R   0.420567 0.335886 0.795895 -0.437272
O34   O     O_R   0.435461 0.244339 0.916119 -0.376986
N5    N     N_R   0.750217 0.175233 0.930860 0.276421
O35   O     O_R   0.852706 0.124954 0.977660 -0.380950
O36   O     O_R   0.762247 0.276817 0.950634 -0.298685
C41   C     C_2   0.557835 0.257944 0.239626 0.604733
H44   H     H_    0.522761 0.273231 0.304163 0.041185
O37   O     O_2   0.460248 0.253339 0.168757 -0.531198
N6    N     N_R   0.823707 0.350680 0.236258 0.205401
O38   O     O_R   0.868000 0.375313 0.160638 -0.381616
O39   O     O_R   0.826698 0.425836 0.300031 -0.378567

loop_
_geom_bond_atom_site_label_1
_geom_bond_atom_site_label_2
_geom_bond_distance
_ccdc_geom_bond_type
C22   C23   1.450365 A    
P7    O22   1.731558 S    
N3    O31   1.296186 A    
C16   N5    1.463365 S    
C22   C26   1.410228 A    
P2    Ba1   3.425058 S    
C38   H40   1.081685 S    
C2    H4    1.105437 S    
P7    C32   1.815110 S    
N1    O25   1.299707 A    
C11   H19   1.113654 S    
C40   H43   1.072398 S    
P5    O17   1.740390 S    
C5    H8    1.106541 S    
C17   C24   1.390935 A    
P8    O23   1.544384 D    
P3    O11   1.757169 S    
O1    Ba1   2.906248 S    
C17   H34   1.082302 S    
O4    P6    1.544910 D    
C8    H14   1.104482 S    
C2    H5    1.100262 S    
C36   H38   1.076193 S    
P2    C35   1.865325 S    
C39   O27   1.220054 D    
C6    H10   1.106584 S    
O3    P6    1.742938 S    
O12   Ba2   2.906664 S    
C11   H20   1.114042 S    
C9    N2    1.454055 S    
C28   C29   1.400508 A    
C12   H22   1.111936 S    
O11   C2    1.406311 S    
P4    O15   1.770323 S    
O2    Ba1   2.947610 S    
C3    H23   1.115229 S    
C6    C39   1.502637 S    
N5    O35   1.300044 A    
P8    O24   1.765033 S    
P2    O10   1.752115 S    
C13   C14   1.519846 S    
C33   H36   1.073048 S    
C14   H26   1.108847 S    
O10   C8    1.401099 S    
P3    C34   1.867209 S    
C1    H2    1.108357 S    
O3    Ba1   2.820972 S    
O13   Ba2   2.948530 S    
C29   H37   1.076439 S    
C27   C32   1.384608 A    
P4    O13   1.608272 S    
C35   C36   1.402198 A    
N2    O29   1.297246 A    
O8    Ba1   2.797432 S    
P5    O18   1.549391 D    
C14   H27   1.103641 S    
Ba1   O16   2.804217 S    
C13   H24   1.106164 S    
C7    H13   1.110804 S    
C41   H44   1.068548 S    
C2    C3    1.526366 S    
C19   C20   1.409348 A    
C9    H17   1.107098 S    
Ba2   O21   2.847933 S    
H1    C10   1.112002 S    
C9    H16   1.105044 S    
C21   C22   1.457138 A    
C11   C12   1.499964 S    
P5    O19   1.740865 S    
O14   Ba2   2.820318 S    
C4    C5    1.544346 S    
P7    O21   1.582409 D    
O14   P8    1.767387 S    
P1    O2    1.608254 S    
C7    H12   1.104967 S    
C5    N1    1.455772 S    
C26   H33   1.077849 S    
C15   O24   1.407231 S    
C30   C31   1.422622 A    
O17   Ba2   2.798043 S    
C18   H35   1.082063 S    
C27   C28   1.381063 A    
C14   H28   1.101624 S    
P1    Ba1   3.452117 S    
O19   C13   1.405631 S    
C1    H3    1.108545 S    
P2    O20   1.567271 S    
N6    O39   1.295614 A    
C18   C20   1.399873 A    
P2    O7    1.532823 D    
P3    O8    1.740938 S    
Ba1   O13   2.862084 S    
C3    H7    1.112822 S    
C27   H41   1.082881 S    
P4    O12   1.530603 D    
O6    P6    1.743744 S    
O7    Ba1   2.847764 S    
N2    O28   1.299567 A    
C34   C38   1.404099 A    
N4    O33   1.292867 A    
C15   C16   1.538543 S    
P1    C21   1.921918 S    
C41   O37   1.223168 D    
C30   C37   1.516096 S    
C10   H18   1.107941 S    
N3    O32   1.299717 A    
O5    C6    1.391585 S    
C8    C9    1.534852 S    
C19   C23   1.416685 A    
C11   O22   1.395587 S    
C16   H31   1.092331 S    
O16   P7    1.744342 S    
C17   C25   1.388497 A    
N1    O26   1.299614 A    
O2    Ba2   2.862725 S    
Ba1   O20   2.958245 S    
C36   C37   1.421956 A    
C5    H9    1.112452 S    
P5    C28   1.815193 S    
P4    C24   1.900231 S    
C7    H11   1.104543 S    
P8    C25   1.837403 S    
C8    H15   1.108744 S    
C4    N6    1.455144 S    
C39   H42   1.081409 S    
C6    C7    1.531020 S    
C25   C26   1.407649 A    
P1    O1    1.530263 D    
C12   N3    1.459300 S    
C31   C32   1.397906 A    
C1    C40   1.492944 S    
C33   C37   1.416693 A    
C33   C34   1.394160 A    
C4    C41   1.472890 S    
C15   H29   1.105365 S    
C40   O30   1.218622 D    
N6    O38   1.302715 A    
H30   C16   1.111477 S    
C15   N4    1.457069 S    
O16   Ba2   2.957316 S    
C18   C21   1.398473 A    
C23   C24   1.460995 A    
C31   H39   1.075839 S    
N5    O36   1.301520 A    
C29   C30   1.416508 A    
P3    O9    1.546517 D    
P1    O5    1.751410 S    
C3    H6    1.110107 S    
C12   H21   1.107661 S    
P6    C20   1.863133 S    
C1    C10   1.528777 S    
C19   H32   1.076839 S    
O6    C10   1.404044 S    
C13   H25   1.109658 S    
C4    O15   1.406847 S    
C35   C38   1.402135 A    
Ba2   O20   2.803437 S    
P4    Ba2   3.452604 S    
N4    O34   1.302713 A    
Ba1   Ba2   4.619249 S    
