data_mof_unit_47655.cif
_audit_creation_date              2012-12-11T17:43:57-0500
_audit_creation_method            fapswitch 2.2
_symmetry_space_group_name_H-M    P1
_symmetry_Int_Tables_number       1
_space_group_crystal_system       triclinic
_cell_length_a                    20.418228
_cell_length_b                    22.861143
_cell_length_c                    6.922706
_cell_angle_alpha                 89.84913
_cell_angle_beta                  86.764167
_cell_angle_gamma                 90.029472
_cell_volume                      3226.24473912

loop_
_atom_site_label
_atom_site_type_symbol
_atom_type_description
_atom_site_fract_x
_atom_site_fract_y
_atom_site_fract_z
_atom_type_partial_charge
O1    O     O_R   0.751270 0.447300 0.600030 -0.503806
O2    O     O_R   0.248730 0.947300 0.399970 -0.528104
O3    O     O_R   0.613530 0.440160 0.952150 -0.566147
O4    O     O_R   0.386470 0.940160 0.047850 -0.558293
O5    O     O_R   0.613050 0.552700 0.122560 -0.504061
O6    O     O_R   0.386950 0.052700 0.877440 -0.496717
C1    C     C_R   0.592587 0.424764 0.786269 0.811929
C2    C     C_R   0.407236 0.924553 0.214105 0.844800
O7    O     O_R   0.750780 0.440350 0.929820 -0.524902
O8    O     O_R   0.249220 0.940350 0.070180 -0.540947
O9    O     O_R   0.751280 0.552900 0.100070 -0.500613
O10   O     O_R   0.248720 0.052900 0.899930 -0.504675
C3    C     C_R   0.775463 0.427567 0.758606 0.904188
C4    C     C_R   0.224803 0.927214 0.241807 0.915059
O11   O     O_R   0.613040 0.447100 0.622520 -0.526133
O12   O     O_R   0.386960 0.947100 0.377480 -0.525092
O13   O     O_3   0.682160 0.536920 0.777780 -0.339296
O14   O     O_3   0.317840 0.036920 0.222220 -0.331471
V1    V     V_3+5 0.682160 0.493150 0.052630 1.744353
V2    V     V_3+5 0.317840 0.993150 0.947370 1.679796
O15   O     O_R   0.750790 0.559840 0.429870 -0.548324
O16   O     O_R   0.249210 0.059840 0.570130 -0.551719
C5    C     C_R   0.774437 0.573534 0.258055 0.867867
C6    C     C_R   0.225736 0.073696 0.741647 0.801067
O17   O     O_R   0.613540 0.559650 0.452200 -0.533016
O18   O     O_R   0.386460 0.059650 0.547800 -0.529438
C7    C     C_R   0.595660 0.578230 0.285046 0.729762
C8    C     C_R   0.404425 0.078251 0.714439 0.736118
V3    V     V_3+5 0.682160 0.506850 0.552630 1.745755
V4    V     V_3+5 0.317840 0.006850 0.447370 1.690700
O19   O     O_3   0.682150 0.463080 0.277610 -0.370607
O20   O     O_3   0.317850 0.963080 0.722390 -0.398315
C9    C     C_R   0.566207 0.859495 0.042839 0.421585
C10   C     C_R   0.433919 0.359125 0.957894 0.421525
H1    H     H_    0.517490 0.941695 0.027646 0.184460
H2    H     H_    0.482489 0.441387 0.973534 0.184113
C11   C     C_R   0.462048 0.882415 0.211411 -0.212881
C12   C     C_R   0.537928 0.382571 0.789368 -0.212823
C13   C     C_R   0.490825 0.610689 0.434823 0.224302
C14   C     C_R   0.508895 0.111346 0.561845 0.258158
C15   C     C_R   0.469312 0.654767 0.564032 0.503757
C16   C     C_R   0.530513 0.155846 0.433350 0.514287
C17   C     C_R   0.489062 0.712629 0.527470 0.403326
C18   C     C_R   0.511220 0.213679 0.471544 0.387931
C19   C     C_R   0.515737 0.727741 0.341041 -0.122320
C20   C     C_R   0.484506 0.228176 0.658205 -0.093014
C21   C     C_R   0.551722 0.683356 0.235345 -0.149070
C22   C     C_R   0.448488 0.183478 0.763418 -0.129312
C23   C     C_R   0.513099 0.786197 0.263427 -0.064181
C24   C     C_R   0.487153 0.286409 0.736648 -0.063622
C25   C     C_R   0.566132 0.803621 0.132510 -0.146780
C26   C     C_R   0.434101 0.303470 0.867693 -0.152334
C27   C     C_R   0.615327 0.762511 0.085274 0.377457
C28   C     C_R   0.384924 0.262242 0.914252 0.375832
C29   C     C_R   0.598751 0.703353 0.091041 0.353469
C30   C     C_R   0.401528 0.203134 0.908023 0.345064
C31   C     C_R   0.458375 0.825718 0.297671 0.417021
C32   C     C_R   0.541779 0.326123 0.702714 0.413159
C33   C     C_R   0.516626 0.898676 0.094335 -0.240109
C34   C     C_R   0.483398 0.398504 0.906637 -0.234822
C35   C     C_R   0.542267 0.623250 0.294363 -0.173348
C36   C     C_R   0.457757 0.123505 0.703614 -0.165646
C37   C     C_R   0.166493 0.886556 0.257761 -0.345296
C38   C     C_R   0.834741 0.388143 0.742907 -0.388551
C39   C     C_R   0.161518 0.836691 0.133951 0.358930
C40   C     C_R   0.841380 0.338208 0.865954 0.352604
C41   C     C_R   0.105939 0.800266 0.152771 -0.255547
C42   C     C_R   0.896324 0.301314 0.838041 -0.200958
C43   C     C_R   0.055725 0.809512 0.295831 0.299802
C44   C     C_R   0.945448 0.311243 0.691089 0.200112
C45   C     C_R   0.060496 0.857150 0.420703 0.356834
C46   C     C_R   0.939786 0.361167 0.571935 0.335107
C47   C     C_R   0.112705 0.898260 0.394055 0.239309
C48   C     C_R   0.887533 0.401103 0.605082 0.397992
C49   C     C_R   0.895412 0.690565 0.406447 0.442991
C50   C     C_R   0.106695 0.191134 0.586411 0.458676
C51   C     C_R   0.840376 0.653579 0.400921 -0.263687
C52   C     C_R   0.161164 0.153800 0.595476 -0.248138
C53   C     C_R   0.943974 0.689490 0.250035 0.254928
C54   C     C_R   0.057615 0.191047 0.741427 0.264442
N1    N     N_2   0.997457 0.774188 0.311828 -0.085366
N2    N     N_2   0.003856 0.275795 0.672428 -0.138711
N3    N     N_2   0.002513 0.724547 0.237268 -0.221321
N4    N     N_2   0.999333 0.226547 0.751431 -0.204349
C55   C     C_R   0.831847 0.614601 0.247263 -0.086900
C56   C     C_R   0.168795 0.115152 0.750858 -0.068179
H3    H     H_    0.803473 0.654930 0.518994 0.190157
H4    H     H_    0.198483 0.154649 0.478579 0.190235
C57   C     C_R   0.881099 0.611898 0.096975 0.387748
C58   C     C_R   0.119282 0.113367 0.900514 0.415767
C59   C     C_R   0.936403 0.649039 0.100860 -0.288958
C60   C     C_R   0.064374 0.150927 0.893138 -0.253972
H5    H     H_    0.101220 0.764537 0.052267 0.232242
H6    H     H_    0.901771 0.264819 0.935432 0.230545
H7    H     H_    0.974285 0.646652 0.985104 0.207227
H8    H     H_    0.026196 0.149165 0.008202 0.206952
S1    S     S_3+6 0.901868 0.733741 0.617011 0.112719
O21   O     O_2   0.970353 0.730239 0.685388 -0.315046
O22   O     O_2   0.885805 0.796177 0.570469 -0.208274
O23   O     O_3   0.848828 0.710114 0.794800 -0.490731
H9    H     H_    0.856307 0.735937 0.906110 0.406853
S2    S     S_3+6 0.102109 0.233322 0.373043 0.072051
O24   O     O_2   0.033786 0.230890 0.303126 -0.343481
O25   O     O_2   0.120440 0.295414 0.416053 -0.246690
O26   O     O_3   0.154769 0.207703 0.198112 -0.487710
H10   H     H_    0.148118 0.233031 0.084588 0.406458
O27   O     O_3   0.011570 0.863241 0.565182 -0.526490
H11   H     H_    0.030190 0.882865 0.677005 0.373279
O28   O     O_3   0.985374 0.373133 0.422148 -0.537539
H12   H     H_    0.009356 0.337073 0.385922 0.392036
S3    S     S_3+6 0.102250 0.967816 0.508912 0.047378
O29   O     O_2   0.140616 0.015030 0.402627 -0.348125
O30   O     O_2   0.031043 0.984751 0.514103 -0.249824
O31   O     O_3   0.125072 0.963559 0.738037 -0.481247
H13   H     H_    0.173492 0.961476 0.727151 0.347358
S4    S     S_3+6 0.894117 0.469786 0.482028 0.066605
O32   O     O_2   0.864616 0.464690 0.288978 -0.307636
O33   O     O_2   0.859551 0.516968 0.598110 -0.368150
O34   O     O_3   0.973321 0.489355 0.446042 -0.426207
H14   H     H_    0.972390 0.526976 0.374842 0.370791
O35   O     O_3   0.875727 0.571528 0.951223 -0.583334
H15   H     H_    0.915153 0.574357 0.861249 0.346504
O36   O     O_3   0.124205 0.073790 0.049583 -0.580032
H16   H     H_    0.085196 0.077842 0.140551 0.357166
S5    S     S_3+6 0.219278 0.818562 0.940670 0.103843
O37   O     O_2   0.213607 0.754813 0.891490 -0.235812
O38   O     O_2   0.203464 0.853701 0.765697 -0.370576
O39   O     O_3   0.297167 0.831388 0.993384 -0.435337
H17   H     H_    0.315037 0.857999 0.890790 0.388601
S6    S     S_3+6 0.786182 0.320977 0.067458 0.111674
O40   O     O_2   0.804337 0.263658 0.156907 -0.267668
O41   O     O_2   0.790219 0.367598 0.218724 -0.319424
O42   O     O_3   0.708488 0.315431 0.002384 -0.421274
H18   H     H_    0.684818 0.348798 0.064317 0.379972
S7    S     S_3+6 0.699155 0.779980 0.106364 0.173625
O43   O     O_2   0.733890 0.784851 0.909984 -0.193109
O44   O     O_2   0.706101 0.836435 0.214128 -0.239643
O45   O     O_3   0.734710 0.726284 0.228989 -0.502090
H19   H     H_    0.710829 0.725600 0.357584 0.350144
S8    S     S_3+6 0.301152 0.279784 0.893163 0.174231
O46   O     O_2   0.266530 0.284539 0.089609 -0.190344
O47   O     O_2   0.294324 0.336348 0.784986 -0.239117
O48   O     O_3   0.265449 0.226234 0.771060 -0.502956
H20   H     H_    0.289328 0.225631 0.642468 0.350502
S9    S     S_3+6 0.617360 0.879435 0.835750 0.144725
O49   O     O_2   0.633498 0.827102 0.711652 -0.246809
O50   O     O_2   0.582727 0.923170 0.714999 -0.326469
O51   O     O_3   0.687171 0.910079 0.904153 -0.370968
H21   H     H_    0.672840 0.944338 0.982991 0.378647
S10   S     S_3+6 0.382747 0.378544 0.165115 0.146553
O52   O     O_2   0.366722 0.325942 0.289044 -0.246870
O53   O     O_2   0.417309 0.422129 0.286011 -0.326207
O54   O     O_3   0.312876 0.409161 0.096875 -0.368564
H22   H     H_    0.327142 0.443593 0.018111 0.383420
S11   S     S_3+6 0.382561 0.802742 0.419827 0.083968
O55   O     O_2   0.368925 0.739587 0.377642 -0.292115
O56   O     O_2   0.386383 0.811147 0.633570 -0.294366
O57   O     O_3   0.317795 0.841234 0.355658 -0.502429
H23   H     H_    0.279578 0.822283 0.424721 0.392826
S12   S     S_3+6 0.617838 0.303863 0.580786 0.090495
O58   O     O_2   0.631142 0.240292 0.618132 -0.262881
O59   O     O_2   0.615036 0.314509 0.367452 -0.297706
O60   O     O_3   0.682311 0.341499 0.651436 -0.515564
H24   H     H_    0.720596 0.324209 0.578038 0.391074
O61   O     O_3   0.469133 0.554097 0.468500 -0.559969
H25   H     H_    0.482785 0.529701 0.355052 0.324067
O62   O     O_3   0.530451 0.054846 0.527030 -0.562937
H26   H     H_    0.517007 0.030116 0.640314 0.324394
O63   O     O_3   0.488141 0.751577 0.679380 -0.549130
H27   H     H_    0.514031 0.786693 0.639664 0.342738
O64   O     O_3   0.513402 0.253483 0.321218 -0.554347
H28   H     H_    0.487376 0.288438 0.360845 0.340583
S13   S     S_3+6 0.419298 0.636845 0.774164 0.212018
O65   O     O_2   0.349233 0.633559 0.719407 -0.220572
O66   O     O_2   0.439118 0.578364 0.851880 -0.296559
O67   O     O_3   0.425254 0.687458 0.948243 -0.428361
H29   H     H_    0.405020 0.669079 0.066809 0.393374
S14   S     S_3+6 0.580758 0.138717 0.222977 0.201390
O68   O     O_2   0.563447 0.079375 0.147717 -0.289350
O69   O     O_2   0.573196 0.183341 0.065890 -0.257142
O70   O     O_3   0.659288 0.138087 0.283886 -0.414534
H30   H     H_    0.685277 0.130844 0.161115 0.405767
S15   S     S_3+6 0.624793 0.664630 0.881421 0.036349
O71   O     O_2   0.579272 0.615096 0.841910 -0.318390
O72   O     O_2   0.626505 0.705291 0.710224 -0.349770
O73   O     O_3   0.701385 0.641246 0.911422 -0.485764
H31   H     H_    0.727509 0.653662 0.793730 0.374639
S16   S     S_3+6 0.375800 0.164125 0.117888 0.041432
O74   O     O_2   0.421267 0.114482 0.156921 -0.316108
O75   O     O_2   0.374373 0.204530 0.289002 -0.352024
O76   O     O_3   0.299091 0.141016 0.088298 -0.479349
H32   H     H_    0.273893 0.150800 0.210096 0.375304

loop_
_geom_bond_atom_site_label_1
_geom_bond_atom_site_label_2
_ccdc_geom_bond_type
S7    O45   S    
C40   C42   A    
O64   H28   S    
C37   C39   A    
C54   C60   A    
O61   H25   S    
C45   O27   S    
S11   O56   D    
O13   V3    S    
C58   O36   S    
O60   H24   S    
C27   S7    S    
S8    O48   S    
C60   H8    S    
C54   N4    S    
V1    O19   S    
O39   H17   S    
S1    O23   S    
O31   H13   S    
C17   O63   S    
C14   C36   A    
O36   H16   S    
C13   C15   A    
O70   H30   S    
C28   S8    S    
C31   S11   S    
O9    V1    S    
S16   O76   S    
H1    C33   S    
C50   C52   A    
O3    C1    A    
S15   O72   D    
S9    O49   D    
O12   V4    S    
O48   H20   S    
S1    O21   D    
C49   S1    S    
C23   C31   A    
S4    O32   D    
S2    O26   S    
S16   O75   D    
O63   H27   S    
C43   C45   A    
O7    C3    A    
C14   O62   S    
C7    C35   S    
S9    O50   D    
O5    C7    A    
C58   C60   A    
O7    V1    S    
O6    C8    A    
C30   S16   S    
O8    V2    S    
C23   C25   A    
S10   O54   S    
S5    O39   S    
C24   C26   A    
O27   H11   S    
O3    V1    S    
O14   V4    S    
C57   C59   A    
C53   C59   A    
O4    C2    A    
C52   C56   A    
C19   C21   A    
C9    C33   A    
C51   C55   A    
C2    O12   A    
C12   C32   A    
S11   O57   S    
C10   C34   A    
C15   C17   A    
C16   C18   A    
O2    C4    A    
N1    N3    D    
C18   C20   A    
C20   C24   A    
O11   V3    S    
C28   C30   A    
C27   C29   A    
C10   S10   S    
C13   C35   A    
C20   C22   A    
O76   H32   S    
C24   C32   A    
S12   O60   S    
S14   O68   D    
S7    O43   D    
C47   S3    S    
S8    O46   D    
C46   C48   A    
C56   C58   A    
S15   O73   S    
O62   H26   S    
C45   C47   A    
C55   C57   A    
C1    O11   A    
C37   C47   A    
C39   C41   A    
S13   O65   D    
O15   V3    S    
C42   H6    S    
C6    C56   S    
S16   O74   D    
C41   C43   A    
C38   C40   A    
C13   O61   S    
S6    O41   D    
S15   O71   D    
S5    O38   D    
O42   H18   S    
C17   C19   A    
C22   C36   A    
C19   C23   A    
C48   S4    S    
O10   V2    S    
O1    V3    S    
C26   C28   A    
S3    O30   D    
O51   H21   S    
S2    O25   D    
C49   C51   A    
O35   H15   S    
C11   C33   A    
S13   O66   D    
C9    S9    S    
C12   C34   A    
O67   H29   S    
S12   O59   D    
O18   V4    S    
N2    N4    D    
O15   C5    A    
O8    C4    A    
O57   H23   S    
S7    O44   D    
S10   O53   D    
S6    O42   S    
C9    C25   A    
C2    C11   S    
S9    O51   S    
C21   C29   A    
V2    O20   S    
S13   O67   S    
C52   H4    S    
C22   C30   A    
C15   S13   S    
C46   O28   S    
S1    O22   D    
O16   V4    S    
S3    O29   D    
C10   C26   A    
C50   C54   A    
S8    O47   D    
C14   C16   A    
H2    C34   S    
C21   C35   A    
O14   V2    S    
S14   O69   D    
O34   H14   S    
C38   C48   A    
O5    V1    S    
O4    V2    S    
O17   C7    A    
O6    V2    S    
O26   H10   S    
O10   C6    A    
O18   C8    A    
S4    O34   S    
O2    V4    S    
S12   O58   D    
S6    O40   D    
O54   H22   S    
C18   O64   S    
V3    O19   S    
C32   S12   S    
O28   H12   S    
V4    O20   S    
O17   V3    S    
S5    O37   D    
C3    C38   S    
C57   O35   S    
C16   S14   S    
C4    C37   S    
O9    C5    A    
O23   H9    S    
O13   V1    S    
C1    C12   S    
S4    O33   D    
S3    O31   S    
O16   C6    A    
S2    O24   D    
C44   N2    S    
S14   O70   S    
C43   N1    S    
O45   H19   S    
C59   H7    S    
C53   N3    S    
O1    C3    A    
C51   H3    S    
C42   C44   A    
C5    C55   S    
S11   O55   D    
C41   H5    S    
C29   S15   S    
S10   O52   D    
C44   C46   A    
C50   S2    S    
C25   C27   A    
O73   H31   S    
C49   C53   A    
C11   C31   A    
C39   S5    S    
C40   S6    S    
C8    C36   S    
