data_mof_unit_10018.cif
_audit_creation_date              2012-12-11T14:56:45-0500
_audit_creation_method            fapswitch 2.2
_symmetry_space_group_name_H-M    P1
_symmetry_Int_Tables_number       1
_space_group_crystal_system       triclinic
_cell_length_a                    10.523999
_cell_length_b                    10.676123
_cell_length_c                    17.062028
_cell_angle_alpha                 80.258452
_cell_angle_beta                  89.902903
_cell_angle_gamma                 119.277111
_cell_volume                      1640.06284628

loop_
_atom_site_label
_atom_site_type_symbol
_atom_type_description
_atom_site_fract_x
_atom_site_fract_y
_atom_site_fract_z
_atom_type_partial_charge
C1    C     C_R   0.278606 0.888520 0.132793 0.558734
C2    C     C_1   0.684523 0.401921 0.709917 -0.048590
C3    C     C_R   0.624343 0.712828 0.805030 -0.137924
C4    C     C_R   0.633822 0.271379 0.090071 0.537761
C5    C     C_R   0.610356 0.697753 0.726681 -0.137627
C6    C     C_R   0.670005 0.822262 0.665511 0.031403
C7    C     C_R   0.749760 0.962250 0.683004 -0.142980
C8    C     C_R   0.760081 0.977721 0.762075 -0.140171
C9    C     C_R   0.691165 0.852693 0.823109 0.022225
C10   C     C_R   0.082422 0.883115 0.790328 -0.135118
C11   C     C_R   0.066129 0.879831 0.710766 -0.124522
C12   C     C_R   0.710472 0.257008 0.301609 -0.128500
C13   C     C_R   0.114052 0.801866 0.672150 0.031755
C14   C     C_R   0.165465 0.715696 0.715356 -0.137403
C15   C     C_R   0.183405 0.720170 0.795377 -0.123835
C16   C     C_R   0.643569 0.855755 0.124247 0.541123
C17   C     C_R   0.149589 0.810967 0.831493 0.026572
C18   C     C_R   0.711338 0.772430 0.353567 0.562514
C19   C     C_R   0.681913 0.385636 0.399019 0.551857
C20   C     C_R   0.108254 0.812555 0.359939 0.551001
C21   C     C_R   0.677562 0.800172 0.585477 0.542872
C22   C     C_R   0.717376 0.446166 0.625993 0.561670
C23   C     C_R   0.712193 0.245326 0.222724 -0.125314
C24   C     C_R   0.089812 0.798553 0.589496 0.543875
C25   C     C_R   0.216105 0.857944 0.902517 0.559185
C26   C     C_R   0.640261 0.290738 0.861906 0.552847
C27   C     C_R   0.647885 0.866765 0.899687 0.546740
C28   C     C_R   0.554232 0.351722 0.198146 -0.136379
C29   C     C_R   0.554230 0.365562 0.277405 -0.130784
C30   C     C_R   0.638529 0.324654 0.328095 0.027005
C31   C     C_R   0.638867 0.297841 0.170083 0.032013
C32   C     C_1   0.685227 0.831685 0.201727 -0.042967
C33   C     C_1   0.703541 0.807249 0.270471 -0.044074
C34   C     C_1   0.227479 0.853884 0.215543 -0.031192
C35   C     C_1   0.178882 0.834594 0.283125 -0.031828
C36   C     C_1   0.661738 0.357891 0.780480 -0.046958
Cr1   Cr    Cr6+3 0.402240 0.783890 0.019450 1.025831
Cr2   Cr    Cr6+3 0.382360 0.097900 0.991800 1.024201
Cr3   Cr    Cr6+3 0.715380 0.118170 0.988700 1.021688
Cr4   Cr    Cr6+3 0.936650 0.882420 0.465510 1.019706
Cr5   Cr    Cr6+3 0.605770 0.565620 0.493360 1.021262
Cr6   Cr    Cr6+3 0.921340 0.550490 0.496380 1.021085
H1    H     H_    0.492139 0.386374 0.158526 0.132122
H2    H     H_    0.812111 0.086956 0.775163 0.146692
H3    H     H_    0.052583 0.950655 0.817866 0.134670
H4    H     H_    0.572232 0.615362 0.851603 0.131007
H5    H     H_    0.017557 0.940262 0.679241 0.149005
H6    H     H_    0.196445 0.650090 0.686736 0.129859
H7    H     H_    0.234209 0.661966 0.826855 0.143478
H8    H     H_    0.497315 0.417810 0.297188 0.143131
H9    H     H_    0.773706 0.222527 0.340404 0.143206
H10   H     H_    0.771026 0.194762 0.203047 0.147315
H11   H     H_    0.554959 0.588225 0.714011 0.135031
H12   H     H_    0.802153 0.058517 0.635750 0.134989
O1    O     O_R   0.521780 0.757110 0.108900 -0.517350
O2    O     O_R   0.805020 0.410040 0.421340 -0.512485
O3    O     O_R   0.049240 0.685450 0.403290 -0.491144
O4    O     O_R   0.275160 0.783810 0.101120 -0.487210
O5    O     O_R   0.077520 0.903010 0.551800 -0.518390
O6    O     O_R   0.802980 0.872780 0.546830 -0.506953
O7    O     O_R   0.578090 0.681300 0.569920 -0.521655
O8    O     O_R   0.608530 0.436370 0.586530 -0.492911
O9    O     O_R   0.798770 0.401880 0.597100 -0.506739
O10   O     O_R   0.043450 0.677890 0.566230 -0.516515
O11   O     O_3   0.821250 0.666180 0.485090 -0.295601
O12   O     O_R   0.513330 0.228330 0.898660 -0.495007
O13   O     O_R   0.237900 0.972600 0.090980 -0.505070
O14   O     O_R   0.511190 0.220540 0.061620 -0.518780
O15   O     O_R   0.736920 0.257720 0.063840 -0.518608
O16   O     O_R   0.710450 0.984050 0.081720 -0.502068
O17   O     O_R   0.524090 0.765520 0.933110 -0.520834
O18   O     O_R   0.277300 0.791600 0.938160 -0.500699
O19   O     O_R   0.240210 0.981010 0.915190 -0.512814
O20   O     O_R   0.739230 0.266130 0.888050 -0.508432
O21   O     O_R   0.712580 0.991850 0.918770 -0.503879
O22   O     O_3   0.499990 0.999980 0.999980 -0.267458
O23   O     O_R   0.083770 0.911170 0.376030 -0.507118
O24   O     O_R   0.808770 0.880340 0.383890 -0.491303
O25   O     O_R   0.584340 0.689460 0.394160 -0.504137
O26   O     O_R   0.614320 0.443940 0.423590 -0.516105

loop_
_geom_bond_atom_site_label_1
_geom_bond_atom_site_label_2
_ccdc_geom_bond_type
C19   O2    A    
Cr4   O6    S    
C11   H5    S    
Cr5   O7    S    
Cr5   O26   S    
C7    C8    A    
Cr2   O22   S    
C12   C23   A    
C20   O23   A    
C5    H11   S    
C28   C29   A    
C5    C6    A    
C10   C17   A    
C34   C35   T    
Cr3   O20   S    
Cr6   O2    S    
C22   O9    A    
C20   C35   S    
Cr2   O12   S    
C18   O25   A    
C2    C22   S    
Cr6   O11   S    
Cr3   O21   S    
C21   O7    A    
Cr1   O4    S    
C24   O10   A    
Cr4   O5    S    
C13   C14   A    
Cr5   O8    S    
C27   O21   A    
Cr6   O3    S    
C4    O15   A    
C1    C34   S    
C29   H8    S    
C26   O12   A    
C16   O16   A    
C21   O6    A    
C4    O14   A    
C8    C9    A    
Cr5   O11   S    
C6    C21   S    
C13   C24   S    
C23   C31   A    
C29   C30   A    
C3    C9    A    
C22   O8    A    
C18   O24   A    
C10   H3    S    
Cr3   O15   S    
C25   O18   A    
Cr3   O22   S    
C26   C36   S    
Cr1   O22   S    
Cr2   O14   S    
Cr4   O11   S    
Cr1   O17   S    
Cr4   O24   S    
Cr6   O10   S    
C12   H9    S    
C27   O17   A    
C9    C27   S    
C2    C36   T    
C15   C17   A    
C28   H1    S    
C12   C30   A    
C14   C15   A    
C28   C31   A    
C8    H2    S    
C3    C5    A    
Cr5   O25   S    
C14   H6    S    
C6    C7    A    
C1    O13   A    
C16   C32   S    
C3    H4    S    
C17   C25   S    
C32   C33   T    
C16   O1    A    
C1    O4    A    
C11   C13   A    
C23   H10   S    
C24   O5    A    
C26   O20   A    
Cr3   O16   S    
C25   O19   A    
C15   H7    S    
C19   O26   A    
C18   C33   S    
C4    C31   S    
C10   C11   A    
Cr1   O1    S    
Cr2   O13   S    
Cr1   O18   S    
Cr4   O23   S    
C7    H12   S    
C20   O3    A    
C19   C30   S    
Cr6   O9    S    
Cr2   O19   S    
