data_mof_unit_48561.cif
_audit_creation_date              2012-10-26T19:57:54-0400
_audit_creation_method            fapswitch 2.2
_symmetry_space_group_name_H-M    P1
_symmetry_Int_Tables_number       1
_space_group_crystal_system       triclinic
_cell_length_a                    7.462142
_cell_length_b                    8.68163
_cell_length_c                    12.939676
_cell_angle_alpha                 88.078197
_cell_angle_beta                  78.519927
_cell_angle_gamma                 102.695869
_cell_volume                      798.799699413

loop_
_atom_site_label
_atom_site_type_symbol
_atom_type_description
_atom_site_fract_x
_atom_site_fract_y
_atom_site_fract_z
_atom_type_partial_charge
C1    C     C_R   0.452830 0.199685 0.503270 0.538461
C2    C     C_R   0.688214 0.414105 0.124034 -0.001576
C3    C     C_R   0.568759 0.450146 0.862926 -0.122526
C4    C     C_R   0.431256 0.549897 0.137073 -0.122490
C5    C     C_R   0.564725 0.462283 0.969844 0.031990
C6    C     C_R   0.435299 0.537766 0.030153 0.032025
C7    C     C_2   0.426157 0.031906 0.504872 -0.155627
C8    C     C_2   0.573843 0.968094 0.495127 -0.155632
C9    C     C_2   0.821169 0.340877 0.167954 0.231978
C10   C     C_2   0.178771 0.659119 0.832074 0.231940
C11   C     C_R   0.547170 0.800315 0.496730 0.538468
C12   C     C_R   0.465722 0.503019 0.701269 0.545664
C13   C     C_R   0.534278 0.496993 0.298731 0.545624
C14   C     C_R   0.555304 0.488357 0.184959 0.002189
C15   C     C_R   0.444695 0.511669 0.815041 0.002223
C16   C     C_R   0.310729 0.599575 0.983067 -0.137173
C17   C     C_R   0.689292 0.400470 0.016933 -0.137174
C18   C     C_R   0.311783 0.585924 0.875969 -0.001576
Cu1   Cu    Cu3+1 0.686350 0.517570 0.488220 1.010639
Cu2   Cu    Cu3+1 0.313650 0.482430 0.511780 1.010670
H1    H     H_    0.330789 0.607533 0.183444 0.146559
H2    H     H_    0.176343 0.781661 0.844747 0.092466
H3    H     H_    0.669226 0.392509 0.816556 0.146559
H4    H     H_    0.211446 0.657729 0.030016 0.125786
H5    H     H_    0.788575 0.342313 0.969986 0.125798
H6    H     H_    0.933453 0.375987 0.583470 0.242346
H7    H     H_    0.066547 0.624013 0.416529 0.242340
H8    H     H_    0.283693 0.960516 0.514090 0.139986
H9    H     H_    0.716307 0.039483 0.485909 0.139979
H10   H     H_    0.823382 0.218276 0.155420 0.092476
N1    N     N_2   0.033570 0.455950 0.529530 -0.232418
N2    N     N_2   0.966430 0.544050 0.470470 -0.232434
O1    O     O_R   0.621060 0.286250 0.492350 -0.505916
O2    O     O_2   0.061225 0.580913 0.789542 -0.491964
O3    O     O_R   0.378940 0.713750 0.507650 -0.505897
O4    O     O_R   0.306310 0.256580 0.512240 -0.503303
O5    O     O_R   0.693690 0.743420 0.487760 -0.503302
O6    O     O_R   0.631800 0.512400 0.642670 -0.509460
O7    O     O_R   0.368200 0.487600 0.357330 -0.509454
O8    O     O_R   0.317060 0.482730 0.662570 -0.448083
O9    O     O_R   0.682940 0.517270 0.337430 -0.448149
O10   O     O_2   0.938860 0.419100 0.210378 -0.492013

loop_
_geom_bond_atom_site_label_1
_geom_bond_atom_site_label_2
_ccdc_geom_bond_type
C12   O8    A    
C15   C18   A    
Cu1   O6    S    
C16   H4    S    
C3    H3    S    
N1    N2    D    
C12   C15   S    
C17   H5    S    
C13   O9    A    
C1    O1    A    
C7    C8    D    
C10   O2    D    
C13   C14   S    
C10   H2    S    
C2    C17   A    
C4    C14   A    
C4    H1    S    
C2    C9    S    
C9    O10   D    
C9    H10   S    
C10   C18   S    
C8    C11   S    
Cu2   O8    S    
Cu1   N2    S    
C4    C6    A    
C12   O6    A    
C5    C6    A    
C2    C14   A    
C13   O7    A    
C5    C17   A    
C8    H9    S    
C6    C16   A    
Cu2   O4    S    
Cu1   O9    S    
H6    N1    S    
C3    C15   A    
C16   C18   A    
Cu1   O1    S    
C11   O5    A    
Cu2   O7    S    
Cu1   O5    S    
H7    N2    S    
C1    C7    S    
Cu2   O3    S    
C11   O3    A    
C7    H8    S    
Cu1   Cu2   S    
C1    O4    A    
C3    C5    A    
Cu2   N1    S    
