data_mof_unit_26997.cif
_audit_creation_date              2012-10-26T21:02:57-0400
_audit_creation_method            fapswitch 2.2
_symmetry_space_group_name_H-M    P1
_symmetry_Int_Tables_number       1
_space_group_crystal_system       triclinic
_cell_length_a                    12.418022
_cell_length_b                    13.035697
_cell_length_c                    23.477548
_cell_angle_alpha                 76.003722
_cell_angle_beta                  101.152752
_cell_angle_gamma                 117.363037
_cell_volume                      3260.09747012

loop_
_atom_site_label
_atom_site_type_symbol
_atom_type_description
_atom_site_fract_x
_atom_site_fract_y
_atom_site_fract_z
_atom_type_partial_charge
C1    C     C_R   0.854926 0.284758 0.506882 0.580374
C2    C     C_R   0.923502 0.537858 0.867398 0.460310
C3    C     C_R   0.041609 0.609551 0.749068 0.318572
C4    C     C_R   0.999733 0.499724 0.608492 0.586820
C5    C     C_R   0.038953 0.607417 0.689363 0.200552
C6    C     C_R   0.998824 0.499604 0.670622 -0.040229
C7    C     C_R   0.957817 0.393061 0.711705 0.190865
C8    C     C_R   0.957966 0.396825 0.770522 -0.026686
C9    C     C_R   0.999590 0.503641 0.789581 0.136341
C10   C     C_R   0.111006 0.553367 0.244168 -0.040117
C11   C     C_R   0.110810 0.551404 0.303745 -0.107017
C12   C     C_R   0.159714 0.431155 0.053953 0.245893
C13   C     C_R   0.000355 0.500640 0.329053 0.012714
C14   C     C_R   0.890114 0.450328 0.294498 -0.128998
C15   C     C_R   0.890514 0.449124 0.235312 -0.033497
C16   C     C_R   0.145171 0.715078 0.490355 0.551478
C17   C     C_R   0.000958 0.501549 0.209546 0.222915
C18   C     C_R   0.293728 0.020297 0.403601 -0.031821
C19   C     C_R   0.228910 0.840718 0.476104 -0.014062
C20   C     C_R   0.806164 0.072943 0.550886 0.236503
C21   C     C_R   0.727490 0.952839 0.554678 0.258353
C22   C     C_R   0.609228 0.916779 0.524814 0.288557
C23   C     C_R   0.155538 0.429315 0.994342 -0.039853
C24   C     C_R   0.569198 0.002725 0.493882 0.060361
C25   C     C_R   0.657334 0.118988 0.478565 -0.097608
C26   C     C_R   0.444896 0.975219 0.474038 0.061636
C27   C     C_R   0.415703 0.051514 0.426239 -0.039402
C28   C     C_R   0.000215 0.500388 0.391320 0.527830
C29   C     C_R   0.509227 0.158407 0.402983 0.236501
C30   C     C_R   0.627542 0.192496 0.430029 -0.049795
C31   C     C_R   0.349181 0.878638 0.503368 0.265513
C32   C     C_R   0.200609 0.915641 0.427356 0.190265
C33   C     C_R   0.773341 0.157373 0.511141 -0.030866
C34   C     C_R   0.078520 0.466204 0.951820 -0.015222
C35   C     C_R   0.376615 0.394647 0.613685 -0.077888
C36   C     C_R   0.756364 0.636347 0.415149 0.064847
C37   C     C_R   0.663878 0.673221 0.396346 0.226062
C38   C     C_R   0.566582 0.629038 0.430287 0.000938
C39   C     C_R   0.558572 0.547068 0.482931 -0.069002
C40   C     C_R   0.934178 0.547937 0.106377 0.412123
C41   C     C_R   0.659170 0.517658 0.502611 0.141466
C42   C     C_R   0.456250 0.495277 0.517901 -0.021883
C43   C     C_R   0.472962 0.446653 0.577825 0.014467
C44   C     C_R   0.583755 0.444021 0.600781 0.274864
C45   C     C_R   0.003330 0.504787 0.969393 -0.038650
C46   C     C_R   0.659975 0.452480 0.561410 0.254958
C47   C     C_R   0.338403 0.489904 0.496885 0.417707
C48   C     C_R   0.263522 0.389432 0.590397 0.050114
C49   C     C_R   0.070575 0.457738 0.132590 0.404340
C50   C     C_R   0.080542 0.465495 0.072619 0.020890
C51   C     C_R   0.005203 0.505720 0.029622 -0.055994
C52   C     C_R   0.930960 0.546478 0.046625 0.038635
C53   C     C_R   0.925472 0.541707 0.926798 0.042383
C54   C     C_R   0.851797 0.581658 0.944443 -0.093402
C55   C     C_R   0.855355 0.585048 0.003652 -0.096969
C56   C     C_R   0.076613 0.467695 0.891670 0.425773
Cl1   Cl    Cl    0.482252 0.256703 0.342240 -0.560185
Cl2   Cl    Cl    0.944457 0.114129 0.597418 -0.433580
Cl3   Cl    Cl    0.776289 0.848511 0.599429 -0.424174
Cl4   Cl    Cl    0.690434 0.328878 0.582711 -0.530667
Cl5   Cl    Cl    0.101764 0.744941 0.773638 -0.365352
Cl6   Cl    Cl    0.087763 0.740570 0.638198 -0.453209
Cu1   Cu    Cu3+1 0.098270 0.475410 0.513370 1.055837
Cu2   Cu    Cu3+1 0.901730 0.524590 0.486630 1.041604
H1    H     H_    0.196624 0.591687 0.329725 0.159696
H2    H     H_    0.502919 0.666917 0.416092 0.198031
H3    H     H_    0.791656 0.611057 0.912553 0.189944
H4    H     H_    0.797550 0.616731 0.015689 0.184027
H5    H     H_    0.925594 0.315607 0.802002 0.195704
H6    H     H_    0.196859 0.595266 0.224851 0.156459
H7    H     H_    0.286593 0.462297 0.117780 0.367045
H8    H     H_    0.029602 0.859928 0.432225 0.356461
H9    H     H_    0.297526 0.780659 0.579486 0.365273
H10   H     H_    0.578208 0.751210 0.537725 0.355553
H11   H     H_    0.691575 0.427115 0.670606 0.369651
H12   H     H_    0.804076 0.410087 0.313588 0.153636
H13   H     H_    0.297660 0.599089 0.439528 0.339106
H14   H     H_    0.741536 0.776850 0.326673 0.341807
H15   H     H_    0.914576 0.291071 0.653827 0.369122
H16   H     H_    0.804914 0.407449 0.209467 0.169822
H17   H     H_    0.269096 0.076293 0.366791 0.227140
H18   H     H_    0.215832 0.401589 0.981366 0.203353
H19   H     H_    0.696611 0.275566 0.411002 0.161145
H20   H     H_    0.190575 0.351192 0.618693 0.183620
H21   H     H_    0.387422 0.355978 0.659507 0.205354
H22   H     H_    0.832738 0.670712 0.389316 0.145740
N1    N     N_R   0.001769 0.502382 0.148148 -0.402055
N2    N     N_R   0.000128 0.503460 0.850863 -0.380647
N3    N     N_R   0.246280 0.438190 0.533650 -0.220826
N4    N     N_R   0.754320 0.561190 0.466710 -0.250093
O1    O     O_R   0.972510 0.318130 0.516820 -0.454309
O2    O     O_R   0.082990 0.479280 0.429170 -0.473195
O3    O     O_R   0.917010 0.520800 0.406580 -0.524381
O4    O     O_2   0.870447 0.594934 0.122594 -0.472417
O5    O     O_3   0.245037 0.402430 0.091920 -0.617530
O6    O     O_3   0.084259 0.888646 0.400595 -0.676053
O7    O     O_3   0.374056 0.827548 0.560188 -0.590363
O8    O     O_3   0.534544 0.800259 0.520584 -0.656145
O9    O     O_3   0.603969 0.408952 0.660840 -0.627444
O10   O     O_3   0.314272 0.531962 0.439074 -0.685054
O11   O     O_3   0.666813 0.753708 0.345485 -0.667053
O12   O     O_2   0.125240 0.402418 0.175175 -0.436032
O13   O     O_3   0.915435 0.283717 0.696782 -0.601809
O14   O     O_2   0.151249 0.434549 0.873993 -0.457886
O15   O     O_2   0.845596 0.568022 0.826455 -0.417428
O16   O     O_R   0.806530 0.359650 0.494230 -0.455022
O17   O     O_R   0.082990 0.479200 0.593420 -0.511167
O18   O     O_R   0.917010 0.520720 0.570830 -0.438878
O19   O     O_R   0.193470 0.640350 0.505770 -0.499323
O20   O     O_R   0.027490 0.681870 0.483180 -0.485810

loop_
_geom_bond_atom_site_label_1
_geom_bond_atom_site_label_2
_ccdc_geom_bond_type
C34   C56   A    
C22   O8    S    
C23   H18   S    
C27   C29   A    
C11   C13   A    
C49   N1    A    
Cu2   N4    S    
C19   C31   A    
C55   H4    S    
C16   O20   A    
C7    C8    A    
C39   C41   A    
C53   C54   A    
H9    O7    S    
C4    O18   A    
C12   C23   A    
C8    H5    S    
C29   C30   A    
H8    O6    S    
C40   N1    A    
C36   C37   A    
C24   C26   A    
Cu2   O3    S    
C21   Cl3   S    
C9    N2    S    
C38   C39   A    
C44   O9    S    
C56   N2    A    
H7    O5    S    
C19   C32   A    
C10   C17   A    
C18   H17   S    
H13   O10   S    
C30   H19   S    
C38   H2    S    
C8    C9    A    
Cu1   O2    S    
C41   C46   A    
C12   O5    S    
C2    N2    A    
C35   C43   A    
C52   C55   A    
C1    O16   A    
C41   N4    A    
C45   C53   A    
C26   C31   A    
C1    O1    A    
C7    O13   S    
C13   C14   A    
H14   O11   S    
C47   N3    A    
H15   O13   S    
C35   C48   A    
C44   C46   A    
C16   O19   A    
Cu2   O18   S    
C39   C42   A    
C3    Cl5   S    
C4    O17   A    
C1    C33   S    
C51   C52   A    
C24   C25   A    
C56   O14   S    
C4    C6    S    
C49   O12   S    
C54   H3    S    
C36   H22   S    
C40   C52   A    
C47   O10   S    
C48   H20   S    
C28   O3    A    
C14   H12   S    
Cu1   O19   S    
C43   C44   A    
C37   C38   A    
C3    C9    A    
Cu2   O20   S    
C15   H16   S    
C23   C34   A    
Cu1   N3    S    
H11   O9    S    
C50   C51   A    
C26   C27   A    
C13   C28   S    
C34   C45   A    
C20   C33   A    
C10   H6    S    
C32   O6    S    
C29   Cl1   S    
C48   N3    A    
C22   C24   A    
C18   C32   A    
C42   C43   A    
C20   Cl2   S    
C36   N4    A    
C25   C30   A    
C15   C17   A    
C54   C55   A    
H10   O8    S    
C46   Cl4   S    
C17   N1    S    
C18   C27   A    
C40   O4    S    
C3    C5    A    
C2    C53   A    
C12   C50   A    
Cu2   O16   S    
C6    C7    A    
C2    O15   S    
C37   O11   S    
C35   H21   S    
C5    C6    A    
C16   C19   S    
C5    Cl6   S    
C42   C47   A    
C31   O7    S    
C10   C11   A    
Cu1   Cu2   S    
C28   O2    A    
C20   C21   A    
C49   C50   A    
Cu1   O1    S    
C45   C51   A    
C14   C15   A    
C21   C22   A    
Cu1   O17   S    
C11   H1    S    
C25   C33   A    
