data_mof_unit_56165.cif
_audit_creation_date              2013-03-05T15:56:23-0500
_audit_creation_method            fapswitch 2.2
_symmetry_space_group_name_H-M    P1
_symmetry_Int_Tables_number       1
_space_group_crystal_system       triclinic
_cell_length_a                    12.340609
_cell_length_b                    13.149989
_cell_length_c                    23.494946
_cell_angle_alpha                 77.759528
_cell_angle_beta                  101.27925
_cell_angle_gamma                 116.741349
_cell_volume                      3305.5428429

loop_
_atom_site_label
_atom_site_type_symbol
_atom_site_description
_atom_site_fract_x
_atom_site_fract_y
_atom_site_fract_z
_atom_type_partial_charge
O1    O     O_R   0.972510 0.318130 0.516820 -0.572733
O2    O     O_R   0.806530 0.359650 0.494230 -0.610630
C1    C     C_R   0.854809 0.286261 0.507259 0.789006
O3    O     O_R   0.082990 0.479200 0.593420 -0.582446
O4    O     O_R   0.917010 0.520720 0.570830 -0.600994
C2    C     C_R   0.999399 0.499507 0.608948 0.792830
Cu1   Cu    Cu3+1 0.098270 0.475410 0.513370 0.960884
Cu2   Cu    Cu3+1 0.901730 0.524590 0.486630 0.991667
O5    O     O_R   0.193470 0.640350 0.505770 -0.578352
O6    O     O_R   0.027490 0.681870 0.483180 -0.531701
O7    O     O_R   0.082990 0.479280 0.429170 -0.593785
O8    O     O_R   0.917010 0.520800 0.406580 -0.554393
C3    C     C_R   0.145533 0.713450 0.490405 0.814240
C4    C     C_R   0.000128 0.499860 0.391114 0.823430
C5    C     C_R   0.056762 0.603966 0.112898 0.604658
N1    N     N_R   0.002937 0.501739 0.148179 -0.452172
C6    C     C_R   0.951214 0.398700 0.126994 0.595218
C7    C     C_R   0.950206 0.395821 0.067547 -0.019132
C8    C     C_R   0.003168 0.500325 0.030334 -0.010082
C9    C     C_R   0.057363 0.605459 0.053089 -0.020861
C10   C     C_R   0.897064 0.291473 0.044460 -0.138248
C11   C     C_R   0.896034 0.290848 0.985045 -0.141082
C12   C     C_R   0.947896 0.394576 0.947474 -0.018355
C13   C     C_R   0.001663 0.499715 0.970193 -0.011619
C14   C     C_R   0.053710 0.604261 0.932885 -0.020756
C15   C     C_R   0.107659 0.708570 0.956057 -0.136770
C16   C     C_R   0.109649 0.709149 0.015567 -0.139784
C17   C     C_R   0.947369 0.396153 0.887532 0.544489
N2    N     N_R   0.998066 0.498563 0.851891 -0.473853
C18   C     C_R   0.050557 0.601523 0.873203 0.551403
O9    O     O_2   0.108079 0.703682 0.135573 -0.510255
O10   O     O_2   0.900621 0.299641 0.163349 -0.514176
H1    H     H_    0.855901 0.210012 0.072168 0.197790
H2    H     H_    0.854220 0.208910 0.968659 0.197210
O11   O     O_2   0.896193 0.296377 0.864915 -0.517350
O12   O     O_2   0.100152 0.700719 0.836783 -0.504160
H3    H     H_    0.148451 0.790056 0.928311 0.197624
H4    H     H_    0.151783 0.791068 0.031988 0.195796
C19   C     C_R   0.078986 0.466830 0.773302 -0.089645
H5    H     H_    0.142190 0.442815 0.805607 0.150563
C20   C     C_R   0.079683 0.467359 0.713998 -0.193454
H6    H     H_    0.143821 0.443150 0.701435 0.167401
C21   C     C_R   0.998270 0.498643 0.671603 -0.052051
C22   C     C_R   0.915998 0.529072 0.689691 -0.190047
H7    H     H_    0.852112 0.553387 0.658056 0.181816
C23   C     C_R   0.915984 0.529033 0.749058 -0.077263
H8    H     H_    0.852658 0.553011 0.762587 0.160864
C24   C     C_R   0.997465 0.497944 0.790951 0.339074
C25   C     C_R   0.894888 0.493755 0.228829 0.372553
C26   C     C_R   0.896358 0.492109 0.288873 -0.225733
H9    H     H_    0.816332 0.485357 0.304726 0.206905
C27   C     C_R   0.999962 0.499576 0.328520 -0.088619
C28   C     C_R   0.103095 0.507668 0.307893 -0.201684
H10   H     H_    0.184177 0.513670 0.337589 0.163715
C29   C     C_R   0.103085 0.509459 0.248449 -0.148823
H11   H     H_    0.183302 0.515683 0.233024 0.163653
C30   C     C_R   0.000167 0.502697 0.208747 0.245082
C31   C     C_R   0.297445 0.997281 0.398088 -0.178485
H12   H     H_    0.120134 0.858408 0.393191 0.224408
H13   H     H_    0.486704 0.188796 0.364080 0.163779
H14   H     H_    0.276321 0.044345 0.357038 0.163541
C32   C     C_R   0.230160 0.832994 0.473552 -0.060623
C33   C     C_R   0.809823 0.092715 0.561260 -0.252122
C34   C     C_R   0.732498 0.977172 0.576095 0.349704
C35   C     C_R   0.612761 0.931459 0.546890 -0.143058
C36   C     C_R   0.569157 0.004690 0.504669 -0.017062
C37   C     C_R   0.655550 0.117110 0.484982 0.076098
C38   C     C_R   0.444936 0.970293 0.479059 0.092724
C39   C     C_R   0.416400 0.036060 0.427145 0.147372
C40   C     C_R   0.507009 0.138778 0.404156 -0.209506
C41   C     C_R   0.624127 0.180064 0.433245 -0.156138
C42   C     C_R   0.347177 0.874996 0.504204 -0.224600
C43   C     C_R   0.206348 0.893753 0.419925 -0.126237
C44   C     C_R   0.773125 0.162873 0.516228 -0.151750
H15   H     H_    0.359706 0.830673 0.547423 0.160268
H16   H     H_    0.899557 0.128643 0.585715 0.191336
H17   H     H_    0.690992 0.260058 0.413244 0.163253
C45   C     C_R   0.344981 0.327783 0.594933 -0.115024
H18   H     H_    0.169624 0.315228 0.605314 0.133599
H19   H     H_    0.550152 0.294630 0.613013 0.169150
N3    N     N_R   0.246280 0.438190 0.533650 -0.190364
C46   C     C_R   0.756708 0.647623 0.421667 0.552838
C47   C     C_R   0.655596 0.672015 0.403405 -0.249967
C48   C     C_R   0.551821 0.612294 0.431648 -0.264759
C49   C     C_R   0.547311 0.527274 0.479946 0.022788
C50   C     C_R   0.651506 0.501691 0.496631 0.221851
C51   C     C_R   0.443825 0.468591 0.512651 -0.004239
C52   C     C_R   0.445047 0.384224 0.561446 0.113788
C53   C     C_R   0.546448 0.358797 0.576163 -0.255338
C54   C     C_R   0.646716 0.416239 0.544823 -0.154791
C55   C     C_R   0.339396 0.492130 0.499618 0.058854
C56   C     C_R   0.246796 0.357243 0.580043 0.051347
N4    N     N_R   0.754320 0.561190 0.466710 -0.270776
H20   H     H_    0.330191 0.554290 0.463405 0.122828
H21   H     H_    0.477914 0.636780 0.415179 0.157916
H22   H     H_    0.658836 0.740245 0.367627 0.191419
H23   H     H_    0.719316 0.391348 0.560834 0.202337
C57   C     C_1   0.546571 0.807516 0.553352 0.322678
N5    N     N_1   0.494456 0.708329 0.558957 -0.256077
N6    N     N_R   0.777142 0.907477 0.621178 0.130665
O13   O     O_R   0.893200 0.932066 0.630461 -0.332981
O14   O     O_R   0.704847 0.827270 0.657177 -0.331196
C58   C     C_1   0.340490 0.240445 0.644756 0.240329
N7    N     N_1   0.336796 0.170508 0.684634 -0.217828
N8    N     N_R   0.865335 0.722436 0.395435 0.120267
O15   O     O_R   0.918795 0.827966 0.406565 -0.381400
O16   O     O_R   0.879946 0.702015 0.346354 -0.368447
N9    N     N_R   0.786738 0.486002 0.189460 0.143323
O17   O     O_R   0.682030 0.445611 0.209722 -0.336177
O18   O     O_R   0.792629 0.525738 0.133965 -0.326379

loop_
_geom_bond_atom_site_label_1
_geom_bond_atom_site_label_2
_geom_bond_distance
_ccdc_geom_bond_type
C36   C38   1.430810 A    
C29   H11   1.082975 S    
C51   C55   1.419437 A    
C7    C10   1.404924 A    
C20   H6    1.083019 S    
C8    C9    1.409205 A    
C51   C52   1.419281 A    
Cu1   Cu2   2.709031 S    
C19   C20   1.393564 A    
C28   H10   1.083245 S    
C22   H7    1.083101 S    
Cu1   O7    1.942097 S    
N8    O16   1.300240 A    
C15   C16   1.395192 A    
C17   N2    1.369220 A    
C35   C57   1.446430 S    
O3    Cu1   1.939655 S    
O4    C2    1.306419 A    
O7    C4    1.306564 A    
C10   H1    1.083186 S    
C33   H16   1.083978 S    
C16   H4    1.083190 S    
C5    N1    1.369203 A    
C57   N5    1.156537 T    
C25   C30   1.415325 A    
N9    O17   1.301601 A    
C7    C8    1.409219 A    
C46   N8    1.422654 S    
H19   C53   1.083103 S    
C1    C44   1.469497 S    
O5    C3    1.298212 A    
N3    C56   1.353742 A    
C4    C27   1.471024 S    
C3    C32   1.462537 S    
C17   O11   1.349573 S    
N1    C6    1.369114 A    
C26   C27   1.404251 A    
C12   C13   1.409077 A    
C32   C43   1.397084 A    
C40   C41   1.384032 A    
H12   C43   1.076967 S    
C54   H23   1.063566 S    
C38   C42   1.406836 A    
C31   H14   1.083936 S    
C28   C29   1.391815 A    
C36   C37   1.421492 A    
C46   N4    1.372844 A    
C10   C11   1.395256 A    
C20   C21   1.406242 A    
C42   H15   1.078618 S    
C22   C23   1.394761 A    
C26   H9    1.082987 S    
C25   N9    1.442858 S    
C49   C51   1.436114 A    
C5    C9    1.402620 A    
C11   H2    1.083188 S    
C23   C24   1.399706 A    
N2    C24   1.432081 S    
C13   C14   1.409071 A    
O3    C2    1.305747 A    
C50   C54   1.405391 A    
C19   H5    1.082875 S    
C38   C39   1.420706 A    
C45   C56   1.392735 A    
C14   C15   1.405036 A    
C49   C50   1.434030 A    
O1    C1    1.303971 A    
C48   H21   1.076395 S    
C21   C22   1.406418 A    
N2    C18   1.369215 A    
C50   N4    1.392293 A    
C47   C48   1.379668 A    
H13   C40   1.084150 S    
Cu2   O8    1.939656 S    
N6    O14   1.301494 A    
C6    C7    1.402693 A    
C32   C42   1.397535 A    
C15   H3    1.083189 S    
C37   C44   1.411096 A    
C12   C17   1.402881 A    
C48   C49   1.404082 A    
H18   C56   1.083204 S    
Cu1   N3    2.041568 S    
O8    C4    1.304759 A    
C46   C47   1.391528 A    
C2    C21   1.472452 S    
C29   C30   1.400431 A    
C41   H17   1.081298 S    
C27   C28   1.401269 A    
C45   C52   1.415078 A    
C14   C18   1.402815 A    
Cu1   O5    1.934210 S    
C23   H8    1.082852 S    
C45   C58   1.445830 S    
O1    Cu1   1.944801 S    
O2    Cu2   1.934212 S    
Cu2   N4    2.029597 S    
O6    C3    1.308467 A    
O4    Cu2   1.942097 S    
C31   C39   1.401071 A    
C5    O9    1.349516 S    
C9    C16   1.404906 A    
N8    O15   1.300717 A    
C18   O12   1.349599 S    
C34   C35   1.412271 A    
O2    C1    1.304161 A    
C55   H20   1.075080 S    
C47   H22   1.083645 S    
N6    O13   1.301671 A    
N9    O18   1.300918 A    
C8    C13   1.411191 A    
C37   C41   1.411048 A    
N1    C30   1.432963 S    
C35   C36   1.432952 A    
C39   C40   1.390770 A    
C33   C34   1.393327 A    
N3    C55   1.359519 A    
C34   N6    1.442189 S    
C52   C53   1.398384 A    
C33   C44   1.396545 A    
Cu2   O6    1.944799 S    
C25   C26   1.402995 A    
C58   N7    1.157294 T    
C6    O10   1.349502 S    
C11   C12   1.405057 A    
C53   C54   1.386828 A    
C31   C43   1.390159 A    
C19   C24   1.398916 A    
