data_mof_unit_36691.cif
_audit_creation_date              2012-10-26T18:50:49-0400
_audit_creation_method            fapswitch 2.2
_symmetry_space_group_name_H-M    P1
_symmetry_Int_Tables_number       1
_space_group_crystal_system       triclinic
_cell_length_a                    12.400873
_cell_length_b                    13.198599
_cell_length_c                    17.333693
_cell_angle_alpha                 107.136981
_cell_angle_beta                  74.66255
_cell_angle_gamma                 117.028793
_cell_volume                      2386.41367467

loop_
_atom_site_label
_atom_site_type_symbol
_atom_type_description
_atom_site_fract_x
_atom_site_fract_y
_atom_site_fract_z
_atom_type_partial_charge
C1    C     C_R   0.144013 0.713018 0.504028 0.533819
C2    C     C_R   0.025972 0.509297 0.263182 -0.068368
C3    C     C_R   0.731514 0.960687 0.425503 -0.088705
C4    C     C_R   0.986038 0.501760 0.651925 0.546895
C5    C     C_R   0.771933 0.161806 0.486250 0.013206
C6    C     C_R   0.176979 0.920009 0.534942 -0.124441
C7    C     C_R   0.253546 0.037148 0.541213 -0.145579
C8    C     C_R   0.379559 0.072202 0.519289 -0.036242
C9    C     C_R   0.432012 0.989821 0.489551 0.046758
C10   C     C_R   0.351860 0.871562 0.468939 -0.040398
C11   C     C_R   0.560601 0.020144 0.477484 -0.001783
C12   C     C_R   0.865477 0.482844 0.790695 -0.136378
C13   C     C_R   0.606242 0.933990 0.433984 -0.042345
C14   C     C_R   0.525509 0.822229 0.400959 0.230680
C15   C     C_R   0.400599 0.792978 0.417148 -0.054564
C16   C     C_R   0.855568 0.285945 0.492546 0.565575
C17   C     C_R   0.645292 0.131458 0.510334 0.243518
C18   C     C_R   0.813868 0.073080 0.453041 0.193726
C19   C     C_R   0.224879 0.835732 0.500151 -0.012534
C20   C     C_R   0.611987 0.615799 0.657946 0.241391
C21   C     C_R   0.257592 0.361432 0.380593 0.415202
C22   C     C_R   0.358753 0.331122 0.354122 0.263716
C23   C     C_R   0.933581 0.534890 0.166894 0.210559
C24   C     C_R   0.444758 0.367519 0.405310 0.208788
C25   C     C_R   0.445636 0.453986 0.476761 -0.075300
C26   C     C_R   0.343278 0.486956 0.501676 0.101835
C27   C     C_R   0.543800 0.509087 0.525165 -0.019089
C28   C     C_R   0.014900 0.499707 0.347861 0.563727
C29   C     C_R   0.522520 0.567159 0.606359 -0.011410
C30   C     C_R   0.416491 0.585150 0.633429 -0.151119
C31   C     C_R   0.343788 0.568999 0.577835 0.286921
C32   C     C_R   0.663933 0.513432 0.496315 0.100680
C33   C     C_R   0.726397 0.614502 0.625916 0.070021
C34   C     C_R   0.928096 0.517465 0.242931 -0.117366
C35   C     C_R   0.975627 0.496903 0.736755 0.015968
C36   C     C_R   0.075357 0.501372 0.763393 -0.122433
C37   C     C_R   0.066256 0.494167 0.843110 -0.114897
C38   C     C_R   0.956928 0.481701 0.897275 0.032171
C39   C     C_R   0.855846 0.473975 0.870605 -0.090495
C40   C     C_3   0.957244 0.088088 0.518662 -0.113696
C41   C     C_3   0.609922 0.199580 0.646743 -0.123789
C42   C     C_3   0.555418 0.594315 0.789424 -0.102414
C43   C     C_3   0.112202 0.202030 0.308603 -0.006655
C44   C     C_3   0.347559 0.754280 0.626205 -0.109695
C45   C     C_R   0.132425 0.519126 0.204432 0.252812
C46   C     C_R   0.136284 0.532301 0.126058 0.244985
C47   C     C_R   0.036206 0.538696 0.106997 0.000864
C48   C     C_2   0.948023 0.476645 0.981826 -0.084028
C49   C     C_2   0.040153 0.548419 0.024144 -0.050713
Cl1   Cl    Cl    0.266549 0.538864 0.050983 -0.516565
Cl2   Cl    Cl    0.575469 0.713518 0.340484 -0.500563
Cl3   Cl    Cl    0.532463 0.284742 0.384525 -0.559754
Cl4   Cl    Cl    0.383276 0.252108 0.254004 -0.433506
Cl5   Cl    Cl    0.264215 0.520795 0.227216 -0.384565
Cl6   Cl    Cl    0.812724 0.559495 0.151873 -0.481038
Cu1   Cu    Cu3+1 0.900140 0.524980 0.518800 0.988596
Cu2   Cu    Cu3+1 0.099860 0.475020 0.481200 1.085278
H1    H     H_    0.160579 0.510328 0.722766 0.145955
H2    H     H_    0.692147 0.480973 0.433393 0.197752
H3    H     H_    0.123406 0.610403 0.995586 0.168949
H4    H     H_    0.770615 0.463194 0.911960 0.154692
H5    H     H_    0.786709 0.477085 0.770853 0.117105
H6    H     H_    0.864538 0.414151 0.009730 0.182880
H7    H     H_    0.144241 0.497078 0.862175 0.136215
H8    H     H_    0.936418 0.152798 0.571066 0.114183
H9    H     H_    0.055779 0.108295 0.512640 0.137209
H10   H     H_    0.903896 0.998806 0.531182 0.120967
H11   H     H_    0.705367 0.224413 0.655089 0.105475
H12   H     H_    0.767365 0.895165 0.397027 0.205296
H13   H     H_    0.549893 0.110121 0.657499 0.111427
H14   H     H_    0.575189 0.260145 0.693671 0.145853
H15   H     H_    0.470154 0.516437 0.774601 0.121360
H16   H     H_    0.535617 0.638434 0.853268 0.192731
H17   H     H_    0.629912 0.567743 0.786572 0.112385
H18   H     H_    0.129251 0.154932 0.344732 0.148031
H19   H     H_    0.140190 0.172442 0.242650 0.185638
H20   H     H_    0.012320 0.177491 0.316922 0.176340
H21   H     H_    0.436725 0.785704 0.585196 0.120937
H22   H     H_    0.361771 0.773758 0.690435 0.114446
H23   H     H_    0.080169 0.895607 0.557614 0.135213
H24   H     H_    0.296751 0.804773 0.626120 0.136982
H25   H     H_    0.432802 0.164066 0.523345 0.218926
H26   H     H_    0.215590 0.101611 0.565600 0.104847
H27   H     H_    0.342580 0.708092 0.387115 0.209160
H28   H     H_    0.796048 0.652181 0.664820 0.143595
H29   H     H_    0.846704 0.513156 0.287158 0.203684
H30   H     H_    0.399694 0.629188 0.695805 0.160606
N1    N     N_R   0.749710 0.562810 0.547300 -0.285326
N2    N     N_R   0.249640 0.437820 0.453210 -0.247486
O1    O     O_R   0.025490 0.682370 0.523640 -0.511625
O2    O     O_3   0.606225 0.209932 0.568900 -0.560848
O3    O     O_3   0.591497 0.672613 0.737645 -0.587191
O4    O     O_3   0.171653 0.324288 0.329768 -0.483301
O5    O     O_3   0.275645 0.634449 0.599643 -0.517520
O6    O     O_R   0.194150 0.640180 0.491890 -0.456409
O7    O     O_R   0.905900 0.523560 0.631310 -0.532206
O8    O     O_R   0.074570 0.481370 0.599560 -0.465042
O9    O     O_R   0.805850 0.359820 0.508110 -0.435720
O10   O     O_R   0.974510 0.317630 0.476360 -0.472496
O11   O     O_R   0.925430 0.518630 0.400440 -0.527853
O12   O     O_R   0.094100 0.476440 0.368690 -0.401623
O13   O     O_3   0.935662 0.095156 0.444972 -0.581454

loop_
_geom_bond_atom_site_label_1
_geom_bond_atom_site_label_2
_ccdc_geom_bond_type
C24   Cl3   S    
C7    H26   S    
C1    O1    A    
C27   C29   A    
C35   C36   A    
C17   O2    S    
Cu1   O9    S    
C28   O11   A    
C7    C8    A    
C47   C49   S    
C21   N2    A    
C45   C46   A    
C26   N2    A    
C6    C19   A    
C20   O3    S    
C37   C38   A    
C49   H3    S    
Cu2   N2    S    
C8    H25   S    
C21   C22   A    
C36   C37   A    
C3    H12   S    
C33   N1    A    
C36   H1    S    
C10   C15   A    
C34   H29   S    
C38   C39   A    
Cu1   N1    S    
C5    C17   A    
Cu2   O10   S    
Cu1   Cu2   S    
C3    C18   A    
C18   O13   S    
C33   H28   S    
C5    C16   S    
C4    O7    A    
C28   O12   A    
C8    C9    A    
C40   H10   S    
C41   H11   S    
C9    C10   A    
C38   C48   S    
C3    C13   A    
C41   H14   S    
C2    C34   A    
Cu1   O1    S    
C4    C35   S    
C26   C31   A    
C40   H9    S    
C13   C14   A    
C22   Cl4   S    
C20   C29   A    
C2    C45   A    
C43   H18   S    
C39   H4    S    
C1    C19   S    
C23   C47   A    
C24   C25   A    
C44   H24   S    
C48   H6    S    
C5    C18   A    
C25   C26   A    
C29   C30   A    
C12   H5    S    
C6    H23   S    
C14   Cl2   S    
C10   C19   A    
C1    O6    A    
C23   C34   A    
Cu2   O8    S    
C42   H15   S    
C12   C35   A    
C9    C11   A    
C15   H27   S    
C42   H17   S    
C20   C33   A    
C48   C49   D    
C41   O2    S    
C45   Cl5   S    
C40   H8    S    
C22   C24   A    
C43   H20   S    
Cu1   O11   S    
C37   H7    S    
C43   H19   S    
Cu1   O7    S    
C46   C47   A    
C11   C17   A    
C42   H16   S    
C27   C32   A    
C44   H22   S    
C16   O10   A    
C23   Cl6   S    
C6    C7    A    
C25   C27   A    
C31   O5    S    
Cu2   O12   S    
C46   Cl1   S    
C12   C39   A    
C44   H21   S    
C11   C13   A    
C16   O9    A    
C30   C31   A    
C21   O4    S    
C43   O4    S    
C42   O3    S    
C44   O5    S    
C40   O13   S    
Cu2   O6    S    
C14   C15   A    
C2    C28   S    
C32   H2    S    
C30   H30   S    
C4    O8    A    
C41   H13   S    
C32   N1    A    
