data_mof_unit_46921.cif
_audit_creation_date              2012-12-10T19:16:15-0500
_audit_creation_method            fapswitch 2.2
_symmetry_space_group_name_H-M    P1
_symmetry_Int_Tables_number       1
_space_group_crystal_system       triclinic
_cell_length_a                    10.694715
_cell_length_b                    9.83304
_cell_length_c                    27.424598
_cell_angle_alpha                 89.338885
_cell_angle_beta                  90.255953
_cell_angle_gamma                 90.752861
_cell_volume                      2883.54571861

loop_
_atom_site_label
_atom_site_type_symbol
_atom_type_description
_atom_site_fract_x
_atom_site_fract_y
_atom_site_fract_z
_atom_type_partial_charge
C1    C     C_R   0.257986 0.499459 0.500480 0.895172
C2    C     C_R   0.388661 0.619647 0.283405 -0.087007
C3    C     C_R   0.430269 0.515987 0.253172 0.284060
C4    C     C_R   0.366069 0.546018 0.101772 -0.095588
C5    C     C_R   0.328869 0.427978 0.127767 -0.002800
C6    C     C_R   0.274484 0.318731 0.102929 -0.139756
C7    C     C_R   0.418266 0.657464 0.126991 -0.041229
C8    C     C_R   0.479154 0.505448 0.353321 -0.043362
C9    C     C_R   0.476960 0.499556 0.646298 -0.088769
C10   C     C_R   0.295092 0.442661 0.973623 0.046623
C11   C     C_R   0.416919 0.656249 0.973582 0.042797
C12   C     C_R   0.498028 0.500972 0.405981 0.870672
C13   C     C_R   0.361243 0.546941 0.948040 0.077586
C14   C     C_R   0.230198 0.342792 0.946539 -0.204227
C15   C     C_R   0.239210 0.339158 0.896125 -0.125035
C16   C     C_R   0.314050 0.434056 0.871073 -0.018299
C17   C     C_R   0.375156 0.539340 0.896792 -0.062510
C18   C     C_R   0.452064 0.634795 0.871479 -0.067700
C19   C     C_R   0.464800 0.620873 0.820598 0.517705
C20   C     C_R   0.330116 0.425245 0.820685 0.521396
C21   C     C_R   0.353633 0.585211 0.712936 0.046930
C22   C     C_R   0.381528 0.582581 0.663520 -0.265246
C23   C     C_R   0.741633 0.500412 0.503036 0.876964
C24   C     C_R   0.545942 0.418533 0.679109 -0.035098
C25   C     C_R   0.518127 0.421891 0.728732 -0.145208
C26   C     C_R   0.422797 0.505090 0.745639 0.263493
C27   C     C_R   0.300971 0.438693 0.025268 0.063987
C28   C     C_R   0.354065 0.551025 0.050443 0.057541
C29   C     C_R   0.398297 0.667018 0.024529 -0.022257
C30   C     C_R   0.260549 0.323784 0.052614 -0.202642
C31   C     C_R   0.438687 0.781956 0.101879 0.091901
C32   C     C_R   0.499311 0.744525 0.948383 -0.234845
C33   C     C_R   0.515888 0.736780 0.898239 -0.003274
C34   C     C_R   0.498866 0.499460 0.593914 0.881801
C35   C     C_R   0.423482 0.787973 0.050930 -0.061873
C36   C     C_3   0.072252 0.631033 0.527251 -0.039099
C37   C     C_3   0.070051 0.369524 0.529136 -0.071094
C38   C     C_3   0.929785 0.620699 0.533930 -0.456921
C39   C     C_3   0.926244 0.366412 0.526968 -0.441311
C40   C     C_3   0.066332 0.498876 0.447294 -0.081058
C41   C     C_3   0.120726 0.499430 0.501371 0.065086
C42   C     C_3   0.877709 0.500455 0.503616 0.096314
C43   C     C_3   0.922440 0.512875 0.450142 -0.447629
C44   C     C_3   0.369483 0.077821 0.502115 -0.052148
C45   C     C_3   0.369405 0.915337 0.497527 -0.046637
C46   C     C_3   0.554928 0.082230 0.453100 -0.105447
C47   C     C_3   0.566770 0.921629 0.455533 -0.105597
C48   C     C_3   0.568115 0.080630 0.542333 -0.028757
C49   C     C_3   0.555441 0.918531 0.544926 -0.017496
C50   C     C_R   0.348104 0.421258 0.178223 0.505853
C51   C     C_R   0.445080 0.641251 0.176991 0.531905
C52   C     C_R   0.495783 0.405816 0.273439 -0.082202
C53   C     C_R   0.518167 0.399293 0.323574 -0.220390
C54   C     C_R   0.415700 0.616188 0.332801 -0.200588
H1    H     H_    0.384712 0.699224 0.355119 0.172199
H2    H     H_    0.529511 0.325647 0.250387 0.160982
H3    H     H_    0.557827 0.816207 0.967899 0.158500
H4    H     H_    0.572734 0.363180 0.754660 0.151967
H5    H     H_    0.090011 0.718721 0.502173 0.155119
H6    H     H_    0.101334 0.278452 0.509525 0.160840
H7    H     H_    0.903123 0.605749 0.572810 0.172577
H8    H     H_    0.884114 0.349753 0.563598 0.186118
H9    H     H_    0.336591 0.704243 0.268428 0.161624
H10   H     H_    0.889360 0.718434 0.521834 0.191269
H11   H     H_    0.896531 0.278585 0.504325 0.196370
H12   H     H_    0.891748 0.612236 0.434959 0.197070
H13   H     H_    0.873689 0.435986 0.427241 0.188027
H14   H     H_    0.332095 0.100403 0.539030 0.117042
H15   H     H_    0.318360 0.873583 0.529868 0.132455
H16   H     H_    0.492524 0.104268 0.421907 0.105401
H17   H     H_    0.524073 0.880231 0.421841 0.127978
H18   H     H_    0.521849 0.119452 0.575654 0.142375
H19   H     H_    0.488127 0.896514 0.575138 0.116217
H20   H     H_    0.244977 0.227038 0.122176 0.185854
H21   H     H_    0.328599 0.645248 0.638304 0.166338
H22   H     H_    0.189065 0.259526 0.876925 0.193761
H23   H     H_    0.170451 0.266706 0.963333 0.147875
H24   H     H_    0.223015 0.233186 0.035980 0.152668
H25   H     H_    0.567276 0.313083 0.338935 0.158601
N1    N     N_R   0.408262 0.525506 0.201581 -0.359028
N2    N     N_R   0.404819 0.517331 0.796924 -0.351483
N3    N     N_3   0.499750 0.138610 0.498940 -0.066648
N4    N     N_3   0.499750 0.861390 0.498940 -0.065673
O1    O     O_R   0.314910 0.616040 0.499990 -0.602922
O2    O     O_R   0.314910 0.383960 0.499990 -0.600199
O3    O     O_R   0.500140 0.616020 0.428740 -0.618344
O4    O     O_R   0.500140 0.383980 0.428740 -0.616729
O5    O     O_R   0.685320 0.616040 0.499970 -0.603703
O6    O     O_R   0.685320 0.383960 0.499970 -0.598707
O7    O     O_R   0.500090 0.616050 0.571230 -0.606681
O8    O     O_R   0.500090 0.383950 0.571230 -0.613074
O9    O     O_2   0.306947 0.311492 0.203767 -0.559723
O10   O     O_2   0.272282 0.325238 0.795507 -0.552252
O11   O     O_2   0.510492 0.738482 0.200764 -0.530965
O12   O     O_2   0.536387 0.708990 0.794561 -0.547585
Zn1   Zn    Zn3+2 0.500150 0.654960 0.499980 0.963710
Zn2   Zn    Zn3+2 0.500150 0.345040 0.499980 0.967979
N5    N     N_3   0.469874 0.903267 0.128326 -0.369031
H26   H     H_    0.398776 0.974015 0.123066 0.190640
H27   H     H_    0.553177 0.944256 0.114332 0.201447
C55   C     C_1   0.651102 0.339979 0.663488 0.168483
N6    N     N_1   0.736267 0.277659 0.651372 -0.232222
C56   C     C_1   0.602010 0.834262 0.876425 0.289575
N7    N     N_1   0.670994 0.912543 0.859194 -0.161281
C57   C     C_1   0.418239 0.920945 0.027523 0.128651
N8    N     N_1   0.413815 0.027131 0.008973 -0.205394
N9    N     N_3   0.138320 0.661548 0.573125 -0.451087
H28   H     H_    0.094960 0.615310 0.603085 0.200151
H29   H     H_    0.133369 0.766216 0.579111 0.164071
N10   N     N_3   0.119166 0.358806 0.579249 -0.436523
H30   H     H_    0.056059 0.397148 0.604395 0.201972
H31   H     H_    0.128650 0.255780 0.588282 0.181789
C58   C     C_1   0.116156 0.610563 0.416235 0.154518
N11   N     N_1   0.152594 0.696860 0.390836 -0.211831
C59   C     C_1   0.095160 0.373420 0.420609 0.173298
N12   N     N_1   0.115465 0.276493 0.398644 -0.197212
N13   N     N_3   0.282232 0.143214 0.468097 -0.391639
H32   H     H_    0.192581 0.103538 0.474352 0.154910
H33   H     H_    0.302631 0.127551 0.431599 0.196013
N14   N     N_3   0.300429 0.863730 0.454990 -0.392502
H34   H     H_    0.205174 0.880888 0.459845 0.170850
H35   H     H_    0.326563 0.912553 0.422629 0.171384
N15   N     N_3   0.697205 0.132242 0.545128 -0.404750
H36   H     H_    0.753654 0.087621 0.519150 0.173294
H37   H     H_    0.734556 0.106229 0.579178 0.177529
N16   N     N_3   0.668775 0.846615 0.560214 -0.388539
H38   H     H_    0.747410 0.879385 0.541212 0.170454
H39   H     H_    0.686250 0.866989 0.596993 0.168085
C60   C     C_1   0.669645 0.153972 0.436846 0.238410
N17   N     N_1   0.759822 0.207428 0.422947 -0.234467
C61   C     C_1   0.697005 0.876363 0.451105 0.214450
N18   N     N_1   0.799989 0.844929 0.446373 -0.251940
C62   C     C_1   0.255457 0.671991 0.729799 0.184577
N19   N     N_1   0.176723 0.741573 0.743352 -0.178019

loop_
_geom_bond_atom_site_label_1
_geom_bond_atom_site_label_2
_ccdc_geom_bond_type
C10   C27   A    
C21   C26   A    
O5    Zn1   S    
C55   N6    T    
N9    H29   S    
C54   H1    S    
C20   O10   S    
C36   H5    S    
C46   C60   S    
N15   H36   S    
C52   C53   A    
C1    O1    A    
C49   N16   S    
N16   H38   S    
C23   C42   S    
C32   H3    S    
C21   C22   A    
C28   C29   A    
C53   H25   S    
C48   H18   S    
C38   C42   S    
C44   N3    S    
N13   H33   S    
C5    C6    A    
C9    C22   A    
N15   H37   S    
C40   C59   S    
C15   C16   A    
C24   C55   S    
O1    Zn1   S    
C31   N5    S    
C34   O8    A    
N10   H30   S    
C40   C43   S    
C16   C17   A    
N9    H28   S    
C23   O6    A    
C47   N4    S    
C16   C20   A    
C38   H7    S    
C15   H22   S    
C46   N3    S    
C20   N2    A    
C27   C30   A    
C39   H11   S    
C36   C41   S    
C45   N4    S    
C22   H21   S    
C48   N15   S    
C4    C7    A    
C3    N1    S    
C21   C62   S    
C4    C28   A    
N14   H35   S    
C6    H20   S    
C39   C42   S    
C38   H10   S    
C1    O2    A    
C7    C31   A    
C45   H15   S    
C24   C25   A    
C10   C14   A    
C8    C54   A    
C14   H23   S    
C18   C19   A    
C25   C26   A    
C47   C61   S    
C34   O7    A    
C35   C57   S    
C40   C58   S    
C8    C12   S    
C17   C18   A    
N14   H34   S    
O8    Zn2   S    
C47   H17   S    
C37   N10   S    
O3    Zn1   S    
C45   N14   S    
C50   O9    S    
C48   C49   S    
C6    C30   A    
C11   C32   A    
C26   N2    S    
N5    H27   S    
C23   O5    A    
C2    C54   A    
C9    C34   S    
N3    Zn2   S    
C49   H19   S    
C5    C50   A    
C44   H14   S    
C42   C43   S    
C61   N18   T    
C56   N7    T    
C19   O12   S    
C2    H9    S    
C58   N11   T    
C1    C41   S    
C39   H8    S    
C46   C47   S    
C40   C41   S    
N16   H39   S    
C12   O4    A    
C33   C56   S    
C44   C45   S    
C4    C5    A    
C10   C13   A    
C50   N1    A    
C8    C53   A    
C3    C52   A    
C9    C24   A    
O7    Zn1   S    
C12   O3    A    
C57   N8    T    
C29   C35   A    
C13   C17   A    
C32   C33   A    
C49   N4    S    
C36   C38   S    
C2    C3    A    
C60   N17   T    
C7    C51   A    
C37   C39   S    
N13   H32   S    
C11   C13   A    
C62   N19   T    
C44   N13   S    
C43   H12   S    
N4    Zn1   S    
C51   N1    A    
C48   N3    S    
C31   C35   A    
C37   C41   S    
C18   C33   A    
N10   H31   S    
C46   H16   S    
C37   H6    S    
O2    Zn2   S    
C51   O11   S    
C30   H24   S    
C52   H2    S    
C11   C29   A    
C43   H13   S    
N5    H26   S    
C25   H4    S    
O6    Zn2   S    
C27   C28   A    
C14   C15   A    
O4    Zn2   S    
C19   N2    A    
C59   N12   T    
C36   N9    S    
