data_mof_unit_10150.cif
_audit_creation_date              2012-12-10T17:23:10-0500
_audit_creation_method            fapswitch 2.2
_symmetry_space_group_name_H-M    P1
_symmetry_Int_Tables_number       1
_space_group_crystal_system       triclinic
_cell_length_a                    15.859524
_cell_length_b                    10.852277
_cell_length_c                    9.617357
_cell_angle_alpha                 88.926051
_cell_angle_beta                  89.96631
_cell_angle_gamma                 92.454322
_cell_volume                      1653.45153334

loop_
_atom_site_label
_atom_site_type_symbol
_atom_type_description
_atom_site_fract_x
_atom_site_fract_y
_atom_site_fract_z
_atom_type_partial_charge
C1    C     C_R   0.502621 0.261901 0.502273 0.816731
C2    C     C_3   0.082806 0.500822 0.500335 0.120115
C3    C     C_3   0.975359 0.610206 0.546383 -0.212680
C4    C     C_3   0.917218 0.501731 0.499881 0.108630
C5    C     C_3   0.031122 0.592802 0.416320 -0.137712
C6    C     C_3   0.971594 0.484215 0.369934 -0.205579
C7    C     C_1   0.174547 0.500455 0.500232 -0.035621
C8    C     C_1   0.825446 0.501647 0.499832 0.006454
C9    C     C_R   0.508400 0.104383 0.768415 -0.144430
C10   C     C_R   0.481869 0.038658 0.887786 -0.157827
C11   C     C_R   0.440299 0.924033 0.875665 -0.143287
C12   C     C_R   0.339954 0.499642 0.500025 0.815851
C13   C     C_R   0.433122 0.869908 0.746814 -0.129086
C14   C     C_R   0.466972 0.930271 0.626771 0.058559
C15   C     C_R   0.492872 0.055937 0.634217 0.092534
C16   C     C_R   0.500207 0.126234 0.507599 -0.161331
C17   C     C_R   0.489706 0.066584 0.380553 -0.207523
C18   C     C_R   0.474964 0.939829 0.374794 0.168327
C19   C     C_R   0.473532 0.869146 0.499050 -0.135945
C20   C     C_R   0.610902 0.665088 0.140595 -0.154173
C21   C     C_R   0.664694 0.746777 0.067040 -0.213940
C22   C     C_R   0.664951 0.746835 0.923787 -0.184812
C23   C     C_R   0.489405 0.735967 0.499017 0.783114
C24   C     C_R   0.611478 0.665141 0.853147 -0.122847
C25   C     C_R   0.554554 0.581327 0.923653 0.205359
C26   C     C_R   0.554417 0.581312 0.073093 0.207879
C27   C     C_R   0.448373 0.422302 0.075493 -0.062508
C28   C     C_R   0.448394 0.422337 0.927742 -0.078020
C29   C     C_R   0.660031 0.500515 0.499978 0.810465
C30   C     C_3   0.969547 0.410951 0.582813 0.433840
C31   C     C_3   0.024899 0.392114 0.453769 -0.185926
C32   C     C_1   0.250159 0.500064 0.500125 -0.176369
C33   C     C_1   0.749827 0.501201 0.499885 -0.150975
C34   C     C_3   0.028690 0.518359 0.630576 -0.187494
Cu1   Cu    Cu3+1 0.499990 0.499990 0.640660 0.930904
Cu2   Cu    Cu3+1 0.500010 0.500010 0.359340 0.933864
H1    H     H_    0.046201 0.302301 0.416686 0.159357
H2    H     H_    0.414842 0.874324 0.965182 0.142839
H3    H     H_    0.398959 0.781651 0.741744 0.157057
H4    H     H_    0.406029 0.358453 0.131813 0.138440
H5    H     H_    0.616125 0.672281 0.250088 0.205413
H6    H     H_    0.706725 0.810281 0.121948 0.160921
H7    H     H_    0.707331 0.810214 0.866612 0.160740
H8    H     H_    0.618064 0.671762 0.743492 0.198770
H9    H     H_    0.406126 0.358473 0.874062 0.145548
H10   H     H_    0.947005 0.470539 0.263031 0.164318
H11   H     H_    0.057921 0.667912 0.347546 0.146328
H12   H     H_    0.953846 0.699705 0.584040 0.158572
H13   H     H_    0.053082 0.531493 0.737689 0.156836
H14   H     H_    0.490463 0.119277 0.283605 0.168758
H15   H     H_    0.543076 0.190311 0.785080 0.174702
H16   H     H_    0.492031 0.078115 0.989258 0.136007
N1    N     N_R   0.500800 0.501210 0.147910 -0.197965
N2    N     N_R   0.500830 0.501290 0.852040 -0.203042
O1    O     O_R   0.499990 0.319640 0.618810 -0.591103
O2    O     O_R   0.500000 0.319660 0.381240 -0.580753
O3    O     O_R   0.379070 0.499980 0.618770 -0.577957
O4    O     O_R   0.379080 0.500000 0.381190 -0.576245
O5    O     O_R   0.500000 0.680340 0.618760 -0.611556
O6    O     O_R   0.500010 0.680360 0.381190 -0.593341
O7    O     O_R   0.620920 0.500000 0.618810 -0.585643
O8    O     O_R   0.620930 0.500020 0.381230 -0.588520
C35   C     C_3   0.450923 0.887305 0.236360 -0.849520
H17   H     H_    0.408234 0.803995 0.247107 0.249510
H18   H     H_    0.414043 0.955419 0.177429 0.206674
H19   H     H_    0.508425 0.867303 0.176741 0.247314
Cl1   Cl    Cl    0.927675 0.290043 0.693599 -0.627001

loop_
_geom_bond_atom_site_label_1
_geom_bond_atom_site_label_2
_ccdc_geom_bond_type
C17   H14   S    
C11   H2    S    
C19   C23   S    
C24   C25   A    
C35   H18   S    
Cu2   O2    S    
Cu2   N1    S    
C11   C13   A    
C9    C10   A    
C22   H7    S    
C9    H15   S    
C4    C8    S    
C27   H4    S    
Cu1   O3    S    
C10   H16   S    
C2    C34   S    
C27   N1    A    
C20   H5    S    
C1    O1    A    
C35   H19   S    
C12   O4    A    
C28   H9    S    
Cu1   O7    S    
C1    C16   S    
C13   C14   A    
C12   C32   S    
Cu1   N2    S    
C23   O5    A    
C5    H11   S    
C30   C31   S    
C5    C6    S    
C30   Cl1   S    
C20   C26   A    
C25   N2    A    
Cu2   O8    S    
C12   O3    A    
Cu1   O5    S    
C1    O2    A    
C17   C18   A    
Cu2   O4    S    
C8    C33   T    
C9    C15   A    
C23   O6    A    
C24   H8    S    
C22   C24   A    
C18   C35   S    
C13   H3    S    
C2    C5    S    
C29   O7    A    
C30   C34   S    
C35   H17   S    
Cu1   O1    S    
C15   C16   A    
C26   N1    A    
C29   C33   S    
C3    H12   S    
C20   C21   A    
C4    C6    S    
C18   C19   A    
C10   C11   A    
C27   C28   A    
C28   N2    A    
C29   O8    A    
C16   C17   A    
C34   H13   S    
C6    C31   S    
C7    C32   T    
C6    H10   S    
C3    C34   S    
Cu2   O6    S    
C25   C26   A    
C21   C22   A    
C14   C15   A    
C14   C19   A    
C21   H6    S    
C4    C30   S    
C3    C4    S    
C2    C7    S    
C31   H1    S    
C2    C31   S    
C3    C5    S    
Cu1   Cu2   S    
