data_mof_unit_17781.cif
_audit_creation_date              2012-12-10T19:18:00-0500
_audit_creation_method            fapswitch 2.2
_symmetry_space_group_name_H-M    P1
_symmetry_Int_Tables_number       1
_space_group_crystal_system       triclinic
_cell_length_a                    24.590661
_cell_length_b                    24.643247
_cell_length_c                    22.375681
_cell_angle_alpha                 89.818269
_cell_angle_beta                  89.987514
_cell_angle_gamma                 90.0498
_cell_volume                      13559.4487971

loop_
_atom_site_label
_atom_site_type_symbol
_atom_type_description
_atom_site_fract_x
_atom_site_fract_y
_atom_site_fract_z
_atom_type_partial_charge
C1    C     C_R   0.237316 0.280359 0.241726 -0.127616
C2    C     C_R   0.773098 0.729912 0.747401 -0.174175
C3    C     C_R   0.270596 0.771582 0.247753 -0.165850
C4    C     C_R   0.731438 0.225535 0.746121 -0.198113
C5    C     C_R   0.770773 0.728733 0.247147 -0.214985
C6    C     C_R   0.229565 0.272891 0.751890 -0.206818
C7    C     C_R   0.718200 0.238407 0.238238 -0.190780
C8    C     C_R   0.265585 0.777228 0.744098 -0.207836
C9    C     C_R   0.774656 0.267646 0.745630 -0.191819
C10   C     C_R   0.228187 0.728719 0.245783 -0.179341
C11   C     C_R   0.730585 0.772857 0.747571 -0.168737
C12   C     C_R   0.278484 0.235970 0.244074 -0.156997
C13   C     C_R   0.221733 0.735390 0.740485 -0.188493
C14   C     C_R   0.762307 0.280000 0.244973 -0.200874
C15   C     C_R   0.272143 0.230069 0.752544 -0.208704
C16   C     C_R   0.728200 0.771415 0.247589 -0.202144
C17   C     C_1   0.999994 0.500012 0.473277 -0.161944
C18   C     C_1   0.000005 0.500011 0.526724 -0.160464
C19   C     C_1   0.500004 0.999928 0.473270 -0.160924
C20   C     C_1   0.500004 0.000073 0.526730 -0.159497
C21   C     C_1   0.499995 0.000018 0.973277 -0.159598
C22   C     C_1   0.500004 0.000020 0.026725 -0.159626
C23   C     C_1   0.000013 0.499922 0.973270 -0.159311
C24   C     C_1   0.000015 0.500067 0.026730 -0.157028
C25   C     C_R   0.000009 0.500053 0.090138 0.826654
C26   C     C_R   0.000006 0.499944 0.909862 0.829501
C27   C     C_R   0.500003 0.000012 0.090110 0.828966
C28   C     C_R   0.499996 0.000009 0.909891 0.829844
C29   C     C_R   0.500003 0.000054 0.590138 0.829130
C30   C     C_R   0.500001 0.999946 0.409862 0.829973
C31   C     C_R   0.000004 0.500004 0.590110 0.828093
C32   C     C_R   0.999996 0.500009 0.409890 0.831390
C33   C     C_R   0.105144 0.605196 0.249900 0.935057
C34   C     C_R   0.894839 0.394618 0.749908 0.902574
C35   C     C_R   0.605285 0.894954 0.250239 0.944950
C36   C     C_R   0.394851 0.105390 0.750260 0.909166
C37   C     C_R   0.894636 0.394868 0.250491 0.944860
C38   C     C_R   0.104988 0.605423 0.749419 0.903818
C39   C     C_R   0.395066 0.105553 0.249641 0.920529
C40   C     C_R   0.605230 0.894747 0.750328 0.907624
C41   C     C_R   0.895049 0.605299 0.749647 0.935143
C42   C     C_R   0.105992 0.395485 0.248594 0.901510
C43   C     C_R   0.394625 0.895017 0.750145 0.941861
C44   C     C_R   0.604983 0.105412 0.249322 0.897680
C45   C     C_R   0.105622 0.395361 0.750879 0.936999
C46   C     C_R   0.894758 0.605363 0.249992 0.908424
C47   C     C_R   0.605282 0.105075 0.749959 0.936331
C48   C     C_R   0.394487 0.894970 0.250262 0.902258
C49   C     C_R   0.196168 0.278912 0.197744 0.392846
C50   C     C_R   0.828542 0.743175 0.740303 0.392085
C51   C     C_R   0.264714 0.819546 0.213755 0.396344
C52   C     C_R   0.744183 0.169718 0.742030 0.405119
C53   C     C_R   0.818198 0.734363 0.211881 0.395128
C54   C     C_R   0.173830 0.259185 0.746685 0.398858
C55   C     C_R   0.729648 0.188504 0.209093 0.420780
C56   C     C_R   0.254737 0.833322 0.736748 0.404146
C57   C     C_R   0.821258 0.262317 0.781841 0.357640
C58   C     C_R   0.172910 0.742631 0.251622 0.373188
C59   C     C_R   0.737568 0.820547 0.781351 0.375349
C60   C     C_R   0.261170 0.181385 0.240780 0.367497
C61   C     C_R   0.171347 0.742582 0.769877 0.356652
C62   C     C_R   0.815983 0.262719 0.257738 0.402941
C63   C     C_R   0.264947 0.181658 0.785454 0.350942
C64   C     C_R   0.742704 0.826669 0.253608 0.393786
C65   C     C_R   0.681519 0.765674 0.715730 0.392607
C66   C     C_R   0.334653 0.247066 0.247863 0.396601
C67   C     C_R   0.768450 0.314913 0.710550 0.372671
C68   C     C_R   0.242287 0.673355 0.240415 0.417077
C69   C     C_R   0.320516 0.236953 0.719596 0.378001
C70   C     C_R   0.672419 0.757569 0.243468 0.393206
C71   C     C_R   0.231523 0.685700 0.710551 0.409040
C72   C     C_R   0.753097 0.336384 0.238506 0.387270
C73   C     C_R   0.317014 0.765178 0.283996 0.357681
C74   C     C_R   0.676250 0.240793 0.751808 0.397206
C75   C     C_R   0.238428 0.324167 0.282096 0.359888
C76   C     C_R   0.758690 0.674758 0.754632 0.385109
C77   C     C_R   0.666002 0.245249 0.263907 0.355953
C78   C     C_R   0.319860 0.761139 0.756234 0.411865
C79   C     C_R   0.764983 0.682192 0.283280 0.392316
C80   C     C_R   0.243679 0.328442 0.757893 0.389905
C81   C     C_R   0.149312 0.311247 0.204450 0.287392
C82   C     C_R   0.868163 0.703405 0.750962 0.262286
C83   C     C_R   0.301453 0.862251 0.221095 0.316813
C84   C     C_R   0.703683 0.131330 0.754135 0.306345
C85   C     C_R   0.861399 0.698267 0.220819 0.312966
C86   C     C_R   0.134869 0.298726 0.759068 0.288255
C87   C     C_R   0.696419 0.143371 0.220323 0.325459
C88   C     C_R   0.295573 0.870968 0.750157 0.305212
C89   C     C_R   0.863367 0.300478 0.776286 0.309309
C90   C     C_R   0.132961 0.702725 0.243712 0.275641
C91   C     C_R   0.699616 0.862784 0.775967 0.303946
C92   C     C_R   0.299596 0.139628 0.234769 0.286718
C93   C     C_R   0.130929 0.702632 0.763612 0.287895
C94   C     C_R   0.859917 0.298768 0.249805 0.279382
C95   C     C_R   0.301849 0.138935 0.778230 0.314465
C96   C     C_R   0.703030 0.866876 0.246565 0.305227
C97   C     C_R   0.638211 0.801316 0.725412 0.304621
C98   C     C_R   0.371180 0.204336 0.258250 0.269099
C99   C     C_R   0.803498 0.358830 0.719018 0.330296
C100  C     C_R   0.202938 0.633781 0.251953 0.298453
C101  C     C_R   0.362910 0.199576 0.725599 0.318326
C102  C     C_R   0.633153 0.797368 0.254223 0.308426
C103  C     C_R   0.197363 0.641332 0.721605 0.317929
C104  C     C_R   0.795084 0.372679 0.252387 0.294409
C105  C     C_R   0.359695 0.802715 0.279195 0.305885
C106  C     C_R   0.635522 0.201968 0.743345 0.309150
C107  C     C_R   0.200650 0.366417 0.273619 0.282678
C108  C     C_R   0.797756 0.634477 0.745292 0.314523
C109  C     C_R   0.626839 0.204235 0.256471 0.294660
C110  C     C_R   0.362249 0.798596 0.748814 0.293962
C111  C     C_R   0.801679 0.639210 0.277258 0.306523
C112  C     C_R   0.203865 0.368256 0.748479 0.305478
C113  C     C_R   0.151306 0.355902 0.243770 -0.376368
C114  C     C_R   0.853284 0.648137 0.748672 -0.389345
C115  C     C_R   0.351210 0.853157 0.250787 -0.405545
C116  C     C_R   0.648529 0.146555 0.749191 -0.401459
C117  C     C_R   0.852243 0.647995 0.249474 -0.409864
C118  C     C_R   0.148559 0.353760 0.752303 -0.394539
C119  C     C_R   0.643724 0.151044 0.243232 -0.406901
C120  C     C_R   0.350485 0.854375 0.749426 -0.398096
C121  C     C_R   0.853330 0.351078 0.748757 -0.408719
C122  C     C_R   0.147432 0.647612 0.248949 -0.387012
C123  C     C_R   0.648047 0.852534 0.750818 -0.400357
C124  C     C_R   0.354747 0.150169 0.247547 -0.379561
C125  C     C_R   0.145300 0.649868 0.745800 -0.401003
C126  C     C_R   0.849715 0.354830 0.250312 -0.381415
C127  C     C_R   0.352883 0.148429 0.751500 -0.403969
C128  C     C_R   0.647621 0.852627 0.250345 -0.394522
O1    O     O_3   0.000000 0.500000 0.250000 -0.504250
O2    O     O_3   0.000000 0.500000 0.750000 -0.502136
O3    O     O_3   0.500000 0.000000 0.250000 -0.500079
O4    O     O_3   0.500000 0.000000 0.750000 -0.502257
O5    O     O_R   0.000000 0.454540 0.117980 -0.636482
O6    O     O_R   0.000000 0.545460 0.882020 -0.645151
O7    O     O_R   0.454540 0.000000 0.117980 -0.642813
O8    O     O_R   0.545460 0.000000 0.882020 -0.643905
O9    O     O_R   0.000000 0.545460 0.117980 -0.645267
O10   O     O_R   0.000000 0.454540 0.882020 -0.640887
O11   O     O_R   0.545460 0.000000 0.117980 -0.643563
O12   O     O_R   0.454540 0.000000 0.882020 -0.643322
O13   O     O_R   0.500000 0.954540 0.617980 -0.641658
O14   O     O_R   0.500000 0.045460 0.382020 -0.648949
O15   O     O_R   0.954540 0.500000 0.617980 -0.642483
O16   O     O_R   0.045460 0.500000 0.382020 -0.644102
O17   O     O_R   0.500000 0.045460 0.617980 -0.643876
O18   O     O_R   0.500000 0.954540 0.382020 -0.641367
O19   O     O_R   0.045460 0.500000 0.617980 -0.644063
O20   O     O_R   0.954540 0.500000 0.382020 -0.644910
O21   O     O_R   0.063990 0.609470 0.215390 -0.642106
O22   O     O_R   0.936010 0.390530 0.784610 -0.614298
O23   O     O_R   0.609470 0.936010 0.215390 -0.647782
O24   O     O_R   0.390530 0.063990 0.784610 -0.613534
O25   O     O_R   0.936010 0.390530 0.215390 -0.626800
O26   O     O_R   0.063990 0.609470 0.784610 -0.618868
O27   O     O_R   0.390530 0.063990 0.215390 -0.644492
O28   O     O_R   0.609470 0.936010 0.784610 -0.612485
O29   O     O_R   0.936010 0.609470 0.784610 -0.649085
O30   O     O_R   0.063990 0.390530 0.215390 -0.596495
O31   O     O_R   0.390530 0.936010 0.784610 -0.648060
O32   O     O_R   0.609470 0.063990 0.215390 -0.615250
O33   O     O_R   0.063990 0.390530 0.784610 -0.627893
O34   O     O_R   0.936010 0.609470 0.215390 -0.614657
O35   O     O_R   0.609470 0.063990 0.784610 -0.645356
O36   O     O_R   0.390530 0.936010 0.215390 -0.612284
O37   O     O_R   0.563990 0.109470 0.715390 -0.645396
O38   O     O_R   0.436010 0.890530 0.284610 -0.614961
O39   O     O_R   0.109470 0.436010 0.715390 -0.649840
O40   O     O_R   0.890530 0.563990 0.284610 -0.612653
O41   O     O_R   0.436010 0.890530 0.715390 -0.646143
O42   O     O_R   0.563990 0.109470 0.284610 -0.621716
O43   O     O_R   0.890530 0.563990 0.715390 -0.644034
O44   O     O_R   0.109470 0.436010 0.284610 -0.621162
O45   O     O_R   0.436010 0.109470 0.284610 -0.644800
O46   O     O_R   0.563990 0.890530 0.715390 -0.615806
O47   O     O_R   0.890530 0.436010 0.284610 -0.651550
O48   O     O_R   0.109470 0.563990 0.715390 -0.615912
O49   O     O_R   0.563990 0.890530 0.284610 -0.644292
O50   O     O_R   0.436010 0.109470 0.715390 -0.611411
O51   O     O_R   0.109470 0.563990 0.284610 -0.649728
O52   O     O_R   0.890530 0.436010 0.715390 -0.611753
Zn1   Zn    Zn3+2 0.064970 0.500000 0.299470 0.956968
Zn2   Zn    Zn3+2 0.935030 0.500000 0.700530 0.962440
Zn3   Zn    Zn3+2 0.500000 0.935030 0.299470 0.963116
Zn4   Zn    Zn3+2 0.500000 0.064970 0.700530 0.963764
Zn5   Zn    Zn3+2 0.935030 0.500000 0.299470 0.961661
Zn6   Zn    Zn3+2 0.064970 0.500000 0.700530 0.958520
Zn7   Zn    Zn3+2 0.500000 0.064970 0.299470 0.951255
Zn8   Zn    Zn3+2 0.500000 0.935030 0.700530 0.962733
Zn9   Zn    Zn3+2 0.564970 0.000000 0.799470 0.962644
Zn10  Zn    Zn3+2 0.435030 0.000000 0.200530 0.958469
Zn11  Zn    Zn3+2 0.000000 0.435030 0.799470 0.967412
Zn12  Zn    Zn3+2 0.000000 0.564970 0.200530 0.961168
Zn13  Zn    Zn3+2 0.435030 0.000000 0.799470 0.963872
Zn14  Zn    Zn3+2 0.564970 0.000000 0.200530 0.961149
Zn15  Zn    Zn3+2 0.000000 0.564970 0.799470 0.955223
Zn16  Zn    Zn3+2 0.000000 0.435030 0.200530 0.984072
O53   O     O_3   0.200204 0.244956 0.148716 -0.606222
C129  C     C_3   0.239459 0.265839 0.108368 0.073199
H1    H     H_    0.251781 0.232265 0.078502 0.158449
H2    H     H_    0.277425 0.279398 0.130931 0.109926
C130  C     C_3   0.216024 0.312309 0.070487 -0.316156
H3    H     H_    0.177130 0.299489 0.049790 0.231911
H4    H     H_    0.207773 0.347946 0.099378 0.211911
C131  C     C_3   0.255530 0.329277 0.021351 -1.034787
H5    H     H_    0.294581 0.342882 0.041286 0.264985
H6    H     H_    0.237902 0.363343 0.995192 0.273713
H7    H     H_    0.263289 0.294826 0.990593 0.263576
O54   O     O_3   0.844294 0.795471 0.725978 -0.584101
C132  C     C_3   0.857334 0.797288 0.664601 0.104990
H8    H     H_    0.822704 0.782601 0.636965 0.098957
H9    H     H_    0.893615 0.771813 0.655194 0.155997
C133  C     C_3   0.869634 0.855840 0.646873 -0.323236
H10   H     H_    0.833202 0.881053 0.655960 0.221844
H11   H     H_    0.904110 0.871389 0.674036 0.235274
C134  C     C_3   0.883830 0.860460 0.580689 -0.995536
H12   H     H_    0.920545 0.836052 0.570287 0.272554
H13   H     H_    0.892152 0.903539 0.569199 0.271666
H14   H     H_    0.849305 0.845958 0.553030 0.265078
O55   O     O_3   0.222947 0.825790 0.173004 -0.600209
C135  C     C_3   0.237575 0.800776 0.118457 0.091781
H15   H     H_    0.216258 0.761101 0.115447 0.125262
H16   H     H_    0.282260 0.793400 0.113445 0.109353
C136  C     C_3   0.219224 0.836700 0.066544 -0.291923
H17   H     H_    0.174408 0.842149 0.068342 0.220225
H18   H     H_    0.238704 0.877264 0.070480 0.241395
C137  C     C_3   0.234827 0.811706 0.006655 -1.040301
H19   H     H_    0.279663 0.807193 0.003431 0.274379
H20   H     H_    0.221105 0.838546 0.969866 0.275595
H21   H     H_    0.215212 0.771382 0.001330 0.262321
O56   O     O_3   0.795901 0.151324 0.728302 -0.586374
C138  C     C_3   0.808027 0.163892 0.667921 0.095767
H22   H     H_    0.827981 0.204321 0.665709 0.133283
H23   H     H_    0.771230 0.164501 0.638594 0.099317
C139  C     C_3   0.846888 0.121249 0.642908 -0.330213
H24   H     H_    0.881284 0.114597 0.674227 0.238668
H25   H     H_    0.824711 0.082315 0.637559 0.222841
C140  C     C_3   0.869224 0.138448 0.582181 -0.987691
H26   H     H_    0.835247 0.144258 0.550146 0.270581
H27   H     H_    0.896683 0.106448 0.564749 0.271726
H28   H     H_    0.892592 0.176872 0.586170 0.266246
O57   O     O_3   0.825489 0.777400 0.172613 -0.592979
C141  C     C_3   0.794703 0.768547 0.120002 0.078108
H29   H     H_    0.790299 0.808092 0.096652 0.158600
H30   H     H_    0.752706 0.754776 0.129801 0.105551
C142  C     C_3   0.823213 0.728995 0.077285 -0.315688
H31   H     H_    0.860994 0.748102 0.059829 0.229710
H32   H     H_    0.834565 0.691117 0.101160 0.225436
C143  C     C_3   0.786202 0.713645 0.025182 -1.037449
H33   H     H_    0.750647 0.690216 0.041826 0.269104
H34   H     H_    0.808990 0.688099 0.992976 0.270887
H35   H     H_    0.771345 0.750377 0.001560 0.267820
O58   O     O_3   0.155878 0.207437 0.732821 -0.575215
C144  C     C_3   0.170603 0.194679 0.673263 0.106343
H36   H     H_    0.210479 0.173576 0.673373 0.135861
H37   H     H_    0.173629 0.231160 0.643603 0.092162
C145  C     C_3   0.127826 0.156932 0.646478 -0.328833
H38   H     H_    0.119607 0.122744 0.677643 0.241252
H39   H     H_    0.089438 0.179851 0.639814 0.222916
C146  C     C_3   0.146370 0.134330 0.586413 -0.994264
H40   H     H_    0.153863 0.167917 0.554206 0.263621
H41   H     H_    0.114280 0.107436 0.567991 0.272512
H42   H     H_    0.184256 0.110316 0.591982 0.259740
O59   O     O_3   0.775188 0.181135 0.173351 -0.597473
C147  C     C_3   0.770781 0.212168 0.120136 0.069289
H43   H     H_    0.810659 0.210346 0.097006 0.156190
H44   H     H_    0.763790 0.255745 0.129382 0.109608
C148  C     C_3   0.727417 0.189509 0.077339 -0.332537
H45   H     H_    0.740090 0.148615 0.061850 0.233860
H46   H     H_    0.687606 0.185588 0.100418 0.211391
C149  C     C_3   0.719576 0.226802 0.023440 -1.022564
H47   H     H_    0.703065 0.266521 0.038024 0.265770
H48   H     H_    0.690452 0.208092 0.991657 0.269676
H49   H     H_    0.758727 0.233765 0.000124 0.267064
O60   O     O_3   0.204551 0.852933 0.718689 -0.573767
C150  C     C_3   0.197212 0.842412 0.657072 0.101881
H50   H     H_    0.177886 0.801929 0.651649 0.142510
H51   H     H_    0.236201 0.843643 0.631385 0.102970
C151  C     C_3   0.159631 0.885291 0.630097 -0.317479
H52   H     H_    0.120683 0.886422 0.655206 0.233293
H53   H     H_    0.179340 0.925678 0.633329 0.226836
C152  C     C_3   0.148100 0.873759 0.564366 -0.996655
H54   H     H_    0.186472 0.875320 0.538208 0.263673
H55   H     H_    0.119756 0.904835 0.546406 0.277166
H56   H     H_    0.129268 0.833129 0.558989 0.263801
O61   O     O_3   0.828596 0.216568 0.816911 -0.607479
C153  C     C_3   0.829812 0.230184 0.878379 0.108108
H57   H     H_    0.791191 0.215890 0.898819 0.132864
H58   H     H_    0.833124 0.274560 0.887816 0.122939
C154  C     C_3   0.877798 0.201072 0.907994 -0.289703
H59   H     H_    0.878786 0.157972 0.893552 0.227152
H60   H     H_    0.916285 0.220690 0.893556 0.239925
C155  C     C_3   0.874400 0.202912 0.976032 -1.027713
H61   H     H_    0.870414 0.245439 0.991745 0.265372
H62   H     H_    0.911918 0.185176 0.995573 0.269722
H63   H     H_    0.839106 0.178673 0.991811 0.276379
O62   O     O_3   0.157756 0.795522 0.263347 -0.594198
C156  C     C_3   0.145667 0.799723 0.324821 0.093285
H64   H     H_    0.179756 0.783808 0.352803 0.113608
H65   H     H_    0.107822 0.776794 0.335496 0.163399
C157  C     C_3   0.137251 0.859348 0.340307 -0.336837
H66   H     H_    0.176086 0.881441 0.333137 0.217525
H67   H     H_    0.105732 0.877161 0.310536 0.239015
C158  C     C_3   0.119712 0.866103 0.405218 -0.985016
H68   H     H_    0.079912 0.845906 0.412972 0.271993
H69   H     H_    0.115548 0.909927 0.415636 0.270327
H70   H     H_    0.150628 0.848128 0.435512 0.269695
O63   O     O_3   0.784565 0.828844 0.813845 -0.604937
C159  C     C_3   0.774112 0.825305 0.875863 0.098114
H71   H     H_    0.790013 0.785661 0.892002 0.140558
H72   H     H_    0.730142 0.827517 0.888280 0.114205
C160  C     C_3   0.804268 0.871582 0.907069 -0.298171
H73   H     H_    0.845920 0.875651 0.888291 0.228996
H74   H     H_    0.782278 0.910246 0.898854 0.228569
C161  C     C_3   0.808735 0.862204 0.974193 -1.012621
H75   H     H_    0.767684 0.858024 0.994417 0.261645
H76   H     H_    0.829910 0.897199 0.994833 0.276068
H77   H     H_    0.832990 0.825192 0.983471 0.279457
O64   O     O_3   0.206334 0.168822 0.240418 -0.607462
C162  C     C_3   0.190736 0.154087 0.298990 0.087031
H78   H     H_    0.197712 0.188384 0.330489 0.118785
H79   H     H_    0.214167 0.118023 0.314580 0.162558
C163  C     C_3   0.130191 0.140016 0.299406 -0.342474
H80   H     H_    0.106082 0.177208 0.290276 0.199804
H81   H     H_    0.121402 0.109951 0.263749 0.234043
C164  C     C_3   0.112696 0.116529 0.359594 -0.966634
H82   H     H_    0.134951 0.078218 0.368955 0.268595
H83   H     H_    0.068436 0.107604 0.358680 0.266514
H84   H     H_    0.120872 0.146055 0.395925 0.262741
O65   O     O_3   0.159327 0.791269 0.797566 -0.595074
C165  C     C_3   0.144835 0.783337 0.858188 0.112917
H85   H     H_    0.181040 0.791796 0.886223 0.125450
H86   H     H_    0.130956 0.741454 0.869550 0.144054
C166  C     C_3   0.099323 0.823031 0.873801 -0.294297
H87   H     H_    0.112034 0.865066 0.862361 0.226359
H88   H     H_    0.062630 0.813005 0.847020 0.236590
C167  C     C_3   0.084885 0.820303 0.939932 -1.010967
H89   H     H_    0.072968 0.778302 0.952329 0.270122
H90   H     H_    0.050269 0.847908 0.949255 0.276948
H91   H     H_    0.120056 0.833065 0.967563 0.278313
O66   O     O_3   0.826565 0.209703 0.274108 -0.614115
C168  C     C_3   0.815505 0.202542 0.335669 0.050005
H92   H     H_    0.806465 0.158886 0.342870 0.162489
H93   H     H_    0.778800 0.225168 0.351116 0.113581
C169  C     C_3   0.865210 0.217953 0.373324 -0.309929
H94   H     H_    0.902288 0.199065 0.354078 0.238517
H95   H     H_    0.870516 0.262734 0.372779 0.216271
C170  C     C_3   0.858842 0.198892 0.437807 -1.007321
H96   H     H_    0.821133 0.215760 0.457647 0.267318
H97   H     H_    0.894208 0.212755 0.464577 0.274747
H98   H     H_    0.857049 0.153872 0.439590 0.269713
O67   O     O_3   0.218548 0.172519 0.818675 -0.585348
C171  C     C_3   0.228037 0.187552 0.878475 0.108146
H99   H     H_    0.223303 0.232307 0.882662 0.113298
H100  H     H_    0.269437 0.175775 0.894455 0.123670
C172  C     C_3   0.186217 0.158679 0.917937 -0.320568
H101  H     H_    0.144828 0.163673 0.898886 0.228238
H102  H     H_    0.195474 0.114531 0.919244 0.225607
C173  C     C_3   0.186712 0.181005 0.981261 -1.003051
H103  H     H_    0.227194 0.174235 0.001784 0.269341
H104  H     H_    0.155395 0.160003 0.008500 0.282179
H105  H     H_    0.177330 0.225027 0.980686 0.267415
O68   O     O_3   0.795526 0.842601 0.265724 -0.598498
C174  C     C_3   0.808737 0.829844 0.325771 0.111388
H106  H     H_    0.834292 0.792688 0.326331 0.131307
H107  H     H_    0.772527 0.822437 0.354996 0.104116
C175  C     C_3   0.841065 0.876768 0.352535 -0.321868
H108  H     H_    0.876741 0.886072 0.323797 0.234228
H109  H     H_    0.814743 0.913331 0.354345 0.228245
C176  C     C_3   0.860569 0.863255 0.415559 -0.996132
H110  H     H_    0.825221 0.855060 0.445156 0.262040
H111  H     H_    0.883763 0.898120 0.433869 0.277006
H112  H     H_    0.887484 0.827085 0.414947 0.261485
O69   O     O_3   0.674321 0.722558 0.677099 -0.603110
C177  C     C_3   0.694682 0.736985 0.619960 0.059748
H113  H     H_    0.707724 0.699202 0.597195 0.156863
H114  H     H_    0.731409 0.763445 0.622069 0.107681
C178  C     C_3   0.650488 0.764090 0.581860 -0.283902
H115  H     H_    0.614787 0.736576 0.578345 0.235354
H116  H     H_    0.637181 0.802527 0.603016 0.236585
C179  C     C_3   0.671615 0.777201 0.519397 -1.041616
H117  H     H_    0.706973 0.805193 0.521952 0.265895
H118  H     H_    0.639091 0.797027 0.492775 0.271947
H119  H     H_    0.684151 0.739367 0.496658 0.266503
O70   O     O_3   0.353622 0.299951 0.246373 -0.564029
C180  C     C_3   0.382024 0.310707 0.192535 0.144431
H120  H     H_    0.356987 0.338200 0.164388 0.127739
H121  H     H_    0.390720 0.273962 0.165032 0.061067
C181  C     C_3   0.436259 0.338523 0.206423 -0.333479
H122  H     H_    0.462592 0.309859 0.231345 0.243707
H123  H     H_    0.456934 0.349038 0.163784 0.176450
C182  C     C_3   0.429647 0.390201 0.243212 -0.842118
H124  H     H_    0.407176 0.421275 0.217282 0.250041
H125  H     H_    0.470424 0.406771 0.254218 0.231004
H126  H     H_    0.407795 0.381768 0.285675 0.286897
O71   O     O_3   0.727312 0.319728 0.668833 -0.603809
C183  C     C_3   0.743787 0.294222 0.615160 0.088710
H127  H     H_    0.725812 0.252847 0.613677 0.121541
H128  H     H_    0.788934 0.290363 0.610348 0.114274
C184  C     C_3   0.722897 0.327120 0.561915 -0.293540
H129  H     H_    0.677802 0.328871 0.563141 0.223161
H130  H     H_    0.738851 0.369264 0.564709 0.240097
C185  C     C_3   0.741056 0.302102 0.502879 -1.034164
H131  H     H_    0.786142 0.301254 0.500262 0.273799
H132  H     H_    0.725656 0.326831 0.465074 0.272919
H133  H     H_    0.724878 0.260194 0.498563 0.262892
O72   O     O_3   0.294968 0.656850 0.228594 -0.564690
C186  C     C_3   0.308768 0.667917 0.168283 0.142518
H134  H     H_    0.345975 0.693504 0.167499 0.133538
H135  H     H_    0.277106 0.690445 0.142622 0.034529
C187  C     C_3   0.319936 0.614874 0.135294 -0.358999
H136  H     H_    0.282328 0.589876 0.135031 0.217577
H137  H     H_    0.330937 0.624300 0.088199 0.168909
C188  C     C_3   0.366125 0.582657 0.163994 -0.789250
H138  H     H_    0.403464 0.607725 0.166371 0.248752
H139  H     H_    0.375167 0.546414 0.136476 0.231066
H140  H     H_    0.354584 0.569111 0.209671 0.286384
O73   O     O_3   0.327177 0.279949 0.680650 -0.599567
C189  C     C_3   0.303665 0.266250 0.625040 0.099696
H141  H     H_    0.262524 0.284784 0.622320 0.119956
H142  H     H_    0.299349 0.221524 0.617621 0.114588
C190  C     C_3   0.339146 0.289065 0.575036 -0.299026
H143  H     H_    0.340427 0.334024 0.578089 0.217607
H144  H     H_    0.381311 0.273375 0.579829 0.242197
C191  C     C_3   0.316993 0.272695 0.514173 -1.038404
H145  H     H_    0.319939 0.228063 0.508206 0.271871
H146  H     H_    0.341148 0.292915 0.478707 0.282071
H147  H     H_    0.273802 0.285279 0.509917 0.258994
O74   O     O_3   0.654872 0.705099 0.232226 -0.592795
C192  C     C_3   0.665844 0.691588 0.171986 0.103383
H148  H     H_    0.707570 0.674600 0.168773 0.139150
H149  H     H_    0.662134 0.727114 0.141108 0.102089
C193  C     C_3   0.625266 0.648784 0.150858 -0.330073
H150  H     H_    0.620226 0.616983 0.185606 0.242388
H151  H     H_    0.585197 0.668207 0.143241 0.222373
C194  C     C_3   0.643728 0.622677 0.092539 -0.999812
H152  H     H_    0.647918 0.654081 0.057140 0.272699
H153  H     H_    0.613129 0.592321 0.077965 0.273496
H154  H     H_    0.683365 0.601823 0.098798 0.263069
O75   O     O_3   0.276325 0.678083 0.673876 -0.602645
C195  C     C_3   0.268917 0.706506 0.619327 0.066997
H155  H     H_    0.309245 0.710630 0.597485 0.158933
H156  H     H_    0.254296 0.748538 0.626265 0.109451
C196  C     C_3   0.231189 0.675695 0.576450 -0.314270
H157  H     H_    0.251826 0.638112 0.561131 0.229271
H158  H     H_    0.192925 0.663901 0.599424 0.224350
C197  C     C_3   0.216287 0.710687 0.522451 -1.037797
H159  H     H_    0.190693 0.745440 0.536733 0.267918
H160  H     H_    0.193019 0.686080 0.489745 0.268610
H161  H     H_    0.253357 0.726680 0.500326 0.266277
O76   O     O_3   0.703550 0.357518 0.220756 -0.565307
C198  C     C_3   0.699185 0.352919 0.158013 0.111148
H162  H     H_    0.690860 0.310097 0.145899 0.130243
H163  H     H_    0.736969 0.366882 0.134883 0.111790
C199  C     C_3   0.651896 0.387737 0.135864 -0.311873
H164  H     H_    0.614425 0.377415 0.161189 0.235501
H165  H     H_    0.661343 0.431176 0.143269 0.224915
C200  C     C_3   0.641744 0.379253 0.069323 -1.010824
H166  H     H_    0.678337 0.390919 0.043135 0.273433
H167  H     H_    0.607041 0.404819 0.054653 0.272319
H168  H     H_    0.631775 0.336125 0.060275 0.273850
O77   O     O_3   0.324518 0.717856 0.316300 -0.607643
C201  C     C_3   0.324351 0.727850 0.378438 0.118675
H169  H     H_    0.286124 0.710582 0.396959 0.141127
H170  H     H_    0.325817 0.771683 0.390982 0.115169
C202  C     C_3   0.373126 0.698796 0.406314 -0.297824
H171  H     H_    0.376609 0.657174 0.387749 0.229459
H172  H     H_    0.410805 0.721348 0.394850 0.235375
C203  C     C_3   0.368424 0.694732 0.474026 -1.019281
H173  H     H_    0.364813 0.735769 0.494022 0.263112
H174  H     H_    0.405293 0.674489 0.491892 0.277589
H175  H     H_    0.332592 0.669864 0.486682 0.278341
O78   O     O_3   0.660935 0.293617 0.764089 -0.600598
C204  C     C_3   0.674753 0.306863 0.823829 0.100796
H176  H     H_    0.708674 0.336631 0.822941 0.137662
H177  H     H_    0.688150 0.271520 0.851697 0.107452
C205  C     C_3   0.625590 0.332625 0.854200 -0.328891
H178  H     H_    0.610674 0.367269 0.826851 0.238511
H179  H     H_    0.592569 0.301984 0.857775 0.228722
C206  C     C_3   0.639730 0.352700 0.916691 -0.994818
H180  H     H_    0.653620 0.318361 0.945095 0.273299
H181  H     H_    0.603131 0.371042 0.937484 0.277368
H182  H     H_    0.672293 0.383905 0.914450 0.262709
O79   O     O_3   0.282404 0.329410 0.320478 -0.602249
C207  C     C_3   0.268423 0.350132 0.377192 0.126195
H183  H     H_    0.273480 0.316851 0.409919 0.133343
H184  H     H_    0.225664 0.364288 0.382074 0.146997
C208  C     C_3   0.307715 0.396202 0.392169 -0.281716
H185  H     H_    0.350209 0.380952 0.390323 0.211543
H186  H     H_    0.303414 0.429291 0.358669 0.247606
C209  C     C_3   0.296839 0.418973 0.454074 -1.021143
H187  H     H_    0.254665 0.434862 0.456848 0.272467
H188  H     H_    0.325809 0.452472 0.463390 0.279426
H189  H     H_    0.302496 0.386904 0.488336 0.280100
O80   O     O_3   0.706615 0.659082 0.770332 -0.601216
C210  C     C_3   0.697562 0.670345 0.831622 0.092351
H190  H     H_    0.670310 0.706163 0.835025 0.133306
H191  H     H_    0.735364 0.679533 0.857584 0.108539
C211  C     C_3   0.669988 0.621371 0.860682 -0.312680
H192  H     H_    0.632343 0.611030 0.835739 0.234508
H193  H     H_    0.697922 0.585999 0.858713 0.229653
C212  C     C_3   0.655656 0.632565 0.925820 -0.996877
H194  H     H_    0.693065 0.641506 0.951827 0.270817
H195  H     H_    0.635583 0.596328 0.945562 0.276223
H196  H     H_    0.627382 0.667565 0.929004 0.261520
O81   O     O_3   0.650798 0.294068 0.289119 -0.571462
C213  C     C_3   0.639332 0.287173 0.350608 0.121806
H197  H     H_    0.677797 0.290936 0.376282 0.115974
H198  H     H_    0.620790 0.247094 0.361871 0.143794
C214  C     C_3   0.599402 0.331304 0.369761 -0.292497
H199  H     H_    0.615004 0.371815 0.356231 0.229993
H200  H     H_    0.559886 0.324593 0.346806 0.231680
C215  C     C_3   0.590323 0.330662 0.437125 -1.010976
H201  H     H_    0.577932 0.289557 0.452128 0.272514
H202  H     H_    0.557801 0.359947 0.448967 0.274913
H203  H     H_    0.628124 0.342401 0.460785 0.274140
O82   O     O_3   0.332723 0.708412 0.772405 -0.602755
C216  C     C_3   0.317668 0.699108 0.832723 0.072351
H204  H     H_    0.311263 0.654829 0.838409 0.157978
H205  H     H_    0.278506 0.718797 0.845375 0.111936
C217  C     C_3   0.362987 0.716998 0.875339 -0.311107
H206  H     H_    0.401782 0.697370 0.862137 0.237717
H207  H     H_    0.368271 0.761719 0.872565 0.215392
C218  C     C_3   0.349744 0.701453 0.939805 -1.013061
H208  H     H_    0.310740 0.720178 0.953830 0.265312
H209  H     H_    0.382552 0.716084 0.969810 0.268702
H210  H     H_    0.346578 0.656655 0.944322 0.265493
O83   O     O_3   0.722199 0.677305 0.322916 -0.583370
C219  C     C_3   0.739267 0.693574 0.380689 0.121893
H211  H     H_    0.710911 0.725325 0.396762 0.133722
H212  H     H_    0.780703 0.712276 0.382358 0.046608
C220  C     C_3   0.738114 0.645205 0.423877 -0.337375
H213  H     H_    0.765431 0.612777 0.407194 0.253928
H214  H     H_    0.753681 0.658405 0.468148 0.155210
C221  C     C_3   0.680891 0.622243 0.431956 -0.842102
H215  H     H_    0.654617 0.652363 0.454670 0.253444
H216  H     H_    0.682668 0.585041 0.459946 0.241508
H217  H     H_    0.662651 0.611444 0.388227 0.284971
O84   O     O_3   0.296238 0.345243 0.770139 -0.591825
C222  C     C_3   0.309571 0.332787 0.830162 0.112894
H218  H     H_    0.327456 0.291440 0.832302 0.130857
H219  H     H_    0.273750 0.334400 0.860882 0.103600
C223  C     C_3   0.351547 0.373838 0.852324 -0.315348
H220  H     H_    0.383584 0.379774 0.817961 0.239601
H221  H     H_    0.331235 0.413451 0.859837 0.218793
C224  C     C_3   0.378108 0.355277 0.910489 -1.003275
H222  H     H_    0.347009 0.350741 0.946006 0.276173
H223  H     H_    0.408426 0.385933 0.925008 0.271481
H224  H     H_    0.399212 0.315889 0.904050 0.259380
O85   O     O_3   0.105749 0.305052 0.165696 -0.599151
C225  C     C_3   0.082633 0.252579 0.171462 0.173652
H225  H     H_    0.043646 0.256699 0.195736 0.114835
H226  H     H_    0.107462 0.223415 0.198096 0.161644
C226  C     C_3   0.071830 0.228915 0.109241 -0.297483
H227  H     H_    0.031574 0.243036 0.092862 0.192339
H228  H     H_    0.103128 0.243402 0.077195 0.250876
C227  C     C_3   0.073268 0.166951 0.109805 -0.978765
H229  H     H_    0.115291 0.152583 0.118772 0.292203
H230  H     H_    0.060099 0.151257 0.065651 0.262025
H231  H     H_    0.045984 0.150489 0.144906 0.268022
O86   O     O_3   0.921615 0.719158 0.759159 -0.640007
C228  C     C_3   0.932705 0.722593 0.821318 0.170058
H232  H     H_    0.975581 0.709979 0.828396 0.201975
H233  H     H_    0.907355 0.694573 0.849177 0.125904
C229  C     C_3   0.926366 0.780856 0.843820 -0.365162
H234  H     H_    0.955474 0.807879 0.820271 0.220500
H235  H     H_    0.884695 0.795467 0.834551 0.280526
C230  C     C_3   0.936421 0.784153 0.911000 -0.998692
H236  H     H_    0.904952 0.760617 0.935570 0.268126
H237  H     H_    0.934493 0.827113 0.925633 0.276741
H238  H     H_    0.977144 0.767667 0.922176 0.281420
O87   O     O_3   0.288957 0.912297 0.196753 -0.597275
C231  C     C_3   0.260667 0.943581 0.239846 0.136167
H239  H     H_    0.281899 0.983080 0.243950 0.196252
H240  H     H_    0.260001 0.925781 0.285920 0.081745
C232  C     C_3   0.202206 0.953289 0.218992 -0.317472
H241  H     H_    0.202562 0.970202 0.172928 0.229671
H242  H     H_    0.179814 0.914154 0.218215 0.265706
C233  C     C_3   0.172361 0.992464 0.260274 -1.008617
H243  H     H_    0.170292 0.975949 0.306404 0.263703
H244  H     H_    0.130312 0.998908 0.243668 0.268377
H245  H     H_    0.193575 0.032134 0.261424 0.301935
O88   O     O_3   0.718588 0.078179 0.765140 -0.631636
C234  C     C_3   0.720730 0.069207 0.827863 0.143733
H246  H     H_    0.713093 0.025392 0.835946 0.198025
H247  H     H_    0.688423 0.091411 0.852907 0.130706
C235  C     C_3   0.776550 0.083921 0.853606 -0.370374
H248  H     H_    0.809392 0.065151 0.826765 0.255404
H249  H     H_    0.781748 0.128419 0.851796 0.261132
C236  C     C_3   0.781860 0.065521 0.918541 -0.994688
H250  H     H_    0.750227 0.085211 0.946508 0.271730
H251  H     H_    0.822479 0.077153 0.935978 0.276246
H252  H     H_    0.777582 0.020731 0.921882 0.270053
O89   O     O_3   0.912969 0.713659 0.203362 -0.597753
C237  C     C_3   0.938816 0.739688 0.252274 0.119808
H253  H     H_    0.979275 0.720910 0.258356 0.200609
H254  H     H_    0.917832 0.734596 0.296354 0.077909
C238  C     C_3   0.945408 0.800273 0.239074 -0.306670
H255  H     H_    0.964208 0.805892 0.194402 0.234840
H256  H     H_    0.904839 0.819912 0.238266 0.268252
C239  C     C_3   0.980466 0.827947 0.286317 -1.008777
H257  H     H_    0.961592 0.823593 0.331160 0.269568
H258  H     H_    0.984371 0.871802 0.275628 0.268546
H259  H     H_    0.021688 0.809715 0.287333 0.293772
O90   O     O_3   0.084812 0.283244 0.781333 -0.617677
C240  C     C_3   0.090658 0.278088 0.844193 0.125662
H260  H     H_    0.104681 0.317038 0.864331 0.138365
H261  H     H_    0.120671 0.245851 0.855156 0.155973
C241  C     C_3   0.036448 0.262826 0.872891 -0.315868
H262  H     H_    0.005981 0.294867 0.863060 0.270671
H263  H     H_    0.022285 0.223731 0.854077 0.220832
C242  C     C_3   0.041802 0.256729 0.940595 -1.006306
H264  H     H_    0.070795 0.223712 0.951788 0.271775
H265  H     H_    0.001589 0.246428 0.960162 0.276064
H266  H     H_    0.056258 0.295250 0.960799 0.273597
O91   O     O_3   0.715169 0.092068 0.206532 -0.600404
C243  C     C_3   0.743811 0.070677 0.256369 0.118122
H267  H     H_    0.728609 0.028952 0.264632 0.187938
H268  H     H_    0.737223 0.093090 0.299167 0.081301
C244  C     C_3   0.804782 0.068260 0.242650 -0.306566
H269  H     H_    0.811427 0.047725 0.199247 0.233162
H270  H     H_    0.821474 0.109861 0.238895 0.285037
C245  C     C_3   0.835857 0.038122 0.291499 -1.007099
H271  H     H_    0.830890 0.058951 0.335098 0.263366
H272  H     H_    0.879786 0.037071 0.280075 0.271794
H273  H     H_    0.820783 0.995831 0.295511 0.277149
O92   O     O_3   0.281396 0.924512 0.759423 -0.632537
C246  C     C_3   0.277695 0.934192 0.821904 0.146397
H274  H     H_    0.285395 0.977993 0.829422 0.204277
H275  H     H_    0.309246 0.912230 0.848442 0.131245
C247  C     C_3   0.221338 0.919693 0.846449 -0.370212
H276  H     H_    0.189067 0.934850 0.816100 0.261694
H277  H     H_    0.217833 0.874959 0.849353 0.238825
C248  C     C_3   0.212643 0.943584 0.908622 -1.006602
H278  H     H_    0.245450 0.930243 0.939429 0.275802
H279  H     H_    0.172935 0.929730 0.926738 0.275140
H280  H     H_    0.212517 0.988611 0.906458 0.273648
O93   O     O_3   0.914443 0.287270 0.797290 -0.618507
C249  C     C_3   0.945492 0.265606 0.749590 0.110932
H281  H     H_    0.987719 0.280044 0.755089 0.223520
H282  H     H_    0.932734 0.280080 0.704297 0.088977
C250  C     C_3   0.944621 0.203474 0.751509 -0.332695
H283  H     H_    0.952104 0.188771 0.797649 0.224885
H284  H     H_    0.903982 0.188895 0.737714 0.261385
C251  C     C_3   0.987387 0.179347 0.710095 -0.989009
H285  H     H_    0.980805 0.193479 0.663465 0.262547
H286  H     H_    0.984591 0.134385 0.711154 0.265994
H287  H     H_    0.028660 0.191457 0.725174 0.307838
O94   O     O_3   0.079466 0.718184 0.235835 -0.643772
C252  C     C_3   0.068950 0.724258 0.173796 0.149449
H288  H     H_    0.025605 0.713859 0.166091 0.199842
H289  H     H_    0.092774 0.695726 0.145234 0.117153
C253  C     C_3   0.078805 0.782825 0.153217 -0.355085
H290  H     H_    0.060191 0.811721 0.185120 0.254789
H291  H     H_    0.123047 0.790889 0.151730 0.265892
C254  C     C_3   0.055490 0.792665 0.091034 -1.009513
H292  H     H_    0.074205 0.764115 0.058767 0.271520
H293  H     H_    0.064530 0.834886 0.076672 0.277715
H294  H     H_    0.010697 0.786802 0.091173 0.280725
O95   O     O_3   0.714144 0.914300 0.794097 -0.612713
C255  C     C_3   0.742860 0.940510 0.747094 0.143734
H295  H     H_    0.721806 0.979253 0.737409 0.200122
H296  H     H_    0.743561 0.917948 0.703761 0.084737
C256  C     C_3   0.801490 0.951889 0.766497 -0.325327
H297  H     H_    0.801762 0.969062 0.812271 0.222399
H298  H     H_    0.824928 0.913451 0.767261 0.265553
C257  C     C_3   0.829679 0.991514 0.724141 -1.007739
H299  H     H_    0.829253 0.975927 0.677671 0.259408
H300  H     H_    0.872535 0.997371 0.738343 0.266845
H301  H     H_    0.808811 0.031312 0.725216 0.317280
O96   O     O_3   0.281855 0.087597 0.222539 -0.644090
C258  C     C_3   0.282720 0.078765 0.159910 0.164078
H302  H     H_    0.293610 0.035541 0.152773 0.190967
H303  H     H_    0.314365 0.102975 0.135819 0.109934
C259  C     C_3   0.226724 0.089442 0.132144 -0.361685
H304  H     H_    0.194300 0.072601 0.161331 0.253931
H305  H     H_    0.220226 0.133859 0.127825 0.261447
C260  C     C_3   0.222017 0.063661 0.070402 -0.998047
H306  H     H_    0.253244 0.080755 0.039796 0.273470
H307  H     H_    0.181070 0.071866 0.051618 0.277503
H308  H     H_    0.227469 0.018997 0.073480 0.271734
O97   O     O_3   0.077029 0.716621 0.771894 -0.617194
C261  C     C_3   0.053347 0.727349 0.715202 0.129137
H309  H     H_    0.013183 0.707060 0.713610 0.196563
H310  H     H_    0.076595 0.710630 0.676386 0.090658
C262  C     C_3   0.045619 0.788460 0.706682 -0.324824
H311  H     H_    0.016353 0.803828 0.740288 0.223713
H312  H     H_    0.084976 0.809586 0.713378 0.257511
C263  C     C_3   0.024556 0.801577 0.644207 -0.986527
H313  H     H_    0.054813 0.789208 0.610078 0.262199
H314  H     H_    0.017270 0.845887 0.640028 0.273337
H315  H     H_    0.985956 0.779712 0.635687 0.267974
O98   O     O_3   0.912713 0.279292 0.246474 -0.625657
C264  C     C_3   0.919520 0.249490 0.192665 0.191650
H316  H     H_    0.951515 0.269771 0.165638 0.129552
H317  H     H_    0.882742 0.248537 0.163305 0.119182
C265  C     C_3   0.937757 0.191201 0.206454 -0.319963
H318  H     H_    0.981086 0.191026 0.220152 0.180622
H319  H     H_    0.914282 0.173965 0.244234 0.269590
C266  C     C_3   0.930107 0.154301 0.152391 -0.975478
H320  H     H_    0.886158 0.149507 0.142277 0.293704
H321  H     H_    0.947318 0.113599 0.162202 0.264585
H322  H     H_    0.950929 0.171554 0.112592 0.265375
O99   O     O_3   0.286071 0.087207 0.794494 -0.604414
C267  C     C_3   0.257242 0.063409 0.746203 0.133633
H323  H     H_    0.277027 0.024278 0.735634 0.198275
H324  H     H_    0.258122 0.087120 0.703462 0.079208
C268  C     C_3   0.197934 0.053719 0.764124 -0.302230
H325  H     H_    0.196146 0.035124 0.809302 0.229615
H326  H     H_    0.176030 0.092989 0.765753 0.270310
C269  C     C_3   0.169112 0.016760 0.719755 -1.016060
H327  H     H_    0.170992 0.034195 0.673989 0.269334
H328  H     H_    0.125826 0.011935 0.732861 0.268103
H329  H     H_    0.188605 0.976254 0.719724 0.309200
O100  O     O_3   0.718828 0.920634 0.242721 -0.628869
C270  C     C_3   0.725405 0.935135 0.181718 0.146755
H330  H     H_    0.711632 0.977772 0.176534 0.203934
H331  H     H_    0.699767 0.910834 0.150370 0.111960
C271  C     C_3   0.785172 0.931386 0.162990 -0.346529
H332  H     H_    0.811426 0.950401 0.197377 0.250997
H333  H     H_    0.797075 0.888177 0.159069 0.260121
C272  C     C_3   0.794709 0.959353 0.102956 -0.998698
H334  H     H_    0.768460 0.940928 0.068120 0.271631
H335  H     H_    0.837960 0.954707 0.089705 0.273578
H336  H     H_    0.785260 0.003311 0.106040 0.280893
O101  O     O_3   0.586060 0.784931 0.711388 -0.607084
C273  C     C_3   0.562667 0.760018 0.762637 0.109825
H337  H     H_    0.520876 0.775944 0.767997 0.193773
H338  H     H_    0.583690 0.769491 0.805737 0.085238
C274  C     C_3   0.560347 0.698453 0.754390 -0.317361
H339  H     H_    0.540720 0.688719 0.711157 0.235538
H340  H     H_    0.602128 0.681775 0.753199 0.274320
C275  C     C_3   0.529050 0.671151 0.805114 -1.001701
H341  H     H_    0.549168 0.679302 0.848604 0.268870
H342  H     H_    0.527963 0.626627 0.797773 0.270085
H343  H     H_    0.486683 0.686524 0.806696 0.281714
O102  O     O_3   0.424268 0.216750 0.273235 -0.643155
C276  C     C_3   0.431040 0.214613 0.336133 0.204548
H344  H     H_    0.471727 0.196664 0.344925 0.200177
H345  H     H_    0.400839 0.188066 0.359507 0.107133
C277  C     C_3   0.429782 0.271544 0.363127 -0.365538
H346  H     H_    0.457701 0.298668 0.337958 0.241627
H347  H     H_    0.387906 0.288134 0.360240 0.259204
C278  C     C_3   0.447507 0.270261 0.428464 -1.008500
H348  H     H_    0.421160 0.242359 0.454630 0.276620
H349  H     H_    0.444788 0.311640 0.447738 0.276718
H350  H     H_    0.490113 0.255903 0.431973 0.279149
O103  O     O_3   0.787656 0.409618 0.699542 -0.594975
C279  C     C_3   0.759523 0.435890 0.746722 0.117931
H351  H     H_    0.776352 0.477306 0.751268 0.198225
H352  H     H_    0.764888 0.416761 0.791772 0.080951
C280  C     C_3   0.698839 0.439410 0.732177 -0.316150
H353  H     H_    0.693269 0.458670 0.687684 0.229298
H354  H     H_    0.681211 0.398026 0.730234 0.277265
C281  C     C_3   0.668290 0.471908 0.779427 -1.005290
H355  H     H_    0.672207 0.452103 0.823853 0.269806
H356  H     H_    0.624529 0.474093 0.767475 0.269584
H357  H     H_    0.684739 0.513763 0.782205 0.287372
O104  O     O_3   0.219314 0.581252 0.263293 -0.638044
C282  C     C_3   0.223289 0.573214 0.326033 0.158582
H358  H     H_    0.204980 0.533126 0.336831 0.192216
H359  H     H_    0.200369 0.603670 0.353164 0.114167
C283  C     C_3   0.282895 0.572111 0.345552 -0.349435
H360  H     H_    0.303605 0.536843 0.324814 0.213197
H361  H     H_    0.303706 0.609617 0.330516 0.282506
C284  C     C_3   0.287676 0.568075 0.413403 -0.995074
H362  H     H_    0.270295 0.604877 0.434613 0.269054
H363  H     H_    0.331137 0.564647 0.426296 0.273793
H364  H     H_    0.265507 0.531885 0.430140 0.280402
O105  O     O_3   0.414197 0.213752 0.705964 -0.601220
C285  C     C_3   0.441250 0.242403 0.752189 0.124288
H365  H     H_    0.480968 0.222437 0.759900 0.197619
H366  H     H_    0.420148 0.241802 0.796542 0.082605
C286  C     C_3   0.450322 0.301392 0.733151 -0.304199
H367  H     H_    0.467969 0.302685 0.687508 0.229498
H368  H     H_    0.410765 0.322968 0.731941 0.265710
C287  C     C_3   0.488212 0.330707 0.776342 -1.016224
H369  H     H_    0.471315 0.329888 0.822322 0.273313
H370  H     H_    0.493250 0.373591 0.762018 0.268131
H371  H     H_    0.528663 0.310943 0.776743 0.301339
O106  O     O_3   0.579878 0.781781 0.263731 -0.635405
C288  C     C_3   0.570531 0.776286 0.326122 0.145663
H372  H     H_    0.527627 0.787826 0.334742 0.194935
H373  H     H_    0.595674 0.804273 0.354004 0.117032
C289  C     C_3   0.579213 0.717555 0.346847 -0.351181
H374  H     H_    0.560719 0.688940 0.314578 0.257067
H375  H     H_    0.623307 0.708866 0.348876 0.268543
C290  C     C_3   0.554554 0.707627 0.408531 -1.011079
H376  H     H_    0.574864 0.733523 0.442334 0.277021
H377  H     H_    0.559961 0.664414 0.421303 0.274909
H378  H     H_    0.510361 0.716702 0.408200 0.269970
O107  O     O_3   0.215123 0.589757 0.707763 -0.602001
C291  C     C_3   0.242883 0.567850 0.757936 0.114598
H379  H     H_    0.226170 0.526827 0.766742 0.193055
H380  H     H_    0.237117 0.590814 0.800543 0.078458
C292  C     C_3   0.303721 0.563400 0.744373 -0.304088
H381  H     H_    0.309697 0.542824 0.700907 0.233515
H382  H     H_    0.321811 0.604488 0.740828 0.276727
C293  C     C_3   0.333482 0.531831 0.793099 -1.003355
H383  H     H_    0.329262 0.552619 0.836820 0.261640
H384  H     H_    0.377345 0.528998 0.781766 0.272440
H385  H     H_    0.316604 0.490196 0.796752 0.283220
O108  O     O_3   0.782108 0.426167 0.263783 -0.632039
C294  C     C_3   0.780427 0.434370 0.326656 0.152784
H386  H     H_    0.788074 0.478079 0.335004 0.200456
H387  H     H_    0.812955 0.411993 0.351242 0.132977
C295  C     C_3   0.725120 0.418863 0.353264 -0.377321
H388  H     H_    0.691711 0.435155 0.325304 0.259360
H389  H     H_    0.721584 0.374045 0.354347 0.227881
C296  C     C_3   0.718982 0.440505 0.416783 -1.005526
H390  H     H_    0.751878 0.424441 0.445866 0.276379
H391  H     H_    0.679165 0.427648 0.435408 0.276741
H392  H     H_    0.720686 0.485549 0.416809 0.273836
O109  O     O_3   0.410976 0.787317 0.297562 -0.613945
C297  C     C_3   0.438652 0.763773 0.248380 0.137274
H393  H     H_    0.478354 0.784543 0.243784 0.202206
H394  H     H_    0.418126 0.768967 0.204065 0.079414
C298  C     C_3   0.447579 0.703225 0.259777 -0.328746
H395  H     H_    0.465217 0.697136 0.304902 0.224818
H396  H     H_    0.408079 0.681502 0.258108 0.269054
C299  C     C_3   0.485553 0.678982 0.213171 -1.019446
H397  H     H_    0.467988 0.683607 0.167717 0.259587
H398  H     H_    0.491870 0.635191 0.222675 0.266834
H399  H     H_    0.525442 0.699850 0.214582 0.311303
O110  O     O_3   0.582451 0.218798 0.735265 -0.633153
C300  C     C_3   0.571491 0.222651 0.673096 0.141204
H400  H     H_    0.527616 0.214009 0.666455 0.198230
H401  H     H_    0.593684 0.191861 0.645844 0.121889
C301  C     C_3   0.583868 0.279666 0.649192 -0.354746
H402  H     H_    0.565827 0.310831 0.678762 0.256097
H403  H     H_    0.628404 0.285982 0.648293 0.264730
C302  C     C_3   0.561804 0.287217 0.586055 -1.017133
H404  H     H_    0.580695 0.257213 0.555512 0.270283
H405  H     H_    0.571613 0.328739 0.569953 0.279940
H406  H     H_    0.516932 0.281980 0.585454 0.277097
O111  O     O_3   0.216175 0.419177 0.286221 -0.620233
C303  C     C_3   0.229337 0.445631 0.231502 0.122031
H407  H     H_    0.219325 0.488874 0.235887 0.211321
H408  H     H_    0.204392 0.431889 0.192687 0.109236
C304  C     C_3   0.290011 0.440422 0.217050 -0.368140
H409  H     H_    0.313588 0.469515 0.244624 0.209428
H410  H     H_    0.304408 0.398994 0.227791 0.278257
C305  C     C_3   0.300811 0.451310 0.150899 -0.995006
H411  H     H_    0.280861 0.419754 0.123173 0.267313
H412  H     H_    0.345128 0.450132 0.141837 0.261969
H413  H     H_    0.284783 0.491697 0.137865 0.279576
O112  O     O_3   0.781229 0.581405 0.737077 -0.629463
C306  C     C_3   0.775011 0.571755 0.674860 0.136786
H414  H     H_    0.787348 0.529257 0.665866 0.192927
H415  H     H_    0.801978 0.597468 0.646137 0.112719
C307  C     C_3   0.715666 0.578955 0.655639 -0.348526
H416  H     H_    0.688569 0.554670 0.684878 0.246834
H417  H     H_    0.703832 0.621992 0.660176 0.272819
C308  C     C_3   0.707283 0.561889 0.590823 -1.009704
H418  H     H_    0.733637 0.586434 0.560793 0.266676
H419  H     H_    0.664185 0.568528 0.577960 0.277257
H420  H     H_    0.717070 0.518198 0.585210 0.277035
O113  O     O_3   0.572280 0.217482 0.261464 -0.602277
C309  C     C_3   0.547985 0.216120 0.203848 0.137470
H421  H     H_    0.503448 0.214974 0.209838 0.205797
H422  H     H_    0.558198 0.178808 0.178272 0.099752
C310  C     C_3   0.562382 0.266515 0.166694 -0.370766
H423  H     H_    0.552609 0.303637 0.192492 0.236964
H424  H     H_    0.606532 0.266614 0.156704 0.219379
C311  C     C_3   0.531475 0.267036 0.107524 -1.012387
H425  H     H_    0.545277 0.232972 0.078898 0.272661
H426  H     H_    0.539161 0.305829 0.083666 0.278202
H427  H     H_    0.487053 0.263106 0.115265 0.257155
O114  O     O_3   0.415347 0.780496 0.746598 -0.636028
C312  C     C_3   0.430030 0.771652 0.686065 0.143833
H428  H     H_    0.472706 0.785276 0.680181 0.201831
H429  H     H_    0.405821 0.795879 0.653142 0.109025
C313  C     C_3   0.426176 0.711326 0.670573 -0.341877
H430  H     H_    0.444820 0.686440 0.706480 0.250028
H431  H     H_    0.382887 0.699400 0.667001 0.264999
C314  C     C_3   0.454478 0.699377 0.611402 -1.002652
H432  H     H_    0.437667 0.725708 0.575615 0.271823
H433  H     H_    0.448055 0.656214 0.599183 0.275857
H434  H     H_    0.498845 0.707096 0.615065 0.276308
O115  O     O_3   0.786541 0.588163 0.296388 -0.614606
C315  C     C_3   0.755142 0.563205 0.250884 0.138324
H435  H     H_    0.774883 0.524272 0.239492 0.202000
H436  H     H_    0.752736 0.586288 0.207775 0.084427
C316  C     C_3   0.697388 0.552944 0.273597 -0.310171
H437  H     H_    0.698890 0.534815 0.319029 0.232269
H438  H     H_    0.675234 0.592062 0.276460 0.262052
C317  C     C_3   0.666387 0.514974 0.232105 -1.016542
H439  H     H_    0.665305 0.531599 0.185986 0.269731
H440  H     H_    0.624080 0.509742 0.248480 0.266668
H441  H     H_    0.686452 0.474770 0.231050 0.314003
O116  O     O_3   0.219281 0.422019 0.743702 -0.629640
C318  C     C_3   0.226149 0.435407 0.682500 0.146415
H442  H     H_    0.214721 0.478643 0.676690 0.204916
H443  H     H_    0.198802 0.412174 0.651934 0.115746
C319  C     C_3   0.285387 0.427961 0.663170 -0.348834
H444  H     H_    0.313279 0.445211 0.697151 0.256785
H445  H     H_    0.294230 0.384057 0.659018 0.259703
C320  C     C_3   0.295862 0.455216 0.603043 -1.016822
H446  H     H_    0.265954 0.440400 0.569816 0.278028
H447  H     H_    0.337595 0.445517 0.587455 0.275887
H448  H     H_    0.291796 0.499932 0.606806 0.281744

loop_
_geom_bond_atom_site_label_1
_geom_bond_atom_site_label_2
_ccdc_geom_bond_type
C45   C118  S    
C254  H294  S    
C163  H81   S    
C230  H236  S    
C232  H242  S    
C75   C107  A    
C249  H281  S    
O1    Zn5   S    
C182  H126  S    
C156  H65   S    
C200  H166  S    
C220  H213  S    
C255  C256  S    
C103  O107  S    
O33   Zn11  S    
O102  C276  S    
C8    C56   A    
C205  H179  S    
C136  C137  S    
C158  H69   S    
C110  O114  S    
C236  H250  S    
C143  H33   S    
C204  C205  S    
C270  H331  S    
O17   Zn4   S    
C109  C119  A    
C278  H350  S    
C8    C13   S    
C305  H412  S    
O18   Zn3   S    
C262  C263  S    
O2    Zn11  S    
C268  H326  S    
C179  H118  S    
C183  H128  S    
C320  H446  S    
C295  H388  S    
C47   O37   A    
C271  H333  S    
C302  H405  S    
C236  H252  S    
C163  C164  S    
C77   O81   S    
C283  H361  S    
C316  H437  S    
C145  C146  S    
C276  C277  S    
C290  H377  S    
C173  H105  S    
C231  H240  S    
O60   C150  S    
C226  H227  S    
C186  C187  S    
C52   C84   A    
C73   O77   S    
C245  H271  S    
C207  H183  S    
C178  C179  S    
C197  H161  S    
C263  H315  S    
C19   C20   T    
C229  H235  S    
C219  H211  S    
C228  H233  S    
C305  H413  S    
C98   O102  S    
O42   Zn7   S    
C141  H30   S    
C30   O18   A    
O88   C234  S    
C7    C55   A    
C25   O5    A    
C257  H300  S    
C293  H385  S    
C159  C160  S    
C180  H120  S    
C43   C120  S    
C99   C121  A    
C176  H112  S    
C31   O19   A    
C283  C284  S    
C168  H93   S    
C188  H139  S    
C197  H159  S    
C288  H372  S    
C130  C131  S    
C244  H270  S    
C13   C61   A    
O4    Zn8   S    
C139  H25   S    
C6    C54   A    
C315  H436  S    
C315  H435  S    
O52   Zn2   S    
C259  H305  S    
C282  H359  S    
C104  O108  S    
C47   C116  S    
C252  C253  S    
C141  C142  S    
C165  H85   S    
O38   Zn3   S    
O111  C303  S    
C267  C268  S    
O59   C147  S    
C68   O72   S    
O66   C168  S    
C257  H301  S    
O2    Zn15  S    
O103  C279  S    
C216  H205  S    
C65   O69   S    
O82   C216  S    
C282  C283  S    
C44   C119  S    
C161  H75   S    
C264  H316  S    
C12   C66   A    
C39   C124  S    
C46   C117  S    
C301  H402  S    
C274  C275  S    
C139  C140  S    
C134  H12   S    
C37   O47   A    
C259  C260  S    
C90   O94   S    
C38   O48   A    
C258  H302  S    
C207  H184  S    
C246  C247  S    
C171  H99   S    
C290  H378  S    
C211  H192  S    
C258  C259  S    
C16   C70   A    
C208  H186  S    
C94   O98   S    
C291  H379  S    
C85   C117  A    
C248  H278  S    
C57   C89   A    
C193  H150  S    
C242  H265  S    
C21   C28   S    
C69   O73   S    
C312  C313  S    
C69   C101  A    
C22   C27   S    
C56   O60   S    
O93   C249  S    
C200  H168  S    
C149  H48   S    
C209  H187  S    
C110  C120  A    
C63   O67   S    
C157  H66   S    
C304  H410  S    
C181  H122  S    
C166  C167  S    
C90   C122  A    
C279  C280  S    
C184  H130  S    
C77   C109  A    
C197  H160  S    
C153  C154  S    
O29   Zn15  S    
C152  H56   S    
C253  H291  S    
C167  H89   S    
C146  H41   S    
C306  C307  S    
C86   O90   S    
C48   O36   A    
C10   C68   A    
O97   C261  S    
C275  H343  S    
C274  H339  S    
C155  H62   S    
C152  H54   S    
C169  C170  S    
C278  H349  S    
C33   O21   A    
C153  H58   S    
C216  C217  S    
C223  H220  S    
O25   Zn16  S    
C261  H310  S    
O5    Zn16  S    
C262  H311  S    
C265  H319  S    
C138  C139  S    
C201  H170  S    
C256  H298  S    
C220  C221  S    
C31   O15   A    
O65   C165  S    
C317  H440  S    
C196  H158  S    
C100  O104  S    
C302  H404  S    
C266  H320  S    
C133  H10   S    
C210  H190  S    
C217  H207  S    
C298  H395  S    
C230  H238  S    
C17   C32   S    
C221  H215  S    
C129  H2    S    
C18   C31   S    
C19   C30   S    
C213  H198  S    
C247  C248  S    
C277  C278  S    
O58   C144  S    
C194  H153  S    
C261  C262  S    
C85   O89   S    
C293  H384  S    
O1    Zn12  S    
C142  H32   S    
C112  O116  S    
C260  H306  S    
C215  H202  S    
C292  H382  S    
C218  H209  S    
C285  H366  S    
O10   Zn11  S    
C52   O56   S    
C132  C133  S    
C59   O63   S    
C131  H6    S    
C49   O53   S    
C192  H148  S    
C98   C124  A    
O14   Zn7   S    
C41   O43   A    
C93   O97   S    
C235  H249  S    
C301  C302  S    
O23   Zn14  S    
C21   C22   T    
C310  C311  S    
C294  H387  S    
C53   O57   S    
O108  C294  S    
C43   O31   A    
C289  C290  S    
C144  H36   S    
C148  C149  S    
C273  H338  S    
C300  H401  S    
C233  H245  S    
C74   C106  A    
O68   C174  S    
C108  C114  A    
C246  H274  S    
C14   C62   A    
C311  H427  S    
C92   O96   S    
O105  C285  S    
C164  H83   S    
C247  H276  S    
C248  H280  S    
C45   O33   A    
C2    C50   A    
C309  H422  S    
O44   Zn1   S    
C193  C194  S    
C107  C113  A    
C279  H352  S    
C287  H369  S    
C316  H438  S    
C235  C236  S    
C145  H39   S    
C131  H5    S    
C23   C24   T    
C239  H259  S    
C199  H164  S    
C5    C79   A    
O12   Zn13  S    
C157  C158  S    
C7    C77   A    
C198  C199  S    
C84   O88   S    
O28   Zn9   S    
C263  H314  S    
C302  H406  S    
C310  H424  S    
C91   C123  A    
C212  H194  S    
O51   Zn1   S    
C222  C223  S    
C130  H4    S    
C35   C128  S    
C1    C12   S    
C269  H329  S    
C167  H91   S    
O36   Zn10  S    
C2    C11   S    
C135  H15   S    
C159  H72   S    
C272  H334  S    
C189  H142  S    
C262  H312  S    
O19   Zn6   S    
C297  H394  S    
C32   O16   A    
O15   Zn2   S    
C83   C115  A    
C150  C151  S    
C36   O50   A    
O78   C204  S    
C64   C96   A    
C225  C226  S    
C78   C110  A    
C134  H14   S    
C46   O40   A    
C54   C86   A    
C78   O82   S    
O112  C306  S    
C36   O24   A    
C318  C319  S    
C105  O109  S    
C51   O55   S    
C165  C166  S    
C27   O11   A    
C306  H414  S    
C39   O27   A    
C177  C178  S    
C267  H324  S    
C51   C83   A    
C25   O9    A    
C68   C100  A    
O7    Zn10  S    
C87   C119  A    
C26   O6    A    
C266  H321  S    
C71   O75   S    
C189  C190  S    
C183  C184  S    
C73   C105  A    
O79   C207  S    
C133  C134  S    
O107  C291  S    
C298  C299  S    
C29   O13   A    
C241  H262  S    
C199  C200  S    
C154  H59   S    
C280  H354  S    
C100  C122  A    
C319  H444  S    
C239  H257  S    
C173  H104  S    
C175  C176  S    
C187  H136  S    
C308  H419  S    
C179  H119  S    
O26   Zn15  S    
C147  H44   S    
C191  H145  S    
C172  H102  S    
C237  H253  S    
C190  C191  S    
C307  H417  S    
C160  H74   S    
C33   C122  S    
C314  H434  S    
C162  H78   S    
C142  C143  S    
C285  C286  S    
C93   C125  A    
C299  H397  S    
C294  H386  S    
C60   O64   S    
C37   C126  S    
C238  C239  S    
O31   Zn13  S    
C71   C103  A    
O16   Zn1   S    
O45   Zn7   S    
C249  H282  S    
C223  C224  S    
C149  H47   S    
C14   C72   A    
C105  C115  A    
C169  H95   S    
C284  H364  S    
C53   C85   A    
C282  H358  S    
C136  H18   S    
C95   O99   S    
C274  H340  S    
C307  C308  S    
O30   Zn16  S    
C224  H224  S    
O8    Zn9   S    
C111  C117  A    
C27   O7    A    
C250  C251  S    
C212  H195  S    
C66   O70   S    
C97   C123  A    
C170  H98   S    
C223  H221  S    
C271  C272  S    
C309  H421  S    
O4    Zn13  S    
C213  C214  S    
C147  C148  S    
C75   O79   S    
O114  C312  S    
C224  H223  S    
C82   O86   S    
C210  C211  S    
C243  C244  S    
C55   C87   A    
O53   C129  S    
C3    C73   A    
C245  H272  S    
C264  C265  S    
C288  C289  S    
C198  H162  S    
C36   C127  S    
C203  H173  S    
C40   O46   A    
C219  H212  S    
C137  H19   S    
C212  H196  S    
C278  H348  S    
C54   O58   S    
C151  H52   S    
C179  H117  S    
C320  H447  S    
C4    C9    S    
C142  H31   S    
C315  C316  S    
C135  C136  S    
C50   O54   S    
C176  H111  S    
C290  H376  S    
C35   O49   A    
C188  H138  S    
C174  C175  S    
C33   O51   A    
C175  H109  S    
C200  H167  S    
C34   O52   A    
C280  H353  S    
C291  C292  S    
C39   O45   A    
C201  H169  S    
C243  H268  S    
O92   C246  S    
C34   O22   A    
C206  H182  S    
C318  H442  S    
O34   Zn12  S    
C229  H234  S    
C252  H289  S    
O84   C222  S    
C240  H260  S    
C165  H86   S    
O3    Zn7   S    
C227  H229  S    
C76   O80   S    
C185  H131  S    
C92   C124  A    
C29   O17   A    
C214  H199  S    
C61   C93   A    
C168  C169  S    
C229  C230  S    
C190  H144  S    
C94   C126  A    
C161  H76   S    
C254  H292  S    
C241  C242  S    
C63   C95   A    
C272  H336  S    
C195  H155  S    
C96   C128  A    
C301  H403  S    
C130  H3    S    
C23   C26   S    
C49   C81   A    
C175  H108  S    
C277  H346  S    
C266  H322  S    
C81   O85   S    
C74   O78   S    
O22   Zn11  S    
O104  C282  S    
O3    Zn3   S    
C154  C155  S    
C191  H147  S    
O67   C171  S    
C227  H230  S    
C303  H407  S    
C246  H275  S    
C151  C152  S    
C311  H426  S    
C281  H356  S    
C174  H106  S    
C258  H303  S    
C189  H141  S    
C250  H284  S    
C88   C120  A    
C299  H399  S    
C67   C99   A    
C216  H204  S    
C268  C269  S    
C47   O35   A    
C240  C241  S    
C161  H77   S    
C193  H151  S    
C163  H80   S    
C232  C233  S    
O87   C231  S    
C312  H429  S    
C102  O106  S    
C181  H123  S    
C226  H228  S    
C149  H49   S    
C233  H244  S    
C42   O30   A    
C35   O23   A    
C11   C59   A    
C208  H185  S    
C313  H431  S    
C205  H178  S    
C157  H67   S    
O89   C237  S    
C158  H70   S    
C166  H88   S    
C270  C271  S    
C281  H357  S    
C305  H411  S    
O63   C159  S    
C211  C212  S    
C37   O25   A    
C183  H127  S    
C136  H17   S    
C132  H8    S    
O100  C270  S    
O54   C132  S    
O55   C135  S    
C306  H415  S    
C3    C51   A    
C271  H332  S    
O94   C252  S    
C72   C104  A    
C319  C320  S    
C283  H360  S    
O77   C201  S    
O39   Zn6   S    
O99   C267  S    
C106  C116  A    
C231  H239  S    
O109  C297  S    
C209  H189  S    
O75   C195  S    
C80   O84   S    
O85   C225  S    
C101  C127  A    
O27   Zn10  S    
C286  C287  S    
O9    Zn12  S    
C166  H87   S    
C131  H7    S    
C218  H208  S    
C228  C229  S    
O2    Zn6   S    
C141  H29   S    
C296  H391  S    
O35   Zn9   S    
O13   Zn8   S    
C91   O95   S    
C253  H290  S    
O48   Zn6   S    
C58   C90   A    
C257  H299  S    
C66   C98   A    
C295  C296  S    
C312  H428  S    
C41   O29   A    
C167  H90   S    
O6    Zn15  S    
C133  H11   S    
C310  H423  S    
C264  H317  S    
C237  H254  S    
C62   C94   A    
C288  H373  S    
C72   O76   S    
O96   C258  S    
C44   O32   A    
C244  C245  S    
C221  H216  S    
C152  H55   S    
C139  H24   S    
C170  H96   S    
O1    Zn16  S    
C2    C76   A    
O98   C264  S    
C50   C82   A    
C234  H247  S    
C259  H304  S    
C269  H328  S    
C204  H177  S    
O80   C210  S    
C180  H121  S    
C213  H197  S    
C220  H214  S    
C28   O8    A    
O37   Zn4   S    
O101  C273  S    
C206  H180  S    
O41   Zn8   S    
C255  H296  S    
C26   O10   A    
C236  H251  S    
C174  H107  S    
C214  C215  S    
O71   C183  S    
C70   C102  A    
C32   O20   A    
C237  C238  S    
C67   O71   S    
C102  C128  A    
C30   O14   A    
C195  C196  S    
C148  H45   S    
C260  H308  S    
C144  C145  S    
C143  H34   S    
O20   Zn5   S    
C304  H409  S    
O49   Zn3   S    
O4    Zn4   S    
C225  H226  S    
C148  H46   S    
C106  O110  S    
C300  H400  S    
C284  H362  S    
C89   C121  A    
C303  C304  S    
C107  O111  S    
O90   C240  S    
C218  H210  S    
C201  C202  S    
C208  C209  S    
C287  H371  S    
C190  H143  S    
C164  H82   S    
C177  H114  S    
C248  H279  S    
C56   C88   A    
C268  H325  S    
C95   C127  A    
C196  H157  S    
C242  H266  S    
C48   O38   A    
O106  C288  S    
C287  H370  S    
C171  C172  S    
C314  H432  S    
C81   C113  A    
O91   C243  S    
C3    C10   S    
C303  H408  S    
O72   C186  S    
C154  H60   S    
C199  H165  S    
C10   C58   A    
C211  H193  S    
O116  C318  S    
C9    C67   A    
C60   C92   A    
O4    Zn9   S    
C205  C206  S    
C79   O83   S    
C275  H342  S    
C184  H129  S    
C198  H163  S    
C250  H283  S    
C184  C185  S    
C295  H389  S    
C270  H330  S    
C215  H203  S    
C277  H347  S    
C222  H219  S    
C156  H64   S    
O43   Zn2   S    
O95   C255  S    
C28   O12   A    
C253  C254  S    
O86   C228  S    
C41   C114  S    
C146  H42   S    
O70   C180  S    
C135  H16   S    
O73   C189  S    
C202  H171  S    
C182  H124  S    
C209  H188  S    
C89   O93   S    
C308  H418  S    
O110  C300  S    
C297  C298  S    
O81   C213  S    
O61   C153  S    
O24   Zn13  S    
C4    C52   A    
C231  C232  S    
C55   O59   S    
C5    C53   A    
C155  H61   S    
C150  H51   S    
C291  H380  S    
O57   C141  S    
C134  H13   S    
C293  H383  S    
C171  H100  S    
C318  H443  S    
C109  O113  S    
C261  H309  S    
C185  H132  S    
O83   C219  S    
C99   O103  S    
C279  H351  S    
C108  O112  S    
O11   Zn14  S    
C256  C257  S    
C43   O41   A    
C9    C57   A    
C317  H439  S    
C5    C16   S    
C202  H172  S    
C6    C15   S    
C177  H113  S    
C6    C80   A    
C7    C14   S    
C181  C182  S    
C172  H101  S    
C251  H285  S    
C298  H396  S    
C224  H222  S    
C17   C18   T    
C76   C108  A    
C244  H269  S    
C203  H175  S    
C64   O68   S    
C129  H1    S    
C265  H318  S    
C192  C193  S    
C187  H137  S    
C227  H231  S    
C194  H154  S    
O46   Zn8   S    
C186  H135  S    
O76   C198  S    
C162  C163  S    
C240  H261  S    
C158  H68   S    
C97   O101  S    
C215  H201  S    
C292  C293  S    
C8    C78   A    
C314  H433  S    
C80   C112  A    
C13   C71   A    
O47   Zn5   S    
C292  H381  S    
C254  H293  S    
C275  H341  S    
C299  H398  S    
C281  H355  S    
C44   O42   A    
C20   C29   S    
C238  H256  S    
C15   C69   A    
C111  O115  S    
C234  C235  S    
C178  H116  S    
C235  H248  S    
C192  H149  S    
C243  H267  S    
C1    C75   A    
C294  C295  S    
C241  H263  S    
C24   C25   S    
C82   C114  A    
C187  C188  S    
C138  H23   S    
O2    Zn2   S    
C214  H200  S    
C284  H363  S    
C153  H57   S    
C147  H43   S    
C300  C301  S    
C59   C91   A    
C156  C157  S    
C273  H337  S    
C160  H73   S    
C204  H176  S    
C221  H217  S    
O56   C138  S    
C182  H125  S    
C232  H241  S    
C101  O105  S    
C317  H441  S    
C86   C118  A    
C164  H84   S    
C238  H255  S    
O64   C162  S    
C170  H97   S    
C185  H133  S    
C58   O62   S    
C260  H307  S    
C42   C113  S    
C144  H37   S    
C242  H264  S    
C186  H134  S    
C316  C317  S    
C145  H38   S    
C172  C173  S    
C129  C130  S    
C276  H344  S    
C104  C126  A    
C210  H191  S    
C219  C220  S    
C169  H94   S    
C45   O39   A    
C245  H273  S    
C83   O87   S    
C178  H115  S    
C269  H327  S    
C42   O44   A    
C48   C115  S    
C87   O91   S    
C249  C250  S    
C289  H375  S    
C263  H313  S    
C150  H50   S    
C203  H174  S    
C228  H232  S    
C34   C121  S    
C137  H20   S    
C140  H27   S    
C320  H448  S    
C296  H392  S    
C151  H53   S    
C140  H28   S    
O3    Zn14  S    
C38   O26   A    
C286  H368  S    
C146  H40   S    
C222  H218  S    
C38   C125  S    
C62   O66   S    
C159  H71   S    
C309  C310  S    
O32   Zn14  S    
C176  H110  S    
C308  H420  S    
C40   C123  S    
C70   O74   S    
C297  H393  S    
O62   C156  S    
O21   Zn12  S    
C319  H445  S    
O40   Zn5   S    
O115  C315  S    
C296  H390  S    
C4    C74   A    
C155  H63   S    
C239  H258  S    
C226  C227  S    
C273  C274  S    
C304  C305  S    
C206  H181  S    
C96   O100  S    
C225  H225  S    
C276  H345  S    
C251  H286  S    
C188  H140  S    
C137  H21   S    
C252  H288  S    
C202  C203  S    
C265  C266  S    
C79   C111  A    
C61   O65   S    
C267  H323  S    
C180  C181  S    
C230  H237  S    
C285  H365  S    
C65   C97   A    
C234  H246  S    
C217  H206  S    
O69   C177  S    
C112  C118  A    
C289  H374  S    
C1    C49   A    
C251  H287  S    
C191  H146  S    
C132  H9    S    
C195  H156  S    
C233  H243  S    
C280  C281  S    
O3    Zn10  S    
C207  C208  S    
C88   O92   S    
C173  H103  S    
C286  H367  S    
C272  H335  S    
C143  H35   S    
C313  H430  S    
C194  H152  S    
C12   C60   A    
C217  C218  S    
C256  H297  S    
C196  C197  S    
C247  H277  S    
C311  H425  S    
C84   C116  A    
C307  H416  S    
C46   O34   A    
C160  C161  S    
C138  H22   S    
C15   C63   A    
O74   C192  S    
C40   O28   A    
C162  H79   S    
C16   C64   A    
C57   O61   S    
O113  C309  S    
C140  H26   S    
C103  C125  A    
O1    Zn1   S    
C313  C314  S    
O50   Zn4   S    
C11   C65   A    
C168  H92   S    
C255  H295  S    
