data_mof_unit_40033.cif
_audit_creation_date              2012-12-10T17:33:03-0500
_audit_creation_method            fapswitch 2.2
_symmetry_space_group_name_H-M    P1
_symmetry_Int_Tables_number       1
_space_group_crystal_system       triclinic
_cell_length_a                    12.356121
_cell_length_b                    13.288488
_cell_length_c                    14.216488
_cell_angle_alpha                 93.528627
_cell_angle_beta                  107.386007
_cell_angle_gamma                 117.082717
_cell_volume                      1928.98887309

loop_
_atom_site_label
_atom_site_type_symbol
_atom_type_description
_atom_site_fract_x
_atom_site_fract_y
_atom_site_fract_z
_atom_type_partial_charge
C1    C     C_R   0.651056 0.714065 0.508895 0.772895
C2    C     C_R   0.840051 0.485480 0.916931 0.094908
C3    C     C_R   0.784966 0.492700 0.989590 0.097706
C4    C     C_R   0.947198 0.464220 0.943312 0.084019
C5    C     C_R   0.006316 0.463631 0.045630 0.060935
C6    C     C_R   0.945946 0.467901 0.115017 -0.222460
C7    C     C_R   0.836841 0.481432 0.087001 -0.208809
C8    C     C_R   0.995416 0.440945 0.870781 -0.225419
C9    C     C_R   0.102555 0.423998 0.898892 -0.237091
C10   C     C_R   0.168162 0.433527 0.000292 0.162429
C11   C     C_R   0.122521 0.456319 0.074868 0.089135
C12   C     C_R   0.617455 0.515721 0.687050 0.819220
C13   C     C_R   0.280067 0.421756 0.028281 -0.211864
C14   C     C_R   0.350051 0.436708 0.130079 -0.203217
C15   C     C_R   0.197474 0.475369 0.176934 -0.255106
C16   C     C_R   0.139489 0.966952 0.361855 -0.191382
C17   C     C_R   0.249156 0.162490 0.463210 -0.048576
C18   C     C_R   0.731912 0.920815 0.576578 -0.191408
C19   C     C_R   0.822706 0.037637 0.596307 -0.144690
C20   C     C_R   0.923345 0.072420 0.559501 -0.181962
C21   C     C_R   0.932446 0.990238 0.498448 0.079420
C22   C     C_R   0.830528 0.872931 0.468475 0.082342
C23   C     C_R   0.345270 0.285334 0.485013 0.805415
C24   C     C_R   0.038694 0.020783 0.465382 0.072425
C25   C     C_R   0.035075 0.937483 0.395092 0.167884
C26   C     C_R   0.926179 0.826604 0.357082 -0.243081
C27   C     C_R   0.824585 0.795117 0.392149 -0.200683
C28   C     C_R   0.149487 0.131584 0.501086 -0.251781
C29   C     C_R   0.245859 0.079422 0.395234 -0.194820
C30   C     C_R   0.736499 0.837253 0.514992 -0.100299
C31   C     C_R   0.254718 0.692155 0.655542 -0.315995
C32   C     C_R   0.654809 0.341590 0.363860 0.066705
C33   C     C_R   0.732460 0.306735 0.333806 -0.258504
C34   C     C_R   0.380661 0.481574 0.312971 0.790814
C35   C     C_R   0.867690 0.366090 0.384965 -0.200837
C36   C     C_R   0.927750 0.462114 0.467317 -0.005834
C37   C     C_R   0.843825 0.495134 0.495139 0.290403
C38   C     C_R   0.067429 0.527061 0.522491 -0.040190
C39   C     C_R   0.119479 0.624802 0.602105 0.177979
C40   C     C_R   0.036585 0.655285 0.628102 -0.281662
C41   C     C_R   0.902295 0.591646 0.576516 -0.198135
C42   C     C_R   0.158988 0.500202 0.502700 0.014244
C43   C     C_R   0.338923 0.662022 0.631614 0.086596
C44   C     C_R   0.677092 0.515737 0.793795 -0.157810
C45   C     C_R   0.309590 0.464917 0.204965 -0.049340
C46   C     C_R   0.677557 0.510450 0.964195 -0.294486
C47   C     C_R   0.623909 0.523480 0.867344 0.444799
C48   C     C_R   0.786854 0.501144 0.820680 -0.328999
Cu1   Cu    Cu3+1 0.416420 0.526630 0.522910 0.948982
Cu2   Cu    Cu3+1 0.583580 0.473370 0.477090 0.918617
H1    H     H_    0.793564 0.484253 0.142498 0.145395
H2    H     H_    0.314323 0.402400 0.971480 0.163003
H3    H     H_    0.322532 0.102548 0.364899 0.147884
H4    H     H_    0.919546 0.763689 0.300136 0.143960
H5    H     H_    0.137120 0.903904 0.307973 0.136096
H6    H     H_    0.160748 0.196670 0.558023 0.151742
H7    H     H_    0.659567 0.895669 0.611629 0.148503
H8    H     H_    0.990392 0.164548 0.578339 0.130169
H9    H     H_    0.817468 0.101496 0.643083 0.144297
H10   H     H_    0.740148 0.709859 0.356417 0.173387
H11   H     H_    0.443248 0.714552 0.672186 0.115768
H12   H     H_    0.172624 0.502361 0.236492 0.153000
H13   H     H_    0.076051 0.729512 0.689600 0.154866
H14   H     H_    0.295227 0.767802 0.715816 0.140788
H15   H     H_    0.127667 0.426856 0.443952 0.120470
H16   H     H_    0.550081 0.294706 0.323528 0.122427
H17   H     H_    0.922909 0.335601 0.358169 0.134836
H18   H     H_    0.687550 0.233299 0.270431 0.146953
H19   H     H_    0.847980 0.621872 0.603231 0.205591
H20   H     H_    0.436404 0.427680 0.150123 0.151379
H21   H     H_    0.135847 0.405632 0.840972 0.156256
H22   H     H_    0.634131 0.513680 0.019497 0.145485
H23   H     H_    0.830397 0.503561 0.765083 0.175083
H24   H     H_    0.977965 0.456925 0.191032 0.141596
H25   H     H_    0.950030 0.431354 0.790771 0.150647
N1    N     N_R   0.290690 0.566960 0.557640 -0.172789
N2    N     N_R   0.709100 0.433710 0.442970 -0.203311
O1    O     O_R   0.545970 0.684450 0.528810 -0.585170
O2    O     O_R   0.687130 0.639470 0.490120 -0.602987
O3    O     O_R   0.519670 0.535100 0.660030 -0.537452
O4    O     O_R   0.660830 0.490120 0.621340 -0.604240
O5    O     O_R   0.312870 0.360530 0.509880 -0.583183
O6    O     O_R   0.454030 0.315550 0.471190 -0.585948
O7    O     O_R   0.339170 0.509880 0.378660 -0.586788
O8    O     O_R   0.480330 0.464900 0.339970 -0.596823
O9    O     O_3   0.513412 0.534392 0.843692 -0.567617
C49   C     C_3   0.550727 0.650729 0.882410 0.068846
H26   H     H_    0.584804 0.704551 0.829510 0.140414
H27   H     H_    0.630161 0.689931 0.958997 0.126642
C50   C     C_3   0.433326 0.655113 0.891701 -0.798466
H28   H     H_    0.412336 0.619132 0.956533 0.245050
H29   H     H_    0.454336 0.746488 0.904995 0.196591
H30   H     H_    0.345776 0.603259 0.821611 0.264220

loop_
_geom_bond_atom_site_label_1
_geom_bond_atom_site_label_2
_ccdc_geom_bond_type
C49   H26   S    
C23   O5    A    
C17   C29   A    
C35   C36   A    
C4    C8    A    
Cu2   O2    S    
C28   H6    S    
C26   C27   A    
C17   C23   S    
C40   H13   S    
C31   C43   A    
Cu1   O7    S    
C41   H19   S    
C36   C37   A    
C5    C11   A    
C3    C7    A    
C27   H10   S    
C38   C39   A    
C16   C25   A    
Cu1   O1    S    
C18   C19   A    
Cu2   O8    S    
C32   N2    A    
C11   C15   A    
C19   C20   A    
C8    C9    A    
C42   H15   S    
C18   C30   A    
C9    C10   A    
C46   H22   S    
C44   C47   A    
C21   C22   A    
C1    O1    A    
C14   H20   S    
C34   O7    A    
C26   H4    S    
Cu2   O6    S    
C6    H24   S    
C14   C45   A    
C47   O9    S    
C24   C28   A    
C24   C25   A    
C39   C40   A    
O9    C49   S    
C2    C48   A    
C16   C29   A    
C37   N2    A    
C8    H25   S    
C34   O8    A    
Cu1   O5    S    
C2    C4    A    
C13   H2    S    
C18   H7    S    
C50   H29   S    
C35   H17   S    
Cu1   N1    S    
C34   C45   S    
C23   O6    A    
C40   C41   A    
C22   C27   A    
C49   H27   S    
C1    O2    A    
C49   C50   S    
C15   C45   A    
C20   H8    S    
Cu2   N2    S    
C43   H11   S    
C50   H30   S    
C32   H16   S    
C43   N1    A    
C46   C47   A    
C22   C30   A    
C17   C28   A    
C31   H14   S    
C9    H21   S    
C48   H23   S    
C4    C5    A    
C10   C13   A    
C38   C42   A    
C6    C7    A    
C3    C46   A    
C42   N1    A    
Cu1   O3    S    
C19   H9    S    
C32   C33   A    
C36   C38   A    
C2    C3    A    
C25   C26   A    
C16   H5    S    
C7    H1    S    
C12   C44   S    
C50   H28   S    
C5    C6    A    
C29   H3    S    
C12   O3    A    
C1    C30   S    
C33   C35   A    
C15   H12   S    
C31   C39   A    
C12   O4    A    
C37   C41   A    
C10   C11   A    
C20   C21   A    
C33   H18   S    
Cu1   Cu2   S    
C21   C24   A    
C13   C14   A    
C44   C48   A    
Cu2   O4    S    
