data_mof_unit_34848.cif
_audit_creation_date              2013-03-05T15:44:15-0500
_audit_creation_method            fapswitch 2.2
_symmetry_space_group_name_H-M    P1
_symmetry_Int_Tables_number       1
_space_group_crystal_system       triclinic
_cell_length_a                    26.153882
_cell_length_b                    27.419876
_cell_length_c                    8.446821
_cell_angle_alpha                 90.000088
_cell_angle_beta                  95.596181
_cell_angle_gamma                 89.983484
_cell_volume                      6028.650134

loop_
_atom_site_label
_atom_site_type_symbol
_atom_site_description
_atom_site_fract_x
_atom_site_fract_y
_atom_site_fract_z
_atom_type_partial_charge
P1    P     P_3+3 0.893960 0.447890 0.040050 0.467013
P2    P     P_3+3 0.893960 0.552110 0.540050 0.469165
P3    P     P_3+3 0.393960 0.947890 0.040050 0.467021
P4    P     P_3+3 0.393960 0.052110 0.540050 0.469031
O1    O     O_2   0.898940 0.431940 0.867860 -0.365846
O2    O     O_2   0.898940 0.568060 0.367860 -0.362066
O3    O     O_2   0.398940 0.931940 0.867860 -0.365967
O4    O     O_2   0.398940 0.068060 0.367860 -0.361886
O5    O     O_3   0.941140 0.476130 0.123050 -0.402319
O6    O     O_3   0.941140 0.523870 0.623050 -0.407655
O7    O     O_3   0.441140 0.976130 0.123050 -0.402185
O8    O     O_3   0.441140 0.023870 0.623050 -0.407696
O9    O     O_3   0.982430 0.389880 0.635700 -0.366416
O10   O     O_3   0.982430 0.610120 0.135700 -0.371572
O11   O     O_3   0.482430 0.889880 0.635700 -0.366394
O12   O     O_3   0.482430 0.110120 0.135700 -0.371350
O13   O     O_2   0.895262 0.352214 0.722872 -0.388122
O14   O     O_2   0.902648 0.656207 0.244535 -0.380368
O15   O     O_2   0.395258 0.852223 0.722869 -0.388111
O16   O     O_2   0.402558 0.156066 0.244611 -0.380562
O17   O     O_3   0.838807 0.484227 0.029064 -0.561864
O18   O     O_3   0.840309 0.513707 0.523700 -0.569810
O19   O     O_3   0.338808 0.984227 0.029091 -0.561914
O20   O     O_3   0.340299 0.013720 0.523706 -0.569758
O21   O     O_3   0.963180 0.288614 0.654382 -0.530695
O22   O     O_3   0.967578 0.710473 0.105237 -0.570427
O23   O     O_3   0.463169 0.788615 0.654418 -0.530683
O24   O     O_3   0.467357 0.210451 0.105313 -0.570073
H1    H     H_    0.007132 0.305009 0.462008 -0.012623
H2    H     H_    0.005614 0.678415 0.921312 0.065651
H3    H     H_    0.507138 0.805000 0.462082 -0.012606
H4    H     H_    0.504972 0.178642 0.919964 0.065342
C1    C     C_3   0.053573 0.275438 0.662215 -0.799682
C2    C     C_3   0.046455 0.740735 0.016631 -1.011632
C3    C     C_3   0.553557 0.775405 0.662288 -0.799710
C4    C     C_3   0.546272 0.240522 0.016620 -1.011960
H5    H     H_    0.062578 0.311982 0.713351 0.280210
H6    H     H_    0.072389 0.717081 0.094789 0.254722
H7    H     H_    0.562577 0.811944 0.713435 0.280230
H8    H     H_    0.572049 0.216621 0.094400 0.255192
H9    H     H_    0.051320 0.248795 0.760209 0.277530
H10   H     H_    0.039990 0.775362 0.079842 0.281421
H11   H     H_    0.551285 0.748762 0.760271 0.277534
H12   H     H_    0.540076 0.275107 0.080379 0.281183
P5    P     P_3+3 0.105800 0.447360 0.649510 0.472960
P6    P     P_3+3 0.105800 0.552640 0.149510 0.474658
P7    P     P_3+3 0.605800 0.947360 0.649510 0.472957
P8    P     P_3+3 0.605800 0.052640 0.149510 0.474667
P9    P     P_3+3 0.063937 0.344092 0.089046 0.436243
P10   P     P_3+3 0.067230 0.653373 0.588252 0.437516
P11   P     P_3+3 0.563932 0.844089 0.089062 0.436244
P12   P     P_3+3 0.567167 0.153417 0.588299 0.436889
O25   O     O_2   0.100770 0.431440 0.821660 -0.361595
O26   O     O_2   0.100770 0.568560 0.321660 -0.354075
O27   O     O_2   0.600770 0.931440 0.821660 -0.361569
O28   O     O_2   0.600770 0.068560 0.321660 -0.354167
O29   O     O_3   0.017130 0.389790 0.053700 -0.396156
O30   O     O_3   0.017130 0.610210 0.553700 -0.365569
O31   O     O_3   0.517130 0.889790 0.053700 -0.396141
O32   O     O_3   0.517130 0.110210 0.553700 -0.366296
O33   O     O_2   0.104425 0.351695 0.969619 -0.377700
O34   O     O_2   0.103659 0.650658 0.454504 -0.418948
O35   O     O_2   0.604428 0.851692 0.969662 -0.377706
O36   O     O_2   0.603558 0.150775 0.454427 -0.418704
O37   O     O_3   0.160836 0.483878 0.661887 -0.557972
O38   O     O_3   0.159682 0.514469 0.166777 -0.559600
O39   O     O_3   0.660833 0.983883 0.661902 -0.557961
O40   O     O_3   0.659680 0.014466 0.166772 -0.559591
O41   O     O_3   0.036607 0.287468 0.036278 -0.531501
O42   O     O_3   0.042157 0.712538 0.577933 -0.566623
O43   O     O_3   0.536596 0.787469 0.036267 -0.531500
O44   O     O_3   0.541968 0.212537 0.578129 -0.567041
C5    C     C_3   0.983598 0.289990 0.050053 0.377623
C6    C     C_3   0.015650 0.720555 0.428528 0.546400
C7    C     C_3   0.483590 0.789992 0.050086 0.377637
C8    C     C_3   0.515323 0.220507 0.428891 0.547270
H13   H     H_    0.965045 0.317268 0.965764 0.172557
H14   H     H_    0.038356 0.708388 0.331863 0.124890
H15   H     H_    0.465030 0.817270 0.965809 0.172541
H16   H     H_    0.537838 0.208149 0.331992 0.125479
H17   H     H_    0.976033 0.299482 0.173626 0.039457
H18   H     H_    0.978423 0.700897 0.420604 0.162472
H19   H     H_    0.476035 0.799485 0.173668 0.039443
H20   H     H_    0.478015 0.201000 0.421622 0.162090
C9    C     C_3   0.959448 0.240729 0.007910 -0.728415
C10   C     C_3   0.005825 0.775121 0.408561 -0.923537
C11   C     C_3   0.459436 0.740731 0.007969 -0.728455
C12   C     C_3   0.505715 0.275092 0.408490 -0.924154
H21   H     H_    0.917075 0.243865 0.004671 0.241900
H22   H     H_    0.979951 0.782373 0.299146 0.277279
H23   H     H_    0.417064 0.743865 0.004793 0.241901
H24   H     H_    0.479701 0.282333 0.299362 0.277425
H25   H     H_    0.969237 0.228558 0.889371 0.261103
H26   H     H_    0.042759 0.794464 0.399974 0.247865
H27   H     H_    0.469206 0.728561 0.889409 0.261110
H28   H     H_    0.542700 0.294260 0.399099 0.247901
C13   C     C_3   0.146344 0.468532 0.221261 0.411604
C14   C     C_3   0.150497 0.529065 0.727521 0.411459
C15   C     C_3   0.646338 0.968531 0.221268 0.411669
C16   C     C_3   0.650479 0.029077 0.727472 0.411508
H29   H     H_    0.130641 0.472020 0.337637 0.097005
H30   H     H_    0.136929 0.524054 0.846500 0.100402
H31   H     H_    0.630636 0.972024 0.337644 0.096977
H32   H     H_    0.636903 0.024078 0.846446 0.100348
H33   H     H_    0.117897 0.450495 0.134082 0.128934
H34   H     H_    0.121501 0.549279 0.647918 0.113138
H35   H     H_    0.617889 0.950495 0.134095 0.128946
H36   H     H_    0.621483 0.049280 0.647833 0.113176
C17   C     C_3   0.194683 0.437369 0.241417 -0.914978
C18   C     C_3   0.200238 0.558196 0.745438 -0.919150
C19   C     C_3   0.694673 0.937362 0.241431 -0.915071
C20   C     C_3   0.700213 0.058218 0.745378 -0.919365
H37   H     H_    0.223323 0.454169 0.330839 0.272416
H38   H     H_    0.230149 0.537860 0.821117 0.274663
H39   H     H_    0.723316 0.954162 0.330844 0.272379
H40   H     H_    0.730120 0.037903 0.821136 0.274670
H41   H     H_    0.185691 0.400301 0.282104 0.219899
H42   H     H_    0.194304 0.593820 0.802044 0.217489
H43   H     H_    0.685675 0.900296 0.282134 0.219888
H44   H     H_    0.694264 0.093854 0.801889 0.217484
H45   H     H_    0.211518 0.434299 0.126068 0.270702
H46   H     H_    0.213897 0.564621 0.626737 0.269950
H47   H     H_    0.711506 0.934285 0.126081 0.270741
H48   H     H_    0.713886 0.064620 0.626683 0.269967
Ba1   Ba    Ba6+2 0.999910 0.465960 0.844870 1.548422
Ba2   Ba    Ba6+2 0.999910 0.534040 0.344870 1.554428
Ba3   Ba    Ba6+2 0.499910 0.965960 0.844870 1.548364
Ba4   Ba    Ba6+2 0.499910 0.034040 0.344870 1.554289
C21   C     C_3   0.848596 0.529262 0.961746 0.434144
C22   C     C_3   0.853438 0.468101 0.466424 0.436921
C23   C     C_3   0.348557 0.029218 0.961413 0.434335
C24   C     C_3   0.353424 0.968107 0.466457 0.436903
H49   H     H_    0.861839 0.524010 0.842438 0.097703
H50   H     H_    0.868830 0.472187 0.349837 0.099518
H51   H     H_    0.361868 0.023899 0.842226 0.098018
H52   H     H_    0.368811 0.972184 0.349858 0.099569
H53   H     H_    0.877629 0.549820 0.040145 0.107159
H54   H     H_    0.882050 0.449670 0.552139 0.124828
H55   H     H_    0.377525 0.049864 0.039766 0.106843
H56   H     H_    0.382038 0.949680 0.552173 0.124808
C25   C     C_3   0.798571 0.557986 0.944229 -0.982966
C26   C     C_3   0.804940 0.437185 0.445587 -0.969366
C27   C     C_3   0.298484 0.057860 0.943413 -0.983016
C28   C     C_3   0.304926 0.937190 0.445660 -0.969403
H57   H     H_    0.768521 0.537004 0.871319 0.273357
H58   H     H_    0.775842 0.454999 0.359925 0.270188
H59   H     H_    0.268478 0.036748 0.870773 0.273478
H60   H     H_    0.275824 0.954999 0.359997 0.270203
H61   H     H_    0.803837 0.593250 0.884685 0.219053
H62   H     H_    0.813387 0.400626 0.399612 0.221587
H63   H     H_    0.303695 0.093046 0.883343 0.218986
H64   H     H_    0.313373 0.900629 0.399702 0.221595
H65   H     H_    0.785466 0.565075 0.063289 0.267491
H66   H     H_    0.788889 0.432834 0.561768 0.266689
H67   H     H_    0.285348 0.065095 0.062343 0.267374
H68   H     H_    0.288881 0.932847 0.561852 0.266660
O45   O     O_3   0.058810 0.523750 0.066650 -0.407944
O46   O     O_3   0.058810 0.476250 0.566650 -0.404962
O47   O     O_3   0.558810 0.023750 0.066650 -0.407935
O48   O     O_3   0.558810 0.976250 0.566650 -0.404964
P13   P     P_3+3 0.934682 0.654727 0.099642 0.443566
P14   P     P_3+3 0.935008 0.344867 0.600943 0.463572
P15   P     P_3+3 0.434598 0.154638 0.099734 0.444009
P16   P     P_3+3 0.435006 0.844869 0.600952 0.463594
C29   C     C_3   0.002718 0.277686 0.557435 0.362864
C30   C     C_3   0.995579 0.714479 0.970608 0.371755
C31   C     C_3   0.502708 0.777676 0.557487 0.362862
C32   C     C_3   0.495206 0.214627 0.970410 0.371931
H69   H     H_    0.085000 0.264096 0.591316 0.208667
H70   H     H_    0.065940 0.749283 0.908872 0.244580
H71   H     H_    0.584981 0.764048 0.591406 0.208640
H72   H     H_    0.565766 0.249085 0.908894 0.244656
H73   H     H_    0.973765 0.213012 0.097154 0.267203
H74   H     H_    0.987649 0.789919 0.511737 0.282421
H75   H     H_    0.473766 0.713012 0.097190 0.267191
H76   H     H_    0.487798 0.290089 0.511852 0.281708
C33   C     C_R   0.915052 0.382877 0.294676 -0.522274
C34   C     C_R   0.909714 0.613778 0.801781 -0.442003
C35   C     C_R   0.415050 0.882880 0.294687 -0.522272
C36   C     C_R   0.409773 0.113784 0.801673 -0.443708
C37   C     C_R   0.886268 0.389710 0.148429 0.328940
C38   C     C_R   0.882507 0.608199 0.652968 0.345168
C39   C     C_R   0.386268 0.889711 0.148436 0.328953
C40   C     C_R   0.382553 0.108229 0.652883 0.344956
C41   C     C_R   0.847991 0.355355 0.096628 -0.269067
C42   C     C_R   0.842534 0.641131 0.603895 -0.229042
C43   C     C_R   0.347991 0.855355 0.096638 -0.269084
C44   C     C_R   0.342600 0.141202 0.603862 -0.228872
C45   C     C_R   0.836763 0.315249 0.194235 0.025402
C46   C     C_R   0.829179 0.679317 0.705743 0.053199
C47   C     C_R   0.336762 0.815250 0.194250 0.025391
C48   C     C_R   0.329169 0.179292 0.706004 0.053513
C49   C     C_R   0.863773 0.312182 0.347415 -0.179354
C50   C     C_R   0.855129 0.681506 0.860699 -0.211931
C51   C     C_R   0.363770 0.812187 0.347433 -0.179353
C52   C     C_R   0.354957 0.181254 0.861169 -0.210545
C53   C     C_R   0.902720 0.345704 0.396791 0.206781
C54   C     C_R   0.895277 0.648809 0.907737 0.195462
C55   C     C_R   0.402718 0.845707 0.396803 0.206787
C56   C     C_R   0.395228 0.148686 0.907857 0.194828
C57   C     C_R   0.797514 0.228622 0.177249 0.347740
C58   C     C_R   0.792189 0.766290 0.678535 0.354674
C59   C     C_R   0.297515 0.728622 0.177295 0.347708
C60   C     C_R   0.292203 0.266346 0.679019 0.354531
C61   C     C_R   0.256806 0.697085 0.126358 -0.240598
C62   C     C_R   0.252034 0.298283 0.626198 -0.229146
C63   C     C_R   0.756804 0.197086 0.126305 -0.240676
C64   C     C_R   0.751994 0.798237 0.626128 -0.229208
C65   C     C_R   0.211953 0.714079 0.039320 0.118455
C66   C     C_R   0.205900 0.281272 0.546713 0.109389
C67   C     C_R   0.711948 0.214084 0.039290 0.118519
C68   C     C_R   0.705825 0.781227 0.546848 0.109484
C69   C     C_R   0.208610 0.764098 0.003300 -0.155475
C70   C     C_R   0.200848 0.230799 0.519529 -0.148344
C71   C     C_R   0.708605 0.264105 0.003296 -0.155362
C72   C     C_R   0.700752 0.730751 0.519699 -0.148577
C73   C     C_R   0.748920 0.296143 0.054077 -0.174291
C74   C     C_R   0.740634 0.698340 0.572007 -0.174925
C75   C     C_R   0.248923 0.796138 0.054078 -0.174234
C76   C     C_R   0.240705 0.198392 0.572042 -0.175036
C77   C     C_R   0.794333 0.279390 0.141661 -0.021264
C78   C     C_R   0.787063 0.715203 0.652747 -0.032296
C79   C     C_R   0.294334 0.779389 0.141682 -0.021276
C80   C     C_R   0.287084 0.215236 0.653158 -0.032563
C81   C     C_R   0.142614 0.682743 0.833377 -0.269371
C82   C     C_R   0.134901 0.311192 0.343302 -0.270230
C83   C     C_R   0.642584 0.182766 0.833384 -0.269507
C84   C     C_R   0.634854 0.811164 0.343392 -0.270251
C85   C     C_R   0.103342 0.649334 0.784527 0.299321
C86   C     C_R   0.096106 0.344929 0.293090 0.245451
C87   C     C_R   0.603301 0.149365 0.784552 0.299269
C88   C     C_R   0.596084 0.844919 0.293128 0.245420
C89   C     C_R   0.116234 0.608450 0.037565 0.341950
C90   C     C_R   0.113727 0.390037 0.539060 0.333354
C91   C     C_R   0.616225 0.108456 0.037556 0.341682
C92   C     C_R   0.613717 0.890035 0.539078 0.333356
C93   C     C_R   0.156004 0.641104 0.087462 -0.270720
C94   C     C_R   0.153017 0.356840 0.588891 -0.267180
C95   C     C_R   0.656005 0.141103 0.087425 -0.270690
C96   C     C_R   0.652987 0.856822 0.588952 -0.267186
C97   C     C_R   0.169232 0.679384 0.986796 0.037247
C98   C     C_R   0.163676 0.316448 0.492944 0.037159
C99   C     C_R   0.669221 0.179392 0.986776 0.037466
C100  C     C_R   0.663620 0.816415 0.493051 0.037132
C101  C     C_R   0.089103 0.613911 0.888870 -0.527517
C102  C     C_R   0.084380 0.382740 0.393970 -0.497182
C103  C     C_R   0.589067 0.113939 0.888904 -0.526753
C104  C     C_R   0.584372 0.882743 0.393979 -0.497113
H77   H     H_    0.176764 0.636228 0.203637 0.165290
H78   H     H_    0.175269 0.362762 0.702139 0.164852
H79   H     H_    0.676779 0.136217 0.203574 0.165247
H80   H     H_    0.675243 0.862742 0.702195 0.164932
H81   H     H_    0.261054 0.658540 0.152655 0.163394
H82   H     H_    0.257698 0.337076 0.644835 0.163945
H83   H     H_    0.761054 0.158541 0.152582 0.163380
H84   H     H_    0.757709 0.837032 0.644589 0.163587
H85   H     H_    0.826527 0.360568 0.981769 0.163563
H86   H     H_    0.821745 0.636671 0.487570 0.148869
H87   H     H_    0.326528 0.860567 0.981775 0.163554
H88   H     H_    0.321858 0.136819 0.487437 0.148944
H89   H     H_    0.174310 0.778711 0.938040 0.137069
H90   H     H_    0.165662 0.216200 0.459640 0.144057
H91   H     H_    0.674303 0.278721 0.938057 0.137069
H92   H     H_    0.665538 0.716154 0.459983 0.144128
H93   H     H_    0.743957 0.334510 0.026641 0.143283
H94   H     H_    0.734848 0.659703 0.550658 0.145326
H95   H     H_    0.243960 0.834504 0.026622 0.143264
H96   H     H_    0.234933 0.159758 0.550578 0.145323
H97   H     H_    0.152636 0.710744 0.751485 0.158921
H98   H     H_    0.143798 0.282130 0.263666 0.161731
H99   H     H_    0.652598 0.210772 0.751499 0.158941
H100  H     H_    0.643740 0.782090 0.263786 0.161736
H101  H     H_    0.853257 0.285376 0.431882 0.191052
H102  H     H_    0.844339 0.708261 0.945151 0.182653
H103  H     H_    0.353252 0.785384 0.431905 0.191059
H104  H     H_    0.343896 0.207651 0.946246 0.183858
H105  H     H_    0.058620 0.588656 0.850075 0.168842
H106  H     H_    0.054898 0.408830 0.353564 0.165269
H107  H     H_    0.558574 0.088692 0.850134 0.168766
H108  H     H_    0.554906 0.908844 0.353543 0.165252
H109  H     H_    0.944356 0.409085 0.335406 0.170375
H110  H     H_    0.940862 0.589064 0.839077 0.154673
H111  H     H_    0.444354 0.909088 0.335417 0.170386
H112  H     H_    0.440966 0.089108 0.838849 0.155089
C105  C     C_2   0.990688 0.229544 0.476916 0.983401
O49   O     O_2   0.950694 0.225222 0.390974 -0.591957
O50   O     O_R   0.024460 0.189991 0.499231 -0.800180
H113  H     H_    0.011486 0.160040 0.437409 0.348536
C106  C     C_2   0.964583 0.742762 0.842987 1.054377
O51   O     O_2   0.954671 0.785737 0.863561 -0.533351
O52   O     O_R   0.946777 0.719295 0.701639 -0.836123
H114  H     H_    0.925069 0.741024 0.625200 0.347397
C107  C     C_2   0.490664 0.729542 0.476942 0.983428
O53   O     O_2   0.450673 0.725237 0.390983 -0.591992
O54   O     O_R   0.524419 0.689976 0.499253 -0.800204
H115  H     H_    0.511437 0.660033 0.437414 0.348561
C108  C     C_2   0.464237 0.243372 0.843889 1.055898
O55   O     O_2   0.454613 0.286337 0.865799 -0.533617
O56   O     O_R   0.446134 0.220369 0.702002 -0.836682
H116  H     H_    0.424514 0.242436 0.626439 0.346823
N1    N     N_R   0.842353 0.207231 0.258873 0.240758
O57   O     O_R   0.873249 0.183279 0.175600 -0.361022
O58   O     O_R   0.841397 0.195779 0.408026 -0.367005
N2    N     N_R   0.838947 0.787453 0.747866 0.226610
O59   O     O_R   0.866460 0.812206 0.655557 -0.364550
O60   O     O_R   0.843088 0.797746 0.899065 -0.367063
N3    N     N_R   0.342352 0.707232 0.258932 0.240766
O61   O     O_R   0.373239 0.683265 0.175676 -0.360996
O62   O     O_R   0.341396 0.695795 0.408096 -0.367012
N4    N     N_R   0.338799 0.287551 0.749607 0.226511
O63   O     O_R   0.365510 0.313990 0.659848 -0.363523
O64   O     O_R   0.343258 0.296088 0.901785 -0.368901

loop_
_geom_bond_atom_site_label_1
_geom_bond_atom_site_label_2
_geom_bond_distance
_ccdc_geom_bond_type
C31   C107  1.504160 S    
C15   H31   1.105816 S    
C58   N2    1.426860 S    
C11   H23   1.109203 S    
C26   H58   1.110717 S    
O52   H114  1.011192 S    
C2    H10   1.110264 S    
C84   C88   1.407340 A    
C18   H42   1.105107 S    
C69   C75   1.407040 A    
N1    O57   1.299828 A    
C59   C61   1.406303 A    
O38   C13   1.396993 S    
C20   H48   1.110793 S    
C4    C32   1.529408 S    
P10   C85   1.829601 S    
C91   C103  1.389154 A    
C89   C93   1.405795 A    
O42   C6    1.396724 S    
P4    O8    1.563476 S    
O6    Ba1   2.798483 S    
C86   C102  1.394939 A    
P11   O35   1.546237 D    
C25   H57   1.110769 S    
O9    Ba1   2.743265 S    
C27   H63   1.104708 S    
P9    O41   1.748928 S    
O18   C22   1.395702 S    
C22   H50   1.105328 S    
P11   O43   1.748921 S    
C60   N4    1.427377 S    
C5    H17   1.112051 S    
C73   C77   1.413286 A    
N4    O64   1.300568 A    
C50   H102  1.079737 S    
C4    H72   1.110690 S    
O32   Ba4   2.742641 S    
P5    C90   1.849707 S    
C66   C98   1.502562 S    
C10   H22   1.108868 S    
C20   H44   1.105102 S    
P1    C37   1.860001 S    
Ba1   O46   2.946488 S    
C14   H30   1.106526 S    
O16   P15   1.549598 D    
C65   C69   1.405704 A    
C10   H74   1.109424 S    
C42   C46   1.420152 A    
P12   O44   1.748699 S    
C84   C100  1.413992 A    
C64   C68   1.402367 A    
C34   C38   1.391188 A    
O39   C16   1.394565 S    
C21   H49   1.106513 S    
H3    C31   1.114644 S    
H4    C32   1.114201 S    
P1    O1    1.536425 D    
C4    H12   1.110213 S    
C44   H88   1.082517 S    
C22   H54   1.110701 S    
C47   C79   1.516557 S    
C23   C27   1.521709 S    
C87   C103  1.386841 A    
O10   Ba2   2.743069 S    
O22   P13   1.752630 S    
C14   H34   1.111185 S    
O10   P13   1.753065 S    
P10   O42   1.748647 S    
C105  O50   1.399610 S    
C70   C76   1.407959 A    
C82   H98   1.082624 S    
C17   H45   1.110821 S    
C34   H110  1.082456 S    
C74   H94   1.082842 S    
O28   Ba4   2.827555 S    
P3    O7    1.563827 S    
O24   C32   1.415638 S    
C40   C44   1.412731 A    
C21   H53   1.111318 S    
C5    H13   1.110954 S    
C95   C99   1.414931 A    
C7    H15   1.110955 S    
C90   C102  1.395623 A    
C36   C40   1.391089 A    
C83   C87   1.407967 A    
C92   C104  1.395628 A    
C96   C100  1.415935 A    
C89   C101  1.389091 A    
C43   H87   1.081934 S    
P13   C54   1.841286 S    
C72   C74   1.408037 A    
C46   C78   1.511666 S    
O29   Ba1   2.742447 S    
O14   P13   1.549652 D    
C82   C98   1.413991 A    
O31   Ba3   2.742447 S    
P9    O29   1.756619 S    
C19   H43   1.105649 S    
C29   C105  1.504192 S    
P9    C86   1.842849 S    
P12   O32   1.768584 S    
C9    H25   1.108799 S    
O4    Ba4   2.824905 S    
P2    O6    1.563476 S    
C11   H27   1.108786 S    
C3    H11   1.109880 S    
C18   H38   1.110738 S    
P16   C55   1.844778 S    
C85   C101  1.386772 A    
N2    O60   1.302131 A    
P5    O25   1.536122 D    
C33   C53   1.393338 A    
C94   H78   1.082400 S    
C63   C67   1.401892 A    
C108  O56   1.395673 S    
C51   C55   1.404996 A    
C16   H36   1.111191 S    
C84   H100  1.082625 S    
C65   C97   1.501399 S    
C82   C86   1.407352 A    
C6    C10   1.524608 S    
C69   H89   1.082839 S    
C88   C104  1.394926 A    
C28   H68   1.110807 S    
P2    O18   1.749243 S    
C107  O53   1.219437 D    
C36   C56   1.389743 A    
C13   C17   1.521484 S    
C62   C66   1.402326 A    
C27   H67   1.110775 S    
C24   H52   1.105337 S    
C15   C19   1.521483 S    
C106  O51   1.222526 D    
O19   C23   1.393670 S    
C26   H66   1.110808 S    
O17   C21   1.393684 S    
O25   Ba1   2.827045 S    
C7    C11   1.518796 S    
O27   Ba3   2.827045 S    
O30   Ba2   2.742641 S    
C51   H103  1.078566 S    
C20   H40   1.110737 S    
C61   H81   1.083420 S    
Ba2   O45   2.946401 S    
C33   H109  1.082156 S    
C1    C29   1.525308 S    
C8    H16   1.106956 S    
P12   C87   1.829715 S    
P7    Ba3   3.397560 S    
C11   H75   1.109434 S    
C12   H76   1.109341 S    
C93   C97   1.414917 A    
C44   C48   1.420383 A    
C13   H33   1.110737 S    
C28   H64   1.105054 S    
P5    O37   1.748416 S    
C25   H65   1.110787 S    
C50   C54   1.407953 A    
C33   C37   1.395135 A    
C103  H107  1.082534 S    
C22   C26   1.521697 S    
C47   C51   1.414884 A    
C104  H108  1.082196 S    
P8    C91   1.833440 S    
C23   H55   1.111294 S    
C72   H92   1.082783 S    
C45   C49   1.414897 A    
O1    Ba1   2.825407 S    
O11   Ba3   2.743265 S    
O3    Ba3   2.825407 S    
P3    C39   1.860008 S    
Ba3   O48   2.946488 S    
O24   P15   1.752492 S    
C62   H82   1.083382 S    
C12   H28   1.110610 S    
C14   C18   1.521695 S    
C3    H71   1.107586 S    
C1    H69   1.107598 S    
C8    H20   1.109317 S    
C17   H41   1.105632 S    
O9    P14   1.754329 S    
O26   Ba2   2.827555 S    
C35   H111  1.082156 S    
C75   H95   1.082276 S    
C48   C52   1.415345 A    
O37   C14   1.394535 S    
P6    O38   1.749767 S    
P3    O3    1.536425 D    
P4    O20   1.749245 S    
Ba1   O45   2.798556 S    
C21   C25   1.521725 S    
C81   C97   1.412982 A    
C38   C42   1.412492 A    
H1    C29   1.114674 S    
C30   C106  1.499947 S    
O41   C5    1.404207 S    
C57   C77   1.424816 A    
C36   H112  1.082453 S    
C52   H104  1.079089 S    
P4    O4    1.536447 D    
C6    H18   1.109293 S    
N1    O58   1.301014 A    
P9    O33   1.546231 D    
P4    Ba4   3.395913 S    
C19   H47   1.110821 S    
N3    O61   1.299818 A    
P10   O30   1.768934 S    
C71   H91   1.082841 S    
O11   P16   1.754326 S    
P1    O5    1.563827 S    
O2    Ba2   2.824905 S    
P12   O36   1.549091 D    
C52   C56   1.407402 A    
C9    H21   1.109211 S    
O21   C29   1.412332 S    
C81   C85   1.407954 A    
C3    H7    1.107409 S    
O56   H116  1.011264 S    
C105  O49   1.219477 D    
C39   C43   1.412846 A    
P8    Ba4   3.397801 S    
O20   C24   1.395726 S    
O50   H113  1.013837 S    
P6    O26   1.536099 D    
C57   C63   1.406314 A    
C59   C79   1.424827 A    
P8    O40   1.749776 S    
C41   C45   1.422233 A    
C48   C80   1.511843 S    
C41   H85   1.081936 S    
C16   C20   1.521688 S    
C73   H93   1.082276 S    
Ba1   Ba2   4.617569 S    
Ba3   Ba4   4.617569 S    
O54   H115  1.013804 S    
P7    C92   1.849639 S    
N4    O63   1.300774 A    
C91   C95   1.405795 A    
C70   H90   1.082777 S    
C24   H56   1.110702 S    
C15   H35   1.110738 S    
C1    H9    1.109902 S    
C26   H62   1.105038 S    
C18   H46   1.110794 S    
C7    H19   1.112050 S    
C35   C55   1.393340 A    
C45   C77   1.516558 S    
C1    H5    1.107430 S    
C75   C79   1.413286 A    
C107  O54   1.399598 S    
C6    H14   1.106859 S    
C2    C30   1.529564 S    
C67   C71   1.405710 A    
P1    O17   1.747887 S    
C108  O55   1.222472 D    
C58   C78   1.422001 A    
P3    O19   1.747862 S    
C28   H60   1.110717 S    
C25   H61   1.104760 S    
O8    Ba3   2.798483 S    
C27   H59   1.110765 S    
P14   C53   1.844800 S    
P1    Ba1   3.396147 S    
C23   H51   1.106504 S    
C71   C73   1.407039 A    
C83   C99   1.413006 A    
P3    Ba3   3.396147 S    
C49   H101  1.078570 S    
P2    C38   1.849380 S    
C102  H106  1.082195 S    
C63   H83   1.083417 S    
C10   H26   1.110667 S    
C16   H32   1.106528 S    
C12   H24   1.108873 S    
P5    Ba1   3.397560 S    
C9    H73   1.109442 S    
C8    C12   1.524567 S    
C43   C47   1.422239 A    
C2    H70   1.110716 S    
C17   H37   1.110690 S    
C34   C54   1.389949 A    
C24   C28   1.521690 S    
C58   C64   1.406102 A    
C60   C80   1.422705 A    
C93   H77   1.082442 S    
P2    O2    1.536447 D    
P7    O39   1.748418 S    
C74   C78   1.411466 A    
C35   C39   1.395134 A    
P7    O48   1.568258 S    
Ba2   O46   2.798055 S    
O12   P15   1.752821 S    
C57   N1    1.427086 S    
P8    O47   1.568615 S    
C95   H79   1.082441 S    
P6    C89   1.833303 S    
C68   C72   1.407122 A    
C4    H8    1.108592 S    
H2    C30   1.114152 S    
C37   C41   1.412837 A    
C66   C70   1.407008 A    
P6    O45   1.568615 S    
C92   C96   1.405976 A    
N3    O62   1.301007 A    
O23   P16   1.749355 S    
C3    C31   1.525274 S    
C61   C65   1.401875 A    
O21   P14   1.749350 S    
C81   H97   1.082663 S    
C67   C99   1.501429 S    
O44   C8    1.396792 S    
P4    C40   1.849439 S    
O12   Ba4   2.743069 S    
P2    Ba2   3.395913 S    
C83   H99   1.082662 S    
N2    O59   1.302336 A    
C60   C62   1.406309 A    
P15   C56   1.840728 S    
P10   O34   1.549026 D    
P11   O31   1.756599 S    
C76   H96   1.082849 S    
Ba3   O47   2.798556 S    
C76   C80   1.411504 A    
C59   N3    1.427085 S    
Ba4   O48   2.798055 S    
P7    O27   1.536122 D    
C5    C9    1.518795 S    
P8    O28   1.536099 D    
O22   C30   1.415637 S    
P11   C88   1.842861 S    
C2    H6    1.108586 S    
P6    Ba2   3.397801 S    
P5    O46   1.568258 S    
C101  H105  1.082538 S    
C96   H80   1.082411 S    
C94   C98   1.415991 A    
O5    Ba2   2.798983 S    
O7    Ba4   2.798983 S    
O40   C15   1.397009 S    
C68   C100  1.502471 S    
O43   C7    1.404209 S    
C42   H86   1.082529 S    
C49   C53   1.405013 A    
C32   C108  1.500080 S    
C106  O52   1.395768 S    
O15   P16   1.546138 D    
C90   C94   1.405992 A    
O13   P14   1.546146 D    
C46   C50   1.415689 A    
Ba4   O47   2.946401 S    
C19   H39   1.110690 S    
C64   H84   1.083398 S    
C13   H29   1.105816 S    
O23   C31   1.412325 S    
