data_mof_unit_68340.cif
_audit_creation_date              2012-12-10T18:00:15-0500
_audit_creation_method            fapswitch 2.2
_symmetry_space_group_name_H-M    P1
_symmetry_Int_Tables_number       1
_space_group_crystal_system       triclinic
_cell_length_a                    10.94291
_cell_length_b                    9.653917
_cell_length_c                    10.712179
_cell_angle_alpha                 90.248988
_cell_angle_beta                  91.575743
_cell_angle_gamma                 90.156254
_cell_volume                      1131.21221561

loop_
_atom_site_label
_atom_site_type_symbol
_atom_type_description
_atom_site_fract_x
_atom_site_fract_y
_atom_site_fract_z
_atom_type_partial_charge
C1    C     C_R   0.871906 0.503730 0.513417 -0.382947
C2    C     C_R   0.128735 0.501934 0.507244 -0.401318
C3    C     C_R   0.262499 0.500143 0.500572 0.828979
C4    C     C_R   0.737597 0.500817 0.505424 0.864060
C5    C     C_R   0.505135 0.499742 0.260496 0.799842
C6    C     C_R   0.496922 0.500528 0.739503 0.816561
C7    C     C_3   0.390484 0.517917 0.042999 0.041970
C8    C     C_3   0.614038 0.484480 0.956330 0.054498
C9    C     C_3   0.457421 0.622174 0.960942 0.150524
C10   C     C_3   0.547572 0.379985 0.038340 0.158259
C11   C     C_3   0.430163 0.398030 0.958199 0.132150
C12   C     C_3   0.574468 0.603794 0.041420 0.102897
C13   C     C_3   0.496899 0.502239 0.874982 -0.099839
C14   C     C_3   0.507605 0.499426 0.124733 -0.129147
C15   C     C_R   0.450442 0.072321 0.401335 0.196622
C16   C     C_R   0.552097 0.925455 0.597155 0.164918
C17   C     C_R   0.547891 0.073871 0.599574 0.187883
C18   C     C_R   0.444588 0.924121 0.404912 0.206864
C19   C     C_R   0.060979 0.378138 0.498548 0.347452
C20   C     C_R   0.938027 0.629738 0.511902 0.304399
C21   C     C_R   0.937308 0.379582 0.523369 0.298599
C22   C     C_R   0.065293 0.627496 0.527196 0.366013
Cu1   Cu    Cu3+1 0.500000 0.640660 0.500000 0.997770
Cu2   Cu    Cu3+1 0.500000 0.359340 0.500000 1.012484
N1    N     N_R   0.500000 0.852070 0.500000 -0.162798
N2    N     N_R   0.500000 0.147930 0.500000 -0.156644
O1    O     O_R   0.319640 0.618740 0.499990 -0.547599
O2    O     O_R   0.680360 0.381260 0.500010 -0.535317
O3    O     O_R   0.680360 0.618740 0.500010 -0.542048
O4    O     O_R   0.319640 0.381260 0.499990 -0.539556
O5    O     O_R   0.499970 0.618770 0.316850 -0.551861
O6    O     O_R   0.500030 0.381230 0.683150 -0.539399
O7    O     O_R   0.500030 0.618770 0.683150 -0.557883
O8    O     O_R   0.499970 0.381230 0.316850 -0.553101
N3    N     N_3   0.409242 0.141585 0.290614 -0.525777
H1    H     H_    0.322462 0.106256 0.264583 0.156655
H2    H     H_    0.466544 0.111220 0.219322 0.231349
N4    N     N_3   0.612404 0.851456 0.696435 -0.510728
H3    H     H_    0.705563 0.873771 0.696972 0.206934
H4    H     H_    0.576804 0.881990 0.781670 0.216938
N5    N     N_3   0.590014 0.145451 0.709403 -0.511023
H5    H     H_    0.676430 0.110250 0.735386 0.195251
H6    H     H_    0.531367 0.120745 0.781454 0.219918
N6    N     N_3   0.378010 0.849077 0.309634 -0.523264
H7    H     H_    0.286324 0.879044 0.310395 0.196853
H8    H     H_    0.413969 0.872532 0.222879 0.193538
N7    N     N_3   0.351320 0.285634 0.913337 -0.578983
H9    H     H_    0.317908 0.235521 0.991715 0.218534
H10   H     H_    0.276245 0.330455 0.866761 0.216884
N8    N     N_3   0.653695 0.715866 0.085734 -0.597325
H11   H     H_    0.683703 0.768691 0.007278 0.224388
H12   H     H_    0.730829 0.670514 0.127867 0.193770
N9    N     N_3   0.267810 0.537271 0.089241 -0.619559
H13   H     H_    0.269284 0.626649 0.144615 0.233443
H14   H     H_    0.250047 0.454481 0.148348 0.210310
N10   N     N_3   0.735884 0.465473 0.907878 -0.624110
H15   H     H_    0.797574 0.466310 0.984042 0.209634
H16   H     H_    0.755350 0.552318 0.853957 0.225189
N11   N     N_3   0.408601 0.755116 0.920259 -0.594746
H17   H     H_    0.413561 0.822375 0.996852 0.219409
H18   H     H_    0.315848 0.740513 0.899535 0.213895
N12   N     N_3   0.600716 0.249108 0.078193 -0.591132
H19   H     H_    0.685336 0.272167 0.120874 0.213404
H20   H     H_    0.618621 0.191740 0.997865 0.229074
O9    O     O_3   0.111674 0.252131 0.468407 -0.561919
C23   C     C_3   0.117551 0.237293 0.336595 0.102181
H21   H     H_    0.131758 0.125356 0.318533 0.159953
H22   H     H_    0.197613 0.295183 0.302594 0.152565
C24   C     C_3   0.002304 0.280879 0.259727 -0.425945
H23   H     H_    0.919593 0.235105 0.300358 0.257660
H24   H     H_    0.993081 0.395551 0.260319 0.194668
C25   C     C_3   0.009758 0.233445 0.124578 -0.951560
H25   H     H_    0.090484 0.280148 0.080167 0.263925
H26   H     H_    0.926005 0.266126 0.072017 0.267008
H27   H     H_    0.016757 0.118823 0.120507 0.258401
O10   O     O_3   0.879713 0.756400 0.512305 -0.576423
C26   C     C_3   0.870348 0.805213 0.388308 0.095860
H28   H     H_    0.806345 0.738165 0.332533 0.150878
H29   H     H_    0.960824 0.806034 0.342707 0.123610
C27   C     C_3   0.822022 0.953406 0.390313 -0.292859
H30   H     H_    0.751853 0.963519 0.462150 0.232193
H31   H     H_    0.898403 0.024905 0.415781 0.247559
C28   C     C_3   0.764291 0.995320 0.265148 -0.934592
H32   H     H_    0.682879 0.929995 0.243196 0.280397
H33   H     H_    0.831085 0.985259 0.189501 0.259386
H34   H     H_    0.733474 0.104292 0.271325 0.269509
O11   O     O_3   0.882705 0.257212 0.557246 -0.575573
C29   C     C_3   0.904201 0.239528 0.687253 0.108754
H35   H     H_    0.823999 0.280746 0.736426 0.182222
H36   H     H_    0.986946 0.294585 0.726388 0.118279
C30   C     C_3   0.922249 0.086165 0.715251 -0.317311
H37   H     H_    0.852936 0.024620 0.662525 0.222071
H38   H     H_    0.013176 0.052960 0.682456 0.244927
C31   C     C_3   0.913681 0.057853 0.855039 -1.014153
H39   H     H_    0.002017 0.085339 0.901919 0.274644
H40   H     H_    0.893979 0.946974 0.871813 0.256900
H41   H     H_    0.838951 0.118181 0.897271 0.265613
O12   O     O_3   0.124240 0.751091 0.556288 -0.566138
C32   C     C_3   0.168490 0.749307 0.682203 0.149649
H42   H     H_    0.227514 0.842369 0.695221 0.141831
H43   H     H_    0.229169 0.659643 0.702651 0.136255
C33   C     C_3   0.066165 0.757628 0.777770 -0.425729
H44   H     H_    0.095104 0.830061 0.853999 0.194817
H45   H     H_    0.981530 0.798472 0.732682 0.275608
C34   C     C_3   0.038339 0.617577 0.836723 -0.889822
H46   H     H_    0.997906 0.545278 0.766367 0.244119
H47   H     H_    0.971982 0.632205 0.912140 0.248914
H48   H     H_    0.122750 0.571118 0.877981 0.269663

loop_
_geom_bond_atom_site_label_1
_geom_bond_atom_site_label_2
_ccdc_geom_bond_type
C15   C18   A    
C6    O6    A    
O11   C29   S    
C21   O11   S    
C1    C21   A    
C8    C13   S    
C22   O12   S    
C3    O4    A    
N5    H5    S    
C11   N7    S    
N3    H1    S    
C8    N10   S    
N7    H10   S    
N9    H13   S    
C7    C11   S    
C34   H47   S    
C17   N2    A    
Cu1   O3    S    
N3    H2    S    
Cu2   N2    S    
C27   C28   S    
N4    H3    S    
C23   C24   S    
C23   H22   S    
N10   H15   S    
C20   O10   S    
C33   C34   S    
C24   H24   S    
C9    C13   S    
N12   H20   S    
C7    C14   S    
C28   H32   S    
C16   C17   A    
Cu1   O7    S    
C2    C22   A    
N8    H12   S    
Cu1   Cu2   S    
Cu1   O1    S    
C4    O3    A    
N9    H14   S    
C23   H21   S    
N11   H17   S    
N5    H6    S    
C10   N12   S    
C18   N1    A    
C25   H27   S    
C15   N3    S    
C4    O2    A    
N6    H8    S    
Cu2   O4    S    
C26   H29   S    
C34   H48   S    
N11   H18   S    
C33   H44   S    
O10   C26   S    
C25   H26   S    
C10   C14   S    
C30   H37   S    
C27   H30   S    
C15   N2    A    
C31   H41   S    
C26   H28   S    
Cu2   O8    S    
C9    N11   S    
Cu1   O5    S    
C24   C25   S    
C33   H45   S    
Cu2   O6    S    
N12   H19   S    
C18   N6    S    
C30   H38   S    
N7    H9    S    
C29   C30   S    
C8    C12   S    
C5    O8    A    
C28   H34   S    
N8    H11   S    
C31   H39   S    
C31   H40   S    
C5    C14   S    
C27   H31   S    
C28   H33   S    
C20   C22   A    
O12   C32   S    
C7    N9    S    
N6    H7    S    
C26   C27   S    
C16   N1    A    
C7    C9    S    
C1    C20   A    
C19   C21   A    
C2    C19   A    
Cu2   O2    S    
C29   H36   S    
C25   H25   S    
C12   N8    S    
C34   H46   S    
C6    O7    A    
C1    C4    S    
C3    O1    A    
C2    C3    S    
C12   C14   S    
C32   H42   S    
C30   C31   S    
N4    H4    S    
C11   C13   S    
N10   H16   S    
C19   O9    S    
Cu1   N1    S    
C24   H23   S    
C9    C12   S    
C17   N5    S    
C10   C11   S    
C32   C33   S    
C29   H35   S    
C8    C10   S    
O9    C23   S    
C5    O5    A    
C32   H43   S    
C16   N4    S    
C6    C13   S    
