data_mof_unit_44420.cif
_audit_creation_date              2012-12-10T20:40:53-0500
_audit_creation_method            fapswitch 2.2
_symmetry_space_group_name_H-M    P1
_symmetry_Int_Tables_number       1
_space_group_crystal_system       triclinic
_cell_length_a                    27.6054
_cell_length_b                    10.640681
_cell_length_c                    9.83575
_cell_angle_alpha                 89.881129
_cell_angle_beta                  90.532442
_cell_angle_gamma                 90.241464
_cell_volume                      2888.99932555

loop_
_atom_site_label
_atom_site_type_symbol
_atom_type_description
_atom_site_fract_x
_atom_site_fract_y
_atom_site_fract_z
_atom_type_partial_charge
C1    C     C_R   0.501825 0.259823 0.500167 0.881288
C2    C     C_R   0.975271 0.364130 0.443603 0.061059
C3    C     C_R   0.974189 0.581617 0.362975 -0.021553
C4    C     C_R   0.405845 0.500443 0.499074 0.866951
C5    C     C_R   0.949271 0.473925 0.408007 0.081437
C6    C     C_R   0.951111 0.267303 0.512950 -0.206663
C7    C     C_R   0.901424 0.271218 0.530908 -0.083577
C8    C     C_R   0.874684 0.374078 0.483521 -0.014763
C9    C     C_R   0.898421 0.477067 0.422022 -0.092444
C10   C     C_R   0.871643 0.583478 0.377682 -0.171200
C11   C     C_R   0.821173 0.582705 0.400778 0.621565
C12   C     C_R   0.275092 0.475982 0.603495 -0.091795
C13   C     C_R   0.824668 0.377593 0.499640 0.602046
C14   C     C_R   0.717971 0.434645 0.365924 0.455326
C15   C     C_R   0.668077 0.441355 0.380865 -0.338248
C16   C     C_R   0.502046 0.740115 0.499959 0.898482
C17   C     C_R   0.677955 0.539242 0.603846 0.413315
C18   C     C_R   0.728074 0.530083 0.588892 -0.216434
C19   C     C_R   0.747941 0.479580 0.471039 0.121025
C20   C     C_R   0.025551 0.358430 0.418978 -0.010308
C21   C     C_R   0.050881 0.472350 0.403455 0.038827
C22   C     C_R   0.025298 0.585280 0.375227 0.098703
C23   C     C_R   0.251985 0.492364 0.477442 0.325381
C24   C     C_R   0.051283 0.243712 0.406655 0.102388
C25   C     C_R   0.101140 0.701127 0.384992 -0.152581
C26   C     C_R   0.947320 0.682969 0.310670 -0.286200
C27   C     C_R   0.896727 0.684602 0.313655 0.388331
C28   C     C_R   0.594249 0.500663 0.500528 0.955808
C29   C     C_R   0.051444 0.698913 0.366134 -0.219610
C30   C     C_R   0.511437 0.063739 0.623931 0.169144
C31   C     C_R   0.510712 0.128721 0.501008 -0.117337
C32   C     C_R   0.520224 0.065376 0.379245 -0.208708
C33   C     C_R   0.520414 0.935468 0.379159 -0.199535
C34   C     C_R   0.101695 0.473886 0.418534 -0.094819
C35   C     C_R   0.511110 0.871253 0.500845 -0.106305
C36   C     C_R   0.511759 0.935615 0.623914 0.192746
C37   C     C_3   0.477971 0.927189 0.741568 -0.489702
C38   C     C_3   0.477381 0.069498 0.741000 -0.500576
C39   C     C_R   0.479903 0.401931 0.071200 0.221947
C40   C     C_R   0.177854 0.372113 0.473382 0.510861
C41   C     C_R   0.523450 0.591234 0.072490 -0.105541
C42   C     C_R   0.523319 0.591440 0.928378 -0.042464
C43   C     C_R   0.479695 0.402221 0.928315 0.226694
C44   C     C_3   0.427805 0.362739 0.922744 -0.529902
C45   C     C_R   0.127379 0.360811 0.445131 -0.085741
C46   C     C_3   0.428367 0.360676 0.076852 -0.505968
C47   C     C_R   0.176101 0.594013 0.436350 0.499273
C48   C     C_R   0.279089 0.513932 0.360538 -0.114673
C49   C     C_R   0.329162 0.518413 0.368771 -0.213014
C50   C     C_R   0.325512 0.480128 0.612000 -0.225628
C51   C     C_3   0.126366 0.116888 0.463348 -0.349356
C52   C     C_3   0.156315 0.072408 0.342206 -0.750255
C53   C     C_3   0.027051 0.130016 0.336806 -0.432724
C54   C     C_3   0.002454 0.165401 0.202014 -0.744618
C55   C     C_R   0.101848 0.243035 0.436271 0.127518
C56   C     C_R   0.126410 0.590237 0.412704 0.008128
C57   C     C_R   0.352861 0.500411 0.494246 -0.040130
C58   C     C_R   0.647392 0.493869 0.497875 -0.228727
H1    H     H_    0.342949 0.466076 0.709693 0.150063
H2    H     H_    0.254013 0.459535 0.694152 0.139135
H3    H     H_    0.495789 0.886878 0.833524 0.210694
H4    H     H_    0.441527 0.109036 0.711861 0.199865
H5    H     H_    0.494605 0.111523 0.832960 0.216931
H6    H     H_    0.541647 0.666023 0.127316 0.159553
H7    H     H_    0.541292 0.666568 0.874286 0.192262
H8    H     H_    0.403976 0.436990 0.879834 0.213622
H9    H     H_    0.422716 0.268220 0.877386 0.203623
H10   H     H_    0.404415 0.432587 0.122203 0.214407
H11   H     H_    0.424592 0.264649 0.120303 0.207081
H12   H     H_    0.261177 0.526699 0.263070 0.136180
H13   H     H_    0.645079 0.405954 0.299731 0.216556
H14   H     H_    0.884161 0.193983 0.583873 0.207718
H15   H     H_    0.970781 0.191461 0.560912 0.148732
H16   H     H_    0.349215 0.535803 0.276574 0.154053
H17   H     H_    0.715493 0.614432 0.897252 0.394875
H18   H     H_    0.840075 0.700091 0.066469 0.355129
H19   H     H_    0.132486 0.045768 0.255498 0.223005
H20   H     H_    0.181530 0.146385 0.306098 0.283654
H21   H     H_    0.177773 0.988702 0.372493 0.269672
H22   H     H_    0.148381 0.120309 0.557908 0.251584
H23   H     H_    0.119583 0.791072 0.380266 0.182793
H24   H     H_    0.099502 0.042707 0.488560 0.166428
H25   H     H_    0.686517 0.242042 0.149471 0.366415
H26   H     H_    0.969879 0.223732 0.218652 0.276119
H27   H     H_    0.028178 0.217397 0.136147 0.246272
H28   H     H_    0.990665 0.078724 0.148151 0.266438
H29   H     H_    0.053553 0.057180 0.309505 0.209785
H30   H     H_    0.000955 0.081021 0.403024 0.210773
H31   H     H_    0.965470 0.760662 0.262259 0.187271
H32   H     H_    0.752332 0.564890 0.667377 0.194060
H33   H     H_    0.034130 0.788777 0.351871 0.140632
H34   H     H_    0.523710 0.114850 0.283418 0.176666
H35   H     H_    0.523970 0.886542 0.283301 0.170984
H36   H     H_    0.442401 0.884348 0.713979 0.205101
N1    N     N_R   0.200456 0.486431 0.466042 -0.352441
N2    N     N_R   0.799276 0.479715 0.456578 -0.346218
N3    N     N_R   0.499670 0.499140 0.142800 -0.117808
N4    N     N_R   0.499670 0.499180 0.857150 -0.117441
O1    O     O_R   0.500010 0.316790 0.614690 -0.615030
O2    O     O_R   0.571250 0.500000 0.614690 -0.543340
O3    O     O_R   0.571240 0.499960 0.385340 -0.622054
O4    O     O_2   0.204859 0.271440 0.506617 -0.575682
O5    O     O_2   0.620126 0.713648 0.712319 -0.286346
O6    O     O_2   0.631624 0.518570 0.841070 -0.280276
O7    O     O_3   0.701653 0.682216 0.839878 -0.480411
O8    O     O_2   0.846076 0.898141 0.336707 -0.169581
O9    O     O_2   0.903598 0.889727 0.150242 -0.316329
O10   O     O_3   0.824001 0.762250 0.125548 -0.415768
O11   O     O_2   0.770205 0.474796 0.142322 -0.252528
O12   O     O_2   0.801305 0.279817 0.557692 -0.491999
O13   O     O_2   0.775736 0.266479 0.245805 -0.238995
O14   O     O_3   0.697739 0.322256 0.109035 -0.497875
O15   O     O_2   0.200199 0.704637 0.430594 -0.574270
O16   O     O_2   0.793739 0.683479 0.370983 -0.418639
O17   O     O_R   0.500000 0.316760 0.385350 -0.625606
O18   O     O_R   0.428760 0.500040 0.614660 -0.628121
O19   O     O_R   0.428750 0.500000 0.385310 -0.623812
O20   O     O_R   0.500000 0.683240 0.614650 -0.616431
O21   O     O_R   0.499990 0.683210 0.385310 -0.632900
S1    S     S_3+6 0.656078 0.614070 0.751826 0.069345
S2    S     S_3+6 0.867923 0.814017 0.231365 0.106781
S3    S     S_3+6 0.742119 0.373451 0.213685 0.080123
Zn1   Zn    Zn3+2 0.500000 0.500020 0.653130 0.999948
Zn2   Zn    Zn3+2 0.500000 0.499980 0.346870 0.958431

loop_
_geom_bond_atom_site_label_1
_geom_bond_atom_site_label_2
_ccdc_geom_bond_type
C10   C27   A    
C11   N2    A    
C34   C56   A    
C8    C13   A    
C14   S3    S    
O18   Zn1   S    
C41   C42   A    
C44   H8    S    
O5    S1    D    
C25   C56   A    
O10   S2    S    
C1    O1    A    
C54   H26   S    
C27   S2    S    
C7    C8    A    
C53   C54   S    
C24   C55   A    
C5    C9    A    
C12   C23   A    
C26   C27   A    
C37   C38   S    
C50   H1    S    
C36   C37   S    
C22   C29   A    
O19   Zn2   S    
N3    Zn2   S    
C42   N4    A    
C16   C35   S    
C30   C31   A    
O11   S3    D    
C39   N3    A    
C1    C31   S    
C49   C57   A    
C30   C38   S    
C18   C19   A    
C11   O16   S    
C51   H22   S    
C46   H11   S    
C17   S1    S    
C28   O3    A    
C20   C24   A    
C8    C9    A    
C4    C57   S    
C42   H7    S    
C43   N4    A    
O7    S1    S    
C23   C48   A    
C52   H21   S    
C9    C10   A    
C17   C58   A    
C28   O2    A    
H18   O10   S    
C21   C22   A    
O13   S3    D    
C25   H23   S    
C2    C6    A    
C52   H20   S    
C44   C46   S    
C25   C29   A    
N4    Zn1   S    
O3    Zn2   S    
C44   H9    S    
C13   N2    A    
C2    C20   A    
C51   C52   S    
C18   H32   S    
C49   H16   S    
C16   O21   A    
C7    H14   S    
C54   H28   S    
C39   C43   A    
C21   C34   A    
C24   C53   S    
O21   Zn2   S    
C26   H31   S    
C35   C36   A    
C43   C44   S    
C46   H10   S    
C13   O12   S    
C16   O20   A    
C37   H3    S    
C31   C32   A    
C17   C18   A    
C53   H29   S    
C34   C45   A    
C51   H24   S    
C39   C46   S    
C48   C49   A    
H17   O7    S    
C15   C58   A    
C41   N3    A    
C4    O19   A    
C2    C5    A    
O9    S2    D    
C40   N1    A    
C52   H19   S    
C29   H33   S    
C6    H15   S    
O1    Zn1   S    
C38   H5    S    
C47   O15   S    
O17   Zn2   S    
C14   C15   A    
C50   C57   A    
C14   C19   A    
C4    O18   A    
C3    C26   A    
C48   H12   S    
C3    C5    A    
C33   H35   S    
C54   H27   S    
C12   C50   A    
C6    C7    A    
C28   C58   S    
C15   H13   S    
O14   S3    S    
C30   C36   A    
O2    Zn1   S    
C40   C45   A    
C32   C33   A    
C32   H34   S    
O8    S2    D    
C33   C35   A    
C23   N1    S    
C37   H36   S    
C53   H30   S    
C51   C55   S    
O20   Zn1   S    
C10   C11   A    
C40   O4    S    
C12   H2    S    
C20   C21   A    
C45   C55   A    
C47   N1    A    
H25   O14   S    
C3    C22   A    
C1    O17   A    
C41   H6    S    
O6    S1    D    
C19   N2    S    
C47   C56   A    
C38   H4    S    
