data_mof_unit_49122.cif
_audit_creation_date              2012-12-11T15:16:43-0500
_audit_creation_method            fapswitch 2.2
_symmetry_space_group_name_H-M    P1
_symmetry_Int_Tables_number       1
_space_group_crystal_system       triclinic
_cell_length_a                    25.05605
_cell_length_b                    7.244552
_cell_length_c                    22.041602
_cell_angle_alpha                 89.999387
_cell_angle_beta                  109.991196
_cell_angle_gamma                 90.0
_cell_volume                      3759.90954363

loop_
_atom_site_label
_atom_site_type_symbol
_atom_type_description
_atom_site_fract_x
_atom_site_fract_y
_atom_site_fract_z
_atom_type_partial_charge
O1    O     O_R   0.554350 0.505270 0.581390 -0.539213
O2    O     O_R   0.445650 0.005270 0.418610 -0.539216
O3    O     O_R   0.553380 0.177580 0.454800 -0.547240
O4    O     O_R   0.446620 0.677580 0.545200 -0.547241
C1    C     C_R   0.565680 0.344177 0.438032 0.750415
C2    C     C_R   0.434320 0.844176 0.561967 0.750424
O5    O     O_R   0.560970 0.175640 0.583140 -0.528455
O6    O     O_R   0.439030 0.675640 0.416860 -0.528455
O7    O     O_R   0.453290 0.004120 0.547860 -0.515249
O8    O     O_R   0.546710 0.504120 0.452140 -0.515251
C3    C     C_R   0.576602 0.344304 0.607003 0.767597
C4    C     C_R   0.423398 0.844305 0.392997 0.767591
O9    O     O_3   0.464660 0.338800 0.488280 -0.379480
O10   O     O_3   0.535340 0.838800 0.511720 -0.379480
V1    V     V_3+5 0.506560 0.064420 0.502170 1.436435
V2    V     V_3+5 0.493440 0.564420 0.497830 1.436436
C5    C     C_R   0.142967 0.910256 0.287025 -0.141440
C6    C     C_R   0.857033 0.410260 0.712976 -0.141439
H1    H     H_    0.058221 0.940104 0.220257 0.106993
H2    H     H_    0.941779 0.440107 0.779744 0.107003
H3    H     H_    0.223560 0.838033 0.396714 0.131045
H4    H     H_    0.776440 0.338043 0.603286 0.131047
H5    H     H_    0.128471 0.901289 0.327978 0.119812
H6    H     H_    0.871529 0.401294 0.672023 0.119816
C7    C     C_R   0.119761 0.939044 0.171786 -0.035306
C8    C     C_R   0.880239 0.439048 0.828214 -0.035302
C9    C     C_R   0.398163 0.878284 0.276322 -0.221487
C10   C     C_R   0.601837 0.378277 0.723677 -0.221486
C11   C     C_R   0.360548 0.909110 0.213747 0.020187
C12   C     C_R   0.639452 0.409102 0.786252 0.020190
C13   C     C_R   0.302176 0.919295 0.202814 -0.195725
C14   C     C_R   0.697824 0.419290 0.797185 -0.195733
C15   C     C_R   0.279929 0.895079 0.253258 0.011684
C16   C     C_R   0.720071 0.395078 0.746741 0.011685
C17   C     C_R   0.318932 0.858632 0.317147 0.041218
C18   C     C_R   0.681068 0.358632 0.682852 0.041220
C19   C     C_R   0.219992 0.907206 0.241994 0.080636
C20   C     C_R   0.780008 0.407208 0.758005 0.080638
C21   C     C_R   0.200912 0.894572 0.295464 0.101185
C22   C     C_R   0.799088 0.394576 0.704536 0.101181
C23   C     C_R   0.239133 0.857493 0.356880 -0.266820
C24   C     C_R   0.760867 0.357500 0.643120 -0.266821
C25   C     C_R   0.296697 0.829062 0.367559 0.231161
C26   C     C_R   0.703303 0.329068 0.632440 0.231169
C27   C     C_R   0.177850 0.928312 0.179609 -0.197053
C28   C     C_R   0.822150 0.428316 0.820391 -0.197057
C29   C     C_R   0.102825 0.932223 0.225754 -0.163451
C30   C     C_R   0.897175 0.432227 0.774246 -0.163444
C31   C     C_R   0.378743 0.854620 0.328169 -0.105249
C32   C     C_R   0.621257 0.354615 0.671831 -0.105248
H7    H     H_    0.188271 0.931371 0.136077 0.099196
H8    H     H_    0.811728 0.431375 0.863922 0.099188
H9    H     H_    0.443509 0.875551 0.285284 0.153907
H10   H     H_    0.556491 0.375542 0.714715 0.153902
H11   H     H_    0.274953 0.949465 0.154333 0.154362
H12   H     H_    0.725047 0.449459 0.845666 0.154359
C33   C     C_R   0.137015 0.774762 0.902552 -0.154942
C34   C     C_R   0.862891 0.274923 0.097332 -0.154927
H13   H     H_    0.132635 0.655497 0.930111 0.128357
H14   H     H_    0.867189 0.155792 0.069673 0.128360
C35   C     C_R   0.174346 0.764292 0.867685 -0.124765
C36   C     C_R   0.825562 0.264455 0.132205 -0.124718
H15   H     H_    0.197267 0.636846 0.868825 0.141391
H16   H     H_    0.802558 0.137135 0.130967 0.141455
C37   C     C_R   0.180956 0.914769 0.830598 0.021370
C38   C     C_R   0.819058 0.414763 0.169418 0.021279
C39   C     C_R   0.150066 0.077257 0.830182 -0.126110
C40   C     C_R   0.850051 0.577090 0.169954 -0.126111
H17   H     H_    0.154377 0.195961 0.802343 0.141141
H18   H     H_    0.845826 0.695663 0.197892 0.141161
C41   C     C_R   0.113508 0.089006 0.866054 -0.155324
C42   C     C_R   0.886604 0.588850 0.134074 -0.155321
H19   H     H_    0.090302 0.216061 0.864539 0.120621
H20   H     H_    0.909892 0.715774 0.135683 0.120609
C43   C     C_R   0.106087 0.937236 0.902222 -0.045553
C44   C     C_R   0.893919 0.437238 0.097782 -0.045556
N1    N     N_R   0.210899 0.010851 0.739349 -0.271328
N2    N     N_R   0.789199 0.510525 0.260758 -0.271399
N3    N     N_R   0.243806 0.994413 0.703197 -0.265085
N4    N     N_R   0.756287 0.494090 0.296906 -0.265171
C45   C     C_R   0.286363 0.867516 0.717612 0.561351
C46   C     C_R   0.713645 0.367502 0.282398 0.561547
N5    N     N_R   0.295221 0.760751 0.770891 -0.232146
N6    N     N_R   0.704708 0.261044 0.229036 -0.232178
N7    N     N_R   0.261972 0.775761 0.806741 -0.266302
N8    N     N_R   0.737960 0.276054 0.193189 -0.266297
C47   C     C_R   0.218953 0.900802 0.791626 0.509382
C48   C     C_R   0.781063 0.400786 0.208393 0.509473
C49   C     C_R   0.354785 0.691275 0.673563 0.011762
C50   C     C_R   0.645209 0.191288 0.326426 0.011721
C51   C     C_R   0.391590 0.694903 0.637448 -0.262053
C52   C     C_R   0.608405 0.194914 0.362544 -0.262036
H21   H     H_    0.416389 0.572995 0.636619 0.155235
H22   H     H_    0.583601 0.073015 0.363368 0.155279
C53   C     C_R   0.395584 0.849978 0.600782 -0.108578
C54   C     C_R   0.604416 0.349980 0.399216 -0.108609
C55   C     C_R   0.361604 0.005128 0.601022 0.294990
C56   C     C_R   0.638402 0.505123 0.398981 0.295035
C57   C     C_R   0.327316 0.006357 0.639793 -0.203019
C58   C     C_R   0.672692 0.506348 0.360212 -0.203001
H23   H     H_    0.302679 0.129211 0.639678 0.184171
H24   H     H_    0.697333 0.629195 0.360326 0.184082
C59   C     C_R   0.323260 0.852231 0.676740 -0.093645
C60   C     C_R   0.676742 0.352230 0.323261 -0.093658
O11   O     O_R   0.953220 0.285790 0.047790 -0.537266
O12   O     O_R   0.046780 0.785790 0.952210 -0.537281
O13   O     O_R   0.939020 0.617570 0.916840 -0.534171
O14   O     O_R   0.060980 0.117570 0.083160 -0.534169
C61   C     C_R   0.924065 0.448524 0.892813 0.681821
C62   C     C_R   0.075934 0.948523 0.107187 0.681838
O15   O     O_R   0.946600 0.615450 0.045180 -0.540218
O16   O     O_R   0.053400 0.115450 0.954820 -0.540237
O17   O     O_R   0.054370 0.786770 0.081410 -0.532722
O18   O     O_R   0.945630 0.286770 0.918590 -0.532721
C63   C     C_R   0.933996 0.446970 0.061167 0.676784
C64   C     C_R   0.066005 0.946970 0.938834 0.676796
O19   O     O_3   0.035300 0.454160 0.011680 -0.373949
O20   O     O_3   0.964700 0.954160 0.988320 -0.373936
V3    V     V_3+5 0.993450 0.728620 0.997830 1.420707
V4    V     V_3+5 0.006550 0.228620 0.002170 1.420690
C65   C     C_2   0.348375 0.512868 0.703320 0.778955
O21   O     O_2   0.301407 0.459578 0.700988 -0.541385
O22   O     O_R   0.395906 0.400519 0.730959 -0.649696
H25   H     H_    0.386157 0.280896 0.748659 0.311132
C66   C     C_2   0.651612 0.012897 0.296654 0.778929
O23   O     O_2   0.698568 0.959691 0.298918 -0.541420
O24   O     O_R   0.604089 0.900471 0.269075 -0.649731
H26   H     H_    0.613833 0.780874 0.251355 0.311129
N9    N     N_2   0.358787 0.157068 0.559391 -0.501247
H27   H     H_    0.371268 0.280111 0.583601 0.255118
C67   C     C_3   0.306070 0.171810 0.505183 -0.584744
H28   H     H_    0.315746 0.175215 0.459714 0.211588
H29   H     H_    0.283237 0.300031 0.509339 0.194488
H30   H     H_    0.277059 0.053390 0.502442 0.196547
N10   N     N_2   0.641218 0.657059 0.440613 -0.501258
H31   H     H_    0.628724 0.780096 0.416402 0.255144
C68   C     C_3   0.693939 0.671829 0.494812 -0.584786
H32   H     H_    0.684270 0.675249 0.540285 0.211593
H33   H     H_    0.716766 0.800051 0.490643 0.194491
H34   H     H_    0.722951 0.553412 0.497555 0.196562
C69   C     C_2   0.382345 0.934734 0.159472 0.792863
O25   O     O_2   0.433403 0.928597 0.169190 -0.532961
O26   O     O_R   0.344534 0.965752 0.096885 -0.665542
H35   H     H_    0.364540 0.980865 0.064229 0.316696
C70   C     C_2   0.617655 0.434725 0.840527 0.792858
O27   O     O_2   0.566596 0.428584 0.830809 -0.532957
O28   O     O_R   0.655466 0.465747 0.903113 -0.665548
H36   H     H_    0.635460 0.480861 0.935769 0.316698
N11   N     N_2   0.330270 0.751764 0.427631 -0.533717
H37   H     H_    0.321764 0.806909 0.466404 0.250228
C71   C     C_3   0.327734 0.552442 0.428063 -0.488126
H38   H     H_    0.356303 0.499928 0.475203 0.218385
H39   H     H_    0.341566 0.493424 0.389310 0.207024
H40   H     H_    0.283674 0.506115 0.420685 0.172825
N12   N     N_2   0.669730 0.251781 0.572367 -0.533716
H41   H     H_    0.678234 0.306941 0.533596 0.250238
C72   C     C_3   0.672269 0.052460 0.571931 -0.488145
H42   H     H_    0.643702 0.999954 0.524789 0.218378
H43   H     H_    0.658437 0.993427 0.610682 0.207029
H44   H     H_    0.716330 0.006143 0.579309 0.172830

loop_
_geom_bond_atom_site_label_1
_geom_bond_atom_site_label_2
_ccdc_geom_bond_type
C34   C36   A    
C38   C40   A    
C72   H42   S    
O12   V3    S    
N12   C72   S    
C23   C25   A    
O14   V4    S    
C57   C59   A    
O28   H36   S    
O1    C3    A    
C52   C54   A    
C42   C44   A    
C67   H30   S    
O2    C4    A    
C2    O7    A    
C70   O27   D    
C34   C44   A    
N10   H31   S    
C21   C23   A    
O5    C3    A    
C68   H33   S    
C5    H5    S    
C6    H6    S    
C20   C22   A    
N6    N8    A    
C69   O26   S    
C38   C48   S    
N8    C48   A    
C33   H13   S    
C9    C11   A    
C27   H7    S    
C34   H14   S    
O26   H35   S    
C28   H8    S    
C58   C60   A    
C44   C63   S    
O15   V3    S    
C5    C21   A    
C71   H40   S    
C35   H15   S    
C6    C22   A    
O20   V3    S    
C36   H16   S    
C45   N5    A    
O17   V3    S    
C10   C32   A    
C10   C12   A    
C37   C39   A    
C54   C56   A    
C17   C31   A    
C71   H38   S    
C13   C15   A    
O11   V4    S    
C12   C14   A    
C17   C25   A    
C7    C29   A    
C16   C18   A    
C25   N11   S    
C8    C30   A    
O6    V2    S    
C22   C24   A    
C72   H43   S    
C9    H9    S    
C49   C59   A    
O13   C61   A    
C24   C26   A    
O13   V3    S    
C55   C57   A    
C37   C47   S    
N7    C47   A    
C68   H34   S    
C65   O22   S    
C36   C38   A    
C9    C31   A    
O22   H25   S    
N1    N3    A    
N4    C46   A    
O19   V4    S    
C41   H19   S    
C10   H10   S    
C67   H29   S    
C56   N10   S    
C15   C19   A    
O12   C64   A    
C40   C42   A    
C39   H17   S    
C14   C16   A    
O4    V2    S    
C4    C31   S    
C51   H21   S    
C50   C52   A    
C62   O17   A    
O6    C4    A    
C11   C69   S    
C58   H24   S    
N2    N4    A    
H1    C29   S    
O1    V2    S    
O2    V1    S    
C8    C61   S    
C50   C60   A    
C65   O21   D    
H2    C30   S    
C7    C62   S    
H3    C23   S    
C61   O18   A    
C42   H20   S    
C57   H23   S    
C72   H44   S    
C46   N6    A    
C66   O23   D    
C18   C26   A    
O4    C2    A    
C49   C51   A    
C19   C27   A    
C67   H28   S    
C7    C27   A    
O16   C64   A    
C1    C54   S    
C18   C32   A    
C12   C70   S    
O16   V4    S    
N9    H27   S    
C45   C59   S    
N2    C48   A    
N10   C68   S    
N5    N7    A    
C16   C20   A    
C26   N12   S    
O11   C63   A    
C5    C29   A    
O3    C1    A    
C6    C30   A    
C53   C55   A    
C33   C35   A    
C68   H32   S    
C56   C58   A    
C33   C43   A    
N11   C71   S    
O7    V1    S    
C55   N9    S    
C1    O8    A    
C19   C21   A    
C3    C32   S    
O8    V2    S    
N11   H37   S    
C41   C43   A    
C52   H22   S    
H4    C24   S    
C49   C65   S    
C70   O28   S    
O5    V1    S    
C15   C17   A    
C50   C66   S    
O14   C62   A    
C39   C41   A    
C71   H39   S    
N3    C45   A    
C20   C28   A    
C8    C28   A    
C51   C53   A    
C35   C37   A    
N1    C47   A    
C11   C13   A    
C2    C53   S    
O9    V2    S    
N12   H41   S    
C66   O24   S    
C40   H18   S    
C46   C60   S    
O10   V1    S    
O3    V1    S    
O15   C63   A    
C43   C64   S    
C13   H11   S    
C69   O25   D    
C14   H12   S    
O18   V4    S    
O24   H26   S    
N9    C67   S    
