data_mof_unit_30854.cif
_audit_creation_date              2012-10-26T19:00:09-0400
_audit_creation_method            fapswitch 2.2
_symmetry_space_group_name_H-M    P1
_symmetry_Int_Tables_number       1
_space_group_crystal_system       triclinic
_cell_length_a                    10.870751
_cell_length_b                    10.787466
_cell_length_c                    9.55444
_cell_angle_alpha                 90.667066
_cell_angle_beta                  91.92541
_cell_angle_gamma                 91.653109
_cell_volume                      1119.24087589

loop_
_atom_site_label
_atom_site_type_symbol
_atom_type_description
_atom_site_fract_x
_atom_site_fract_y
_atom_site_fract_z
_atom_type_partial_charge
C1    C     C_R   0.498651 0.262501 0.499345 0.548027
C2    C     C_R   0.915262 0.701027 0.972186 0.258775
C3    C     C_R   0.875921 0.601064 0.053240 -0.091022
C4    C     C_R   0.262294 0.499014 0.497170 0.557514
C5    C     C_R   0.847928 0.484893 0.992495 -0.160619
C6    C     C_R   0.862215 0.465715 0.849706 -0.077045
C7    C     C_R   0.901402 0.563738 0.765562 0.012107
C8    C     C_R   0.441819 0.063323 0.602823 -0.017441
C9    C     C_R   0.502017 0.129419 0.499577 0.002577
C10   C     C_R   0.574081 0.066058 0.404472 -0.173686
C11   C     C_R   0.576273 0.936739 0.406594 -0.191931
C12   C     C_R   0.172634 0.360511 0.965077 -0.103123
C13   C     C_R   0.504435 0.870803 0.501752 0.022003
C14   C     C_R   0.441455 0.935758 0.602148 0.101589
C15   C     C_3   0.310187 0.925494 0.643947 -0.029681
C16   C     C_R   0.500217 0.737475 0.500448 0.577596
C17   C     C_3   0.310575 0.067111 0.644903 -0.275676
C18   C     C_R   0.492176 0.608339 0.074943 0.110025
C19   C     C_R   0.495794 0.392161 0.072625 -0.015464
C20   C     C_R   0.495666 0.392139 0.924396 -0.033963
C21   C     C_R   0.493241 0.608981 0.927227 0.194809
C22   C     C_3   0.586915 0.713595 0.931111 0.135162
C23   C     C_R   0.928027 0.454121 0.385847 -0.162253
C24   C     C_3   0.580241 0.715387 0.089467 -0.222043
C25   C     C_R   0.737944 0.499048 0.502725 0.540487
C26   C     C_R   0.189786 0.481759 0.015825 -0.095015
C27   C     C_R   0.155641 0.512125 0.151442 -0.042542
C28   C     C_R   0.104548 0.421365 0.238012 0.053818
C29   C     C_R   0.086689 0.299608 0.185816 -0.108073
C30   C     C_R   0.121185 0.269603 0.049927 -0.129726
C31   C     C_3   0.637540 0.915712 0.870200 0.004005
C32   C     C_3   0.600681 0.031240 0.950973 -0.263574
C33   C     C_3   0.701529 0.132623 0.947191 -0.488372
C34   C     C_R   0.872090 0.495138 0.507278 -0.005023
C35   C     C_3   0.027144 0.890422 0.001739 -0.002426
C36   C     C_3   0.145630 0.843959 0.072248 -0.265672
C37   C     C_3   0.248887 0.943077 0.076753 -0.476299
C38   C     C_R   0.946181 0.535223 0.624758 -0.027885
C39   C     C_R   0.072899 0.538600 0.614123 -0.141205
C40   C     C_R   0.128535 0.499894 0.492288 0.000127
C41   C     C_R   0.055222 0.457815 0.375055 -0.038624
C42   C     C_R   0.925764 0.681955 0.826325 -0.115712
Cu1   Cu    Cu3+1 0.499990 0.499980 0.640670 0.952030
Cu2   Cu    Cu3+1 0.500010 0.500020 0.359330 0.929384
H1    H     H_    0.198633 0.337166 0.859813 0.117619
H2    H     H_    0.493529 0.304390 0.125689 0.124828
H3    H     H_    0.228854 0.552235 0.949660 0.102488
H4    H     H_    0.493007 0.304251 0.869333 0.128231
H5    H     H_    0.674432 0.682625 0.887461 0.131969
H6    H     H_    0.666974 0.692517 0.145898 0.126749
H7    H     H_    0.534545 0.797845 0.131497 0.137659
H8    H     H_    0.168191 0.606288 0.189642 0.109964
H9    H     H_    0.044534 0.228732 0.249410 0.096665
H10   H     H_    0.106769 0.176414 0.009205 0.087743
H11   H     H_    0.871891 0.419693 0.297288 0.125334
H12   H     H_    0.865068 0.614662 0.164374 0.136988
H13   H     H_    0.129010 0.569872 0.704507 0.138988
H14   H     H_    0.952638 0.756769 0.758602 0.091283
H15   H     H_    0.137943 0.880190 0.563735 0.222079
H16   H     H_    0.239701 0.913321 0.439422 0.236628
H17   H     H_    0.653701 0.940415 0.759811 0.147937
H18   H     H_    0.727763 0.886069 0.914815 0.165117
H19   H     H_    0.513528 0.066655 0.904926 0.162534
H20   H     H_    0.585226 0.006996 0.061782 0.157827
H21   H     H_    0.790873 0.097305 0.987197 0.153209
H22   H     H_    0.677382 0.211835 0.014743 0.130763
H23   H     H_    0.817171 0.408805 0.056463 0.113517
H24   H     H_    0.711674 0.165727 0.838398 0.150772
H25   H     H_    0.011231 0.985002 0.042688 0.147534
H26   H     H_    0.037213 0.901051 0.887436 0.106282
H27   H     H_    0.126961 0.816760 0.181499 0.178850
H28   H     H_    0.176465 0.762131 0.013012 0.144056
H29   H     H_    0.264659 0.979335 0.970516 0.139883
H30   H     H_    0.335249 0.902491 0.118049 0.162488
H31   H     H_    0.225350 0.020810 0.147250 0.143539
H32   H     H_    0.847174 0.373379 0.805515 0.119332
H33   H     H_    0.627298 0.116148 0.328401 0.125098
H34   H     H_    0.632309 0.888607 0.333229 0.123832
H35   H     H_    0.299641 0.882653 0.748222 0.174707
H36   H     H_    0.249497 0.108465 0.563306 0.130770
H37   H     H_    0.302638 0.107724 0.751545 0.102881
N1    N     N_R   0.500790 0.500930 0.147930 -0.237616
N2    N     N_R   0.500790 0.500890 0.852020 -0.258038
N3    N     N_3   0.228726 0.868025 0.534721 -0.642887
O1    O     O_R   0.500000 0.319640 0.618810 -0.515658
O2    O     O_3   0.923106 0.817053 0.037541 -0.605109
O3    O     O_R   0.500010 0.319680 0.381230 -0.515760
O4    O     O_R   0.319640 0.499990 0.618790 -0.511375
O5    O     O_R   0.319650 0.500030 0.381210 -0.489061
O6    O     O_R   0.499990 0.680320 0.618770 -0.458897
O7    O     O_R   0.500000 0.680360 0.381190 -0.516940
O8    O     O_R   0.680350 0.499970 0.618790 -0.499149
O9    O     O_R   0.680360 0.500010 0.381210 -0.516098
O10   O     O_3   0.541657 0.823454 0.872259 -0.575495

loop_
_geom_bond_atom_site_label_1
_geom_bond_atom_site_label_2
_ccdc_geom_bond_type
C1    O3    A    
C37   H30   S    
C25   O9    A    
C18   C21   A    
Cu1   N2    S    
C31   H17   S    
C19   C20   A    
C5    H23   S    
C42   H14   S    
C19   H2    S    
C33   H21   S    
C16   O6    A    
C30   H10   S    
C26   C27   A    
C18   C24   S    
Cu1   O4    S    
C28   C29   A    
Cu2   N1    S    
C5    C6    A    
H16   N3    S    
C35   O2    S    
C39   H13   S    
C28   C41   S    
C7    C42   A    
Cu2   O9    S    
C15   H35   S    
C4    C40   S    
C35   H26   S    
C8    C9    A    
Cu2   O3    S    
C9    C10   A    
C36   H27   S    
C25   C34   S    
C24   H7    S    
C37   H31   S    
C13   C14   A    
C1    O1    A    
C22   O10   S    
C31   H18   S    
C10   H33   S    
C33   H22   S    
C6    C7    A    
C24   H6    S    
Cu1   O6    S    
Cu1   O1    S    
C21   N2    A    
C1    C9    S    
H15   N3    S    
C32   H20   S    
C39   C40   A    
C17   H36   S    
C12   C26   A    
C35   C36   S    
Cu1   Cu2   S    
C29   C30   A    
C11   H34   S    
C3    H12   S    
C31   C32   S    
C23   C34   A    
C6    H32   S    
C20   H4    S    
Cu2   O7    S    
C26   H3    S    
C22   H5    S    
C40   C41   A    
C22   C24   S    
C20   N2    A    
C19   N1    A    
C27   H8    S    
C4    O5    A    
C15   C17   S    
C37   H29   S    
C36   C37   S    
C25   O8    A    
C8    C14   A    
C12   C30   A    
C34   C38   A    
Cu1   O8    S    
C32   H19   S    
C12   H1    S    
C3    C5    A    
C23   H11   S    
C15   N3    S    
C4    O4    A    
C31   O10   S    
C8    C17   S    
C23   C41   A    
C32   C33   S    
C2    C3    A    
C11   C13   A    
C38   C39   A    
C29   H9    S    
C2    C42   A    
C18   N1    A    
C7    C38   S    
C2    O2    S    
C17   H37   S    
C10   C11   A    
C35   H25   S    
C16   O7    A    
C13   C16   S    
C27   C28   A    
C14   C15   S    
C21   C22   S    
Cu2   O5    S    
C36   H28   S    
C33   H24   S    
