data_mof_unit_9352.cif
_audit_creation_date              2012-12-11T14:30:35-0500
_audit_creation_method            fapswitch 2.2
_symmetry_space_group_name_H-M    P1
_symmetry_Int_Tables_number       1
_space_group_crystal_system       triclinic
_cell_length_a                    17.454021
_cell_length_b                    24.426246
_cell_length_c                    14.852709
_cell_angle_alpha                 90.060954
_cell_angle_beta                  125.214078
_cell_angle_gamma                 89.919459
_cell_volume                      5173.46150482

loop_
_atom_site_label
_atom_site_type_symbol
_atom_type_description
_atom_site_fract_x
_atom_site_fract_y
_atom_site_fract_z
_atom_type_partial_charge
C1    C     C_R   0.836127 0.647591 0.907636 -0.276900
C2    C     C_R   0.958826 0.499956 0.645377 0.211591
C3    C     C_3   0.360048 0.336234 0.917617 -0.867758
C4    C     C_3   0.361578 0.513181 0.588623 -0.349241
C5    C     C_3   0.297059 0.463594 0.557515 -0.246427
C6    C     C_3   0.223844 0.474408 0.580757 -0.876155
C7    C     C_3   0.620706 0.489710 0.471812 -0.388661
C8    C     C_3   0.665841 0.432615 0.492704 -0.225089
C9    C     C_3   0.636575 0.404246 0.385562 -0.670312
C10   C     C_3   0.916506 0.052875 0.534941 -0.409579
C11   C     C_3   0.851537 0.015893 0.545835 -0.176759
C12   C     C_3   0.807262 0.047994 0.593140 -0.862304
C13   C     C_R   0.538776 0.999870 0.353077 0.218408
C14   C     C_3   0.115049 0.952000 0.377747 -0.338737
C15   C     C_3   0.177336 0.903363 0.445703 -0.254408
C16   C     C_3   0.211244 0.872675 0.385248 -0.873831
C17   C     C_R   0.551899 0.000040 0.729541 0.211695
C18   C     C_R   0.675838 0.500383 0.715683 0.168457
C19   C     C_R   0.317799 0.500020 0.340222 0.126483
C20   C     C_R   0.194497 0.000622 0.640022 0.114678
C21   C     C_R   0.824380 0.999715 0.292602 0.118288
C22   C     C_3   0.503232 0.457490 0.598067 0.628404
C23   C     C_3   0.478233 0.451989 0.480830 0.624097
C24   C     C_3   0.025830 0.971671 0.540271 0.643312
C25   C     C_R   0.173561 0.642025 0.093060 -0.273360
C26   C     C_3   0.985728 0.947857 0.425844 0.616721
C27   C     C_3   0.432043 0.504623 0.559936 -0.025210
C28   C     C_3   0.553739 0.493704 0.506939 0.002147
C29   C     C_3   0.964763 0.022709 0.489990 -0.018055
C30   C     C_3   0.063043 0.976256 0.423348 -0.029562
C31   C     C_3   0.408488 0.499140 0.443575 -0.129502
C32   C     C_3   0.578537 0.499401 0.624128 -0.141351
C33   C     C_3   0.924085 0.999026 0.374970 -0.132145
C34   C     C_3   0.102608 0.000208 0.537816 -0.131025
C35   C     C_3   0.483839 0.541350 0.469544 -0.224277
C36   C     C_R   0.325336 0.141371 0.906749 -0.266306
C37   C     C_3   0.508678 0.547060 0.587621 -0.222430
C38   C     C_3   0.999878 0.027821 0.370096 -0.206281
C39   C     C_3   0.041261 0.051748 0.486542 -0.226455
C40   C     C_2   0.250738 0.695013 0.938165 0.782585
C41   C     C_2   0.764066 0.700950 0.062044 0.756772
C42   C     C_2   0.734618 0.201606 0.937258 0.758418
C43   C     C_2   0.246909 0.194088 0.060720 0.782896
C44   C     C_2   0.211766 0.708209 0.992241 -0.089080
C45   C     C_2   0.803471 0.716433 0.009563 -0.083241
C46   C     C_2   0.696150 0.216614 0.991121 -0.085092
C47   C     C_R   0.663814 0.147524 0.092566 -0.282298
C48   C     C_2   0.286591 0.207413 0.007590 -0.089132
C49   C     C_2   0.787922 0.239873 0.919654 -0.216025
C50   C     C_2   0.195628 0.234376 0.078381 -0.226576
C51   C     C_2   0.302185 0.735177 0.920839 -0.228116
C52   C     C_2   0.710509 0.739074 0.079860 -0.214088
C53   C     C_R   0.946529 0.350328 0.093818 -0.135765
C54   C     C_R   0.052533 0.350366 0.905451 -0.145789
C55   C     C_R   0.447170 0.850447 0.094392 -0.147419
C56   C     C_R   0.553354 0.850272 0.906091 -0.137492
C57   C     C_2   0.863261 0.262565 0.007578 -0.269495
C58   C     C_R   0.885279 0.319111 0.003273 0.169657
C59   C     C_2   0.124939 0.260198 0.990562 -0.272655
C60   C     C_2   0.373351 0.760607 0.008820 -0.272703
C61   C     C_2   0.635720 0.762220 0.991965 -0.268621
C62   C     C_2   0.880757 0.457436 0.358838 0.647123
C63   C     C_2   0.885487 0.460904 0.460338 0.642029
C64   C     C_2   0.613365 0.961262 0.538013 0.643240
C65   C     C_2   0.618188 0.957215 0.639485 0.651842
C66   C     C_2   0.895394 0.502080 0.318493 -0.444012
C67   C     C_2   0.936986 0.500224 0.535367 -0.499362
C68   C     C_2   0.558584 0.999505 0.461971 -0.518828
C69   C     C_R   0.111187 0.318308 0.995857 0.156740
C70   C     C_2   0.603694 0.001822 0.680279 -0.449448
C71   C     C_R   0.979383 0.546112 0.246533 -0.121311
C72   C     C_R   0.964249 0.546109 0.702840 -0.080787
C73   C     C_R   0.534505 0.046101 0.296552 -0.080874
C74   C     C_R   0.520570 0.046006 0.753435 -0.115021
C75   C     C_R   0.732611 0.454906 0.747995 -0.136817
C76   C     C_R   0.264064 0.454530 0.287038 -0.122793
C77   C     C_R   0.242432 0.955159 0.701173 -0.064816
C78   C     C_R   0.767630 0.954358 0.258754 -0.118961
C79   C     C_R   0.982277 0.454878 0.248223 -0.089189
C80   C     C_R   0.388091 0.818544 0.003834 0.154494
C81   C     C_R   0.964965 0.454744 0.704562 -0.090184
C82   C     C_R   0.533724 0.954701 0.294490 -0.059227
C83   C     C_R   0.517795 0.954770 0.751778 -0.098559
C84   C     C_R   0.730353 0.546565 0.742919 -0.119640
C85   C     C_R   0.265255 0.546490 0.291120 -0.113646
C86   C     C_R   0.242018 0.046608 0.698623 -0.098398
C87   C     C_R   0.770059 0.046311 0.260348 -0.108597
C88   C     C_R   0.853787 0.350488 0.910922 -0.106305
C89   C     C_R   0.144685 0.349977 0.088677 -0.103358
C90   C     C_R   0.354843 0.850180 0.911100 -0.086758
C91   C     C_R   0.614444 0.818965 0.996551 0.168753
C92   C     C_R   0.646181 0.850416 0.088980 -0.119123
C93   C     C_R   0.931821 0.648286 0.090366 0.754729
C94   C     C_R   0.079737 0.641888 0.908856 0.777738
C95   C     C_R   0.419423 0.141525 0.091054 0.771917
C96   C     C_R   0.568092 0.148305 0.909803 0.757895
C97   C     C_R   0.858475 0.675123 0.001234 -0.006428
C98   C     C_R   0.157732 0.665784 0.998991 -0.011066
C99   C     C_R   0.340805 0.165004 0.000834 -0.006940
C100  C     C_R   0.641399 0.175103 0.999089 -0.006121
C101  C     C_3   0.215601 0.765627 0.035926 -0.456744
C102  C     C_R   0.947997 0.500220 0.270260 0.207573
C103  C     C_3   0.138587 0.777258 0.053802 -0.223700
C104  C     C_3   0.141265 0.836829 0.086700 -0.889634
C105  C     C_3   0.796785 0.774391 0.967188 -0.441239
C106  C     C_3   0.870461 0.787108 0.944497 -0.264316
C107  C     C_3   0.865278 0.846860 0.911473 -0.786556
C108  C     C_3   0.704170 0.274133 0.036194 -0.434917
C109  C     C_3   0.631723 0.286479 0.061156 -0.253796
C110  C     C_3   0.638359 0.345779 0.097469 -0.808617
C111  C     C_3   0.284140 0.265116 0.966011 -0.461078
C112  C     C_3   0.361275 0.276444 0.948283 -0.233763
F1    F     F_    0.515849 0.414577 0.666030 -0.688355
F2    F     F_    0.849020 0.418612 0.483385 -0.709033
F3    F     F_    0.657231 0.922038 0.518096 -0.676173
F4    F     F_    0.622649 0.906330 0.679093 -0.696905
F5    F     F_    0.988409 0.669112 0.193626 -0.721002
F6    F     F_    0.032669 0.659504 0.803299 -0.712616
F7    F     F_    0.466202 0.159302 0.196505 -0.717632
F8    F     F_    0.511517 0.169152 0.806579 -0.716197
F9    F     F_    0.461227 0.403123 0.425156 -0.696688
F10   F     F_    0.040111 0.942080 0.628160 -0.683466
F11   F     F_    0.958142 0.894024 0.396103 -0.692910
F12   F     F_    0.238783 0.644425 0.893108 -0.677056
F13   F     F_    0.776249 0.649509 0.103776 -0.696371
F14   F     F_    0.721599 0.150506 0.893729 -0.697839
F15   F     F_    0.258094 0.143299 0.104588 -0.674565
F16   F     F_    0.876726 0.406648 0.318951 -0.699185
H1    H     H_    0.787347 0.660784 0.823371 0.151067
H2    H     H_    0.230059 0.250685 0.161049 0.150716
H3    H     H_    0.158883 0.984443 0.376275 0.190812
H4    H     H_    0.267919 0.751545 0.838270 0.149090
H5    H     H_    0.744598 0.755957 0.162041 0.150948
H6    H     H_    0.895010 0.244210 0.088488 0.143510
H7    H     H_    0.092315 0.242236 0.909133 0.142183
H8    H     H_    0.405882 0.742557 0.090122 0.143336
H9    H     H_    0.604193 0.744052 0.910901 0.142850
H10   H     H_    0.885211 0.542535 0.340454 0.138473
H11   H     H_    0.968101 0.533487 0.518557 0.143666
H12   H     H_    0.523527 0.030988 0.477306 0.149323
H13   H     H_    0.225278 0.653700 0.177695 0.152330
H14   H     H_    0.613088 0.042248 0.657501 0.139068
H15   H     H_    0.992974 0.335653 0.177583 0.104114
H16   H     H_    0.005482 0.336210 0.821378 0.105137
H17   H     H_    0.494034 0.836227 0.178432 0.109022
H18   H     H_    0.506764 0.835618 0.822317 0.102007
H19   H     H_    0.965999 0.587746 0.257122 0.203321
H20   H     H_    0.948029 0.587392 0.671120 0.186056
H21   H     H_    0.550412 0.087340 0.328544 0.184420
H22   H     H_    0.533786 0.087623 0.742736 0.203175
H23   H     H_    0.711244 0.412502 0.731565 0.134401
H24   H     H_    0.272993 0.152542 0.821940 0.152315
H25   H     H_    0.280284 0.412256 0.312981 0.156166
H26   H     H_    0.226707 0.912707 0.676406 0.107802
H27   H     H_    0.787699 0.911810 0.275666 0.177096
H28   H     H_    0.973124 0.412344 0.258545 0.177113
H29   H     H_    0.954748 0.412267 0.679880 0.166267
H30   H     H_    0.543747 0.912237 0.319283 0.161189
H31   H     H_    0.527027 0.912216 0.741389 0.177251
H32   H     H_    0.706340 0.588196 0.719080 0.107186
H33   H     H_    0.283061 0.588078 0.321328 0.106239
H34   H     H_    0.227458 0.088608 0.670579 0.101150
H35   H     H_    0.712521 0.160659 0.176895 0.149413
H36   H     H_    0.794026 0.088095 0.280485 0.106778
H37   H     H_    0.815495 0.336341 0.826631 0.096820
H38   H     H_    0.181926 0.335731 0.172796 0.103194
H39   H     H_    0.317211 0.836048 0.826842 0.095925
H40   H     H_    0.684455 0.836255 0.173228 0.110991
H41   H     H_    0.210460 0.846444 0.164083 0.266236
H42   H     H_    0.128420 0.864744 0.020299 0.276653
H43   H     H_    0.085907 0.843868 0.100470 0.249289
H44   H     H_    0.068566 0.768728 0.976553 0.210850
H45   H     H_    0.148402 0.750684 0.120338 0.208478
H46   H     H_    0.474484 0.575598 0.414914 0.153385
H47   H     H_    0.285208 0.771688 0.115157 0.196080
H48   H     H_    0.207139 0.796297 0.975517 0.220450
H49   H     H_    0.794754 0.856232 0.835940 0.308439
H50   H     H_    0.879754 0.874423 0.979166 0.250503
H51   H     H_    0.918466 0.854570 0.894424 0.250908
H52   H     H_    0.941779 0.778815 0.019823 0.211203
H53   H     H_    0.858781 0.760743 0.876627 0.214056
H54   H     H_    0.725729 0.780632 0.890126 0.210425
H55   H     H_    0.806959 0.804116 0.030009 0.213898
H56   H     H_    0.709223 0.354164 0.173218 0.307464
H57   H     H_    0.522672 0.585882 0.633616 0.155005
H58   H     H_    0.624154 0.374232 0.031155 0.267127
H59   H     H_    0.585674 0.353231 0.115486 0.240100
H60   H     H_    0.559911 0.279025 0.986108 0.214453
H61   H     H_    0.643711 0.259313 0.128109 0.207529
H62   H     H_    0.775707 0.279663 0.112836 0.207974
H63   H     H_    0.693615 0.304507 0.974224 0.220132
H64   H     H_    0.290763 0.346866 0.841258 0.265778
H65   H     H_    0.374535 0.363604 0.985560 0.262982
H66   H     H_    0.414892 0.342959 0.902910 0.259650
H67   H     H_    0.431160 0.267053 0.025069 0.207476
H68   H     H_    0.987109 0.050882 0.298246 0.163632
H69   H     H_    0.350593 0.250324 0.880674 0.212339
H70   H     H_    0.214643 0.272050 0.887095 0.197568
H71   H     H_    0.293455 0.295348 0.027625 0.216840
H72   H     H_    0.258560 0.483173 0.669672 0.274953
H73   H     H_    0.178818 0.509687 0.531140 0.264081
H74   H     H_    0.178567 0.437769 0.558090 0.252865
H75   H     H_    0.259860 0.454250 0.468606 0.196615
H76   H     H_    0.339311 0.427222 0.605484 0.250035
H77   H     H_    0.400998 0.520835 0.678633 0.207032
H78   H     H_    0.318930 0.550096 0.544227 0.194713
H79   H     H_    0.064237 0.094809 0.511181 0.150353
H80   H     H_    0.559388 0.398284 0.331861 0.264366
H81   H     H_    0.657869 0.429130 0.340871 0.247880
H82   H     H_    0.671116 0.363580 0.404330 0.257061
H83   H     H_    0.743338 0.436985 0.546023 0.222659
H84   H     H_    0.647204 0.405480 0.537226 0.214542
H85   H     H_    0.580959 0.500860 0.383151 0.203445
H86   H     H_    0.676478 0.521056 0.517786 0.173428
H87   H     H_    0.862100 0.068645 0.671149 0.266677
H88   H     H_    0.757665 0.079121 0.532904 0.253583
H89   H     H_    0.768689 0.019683 0.611710 0.258609
H90   H     H_    0.753681 0.256927 0.837614 0.147131
H91   H     H_    0.795032 0.999082 0.464166 0.209761
H92   H     H_    0.892089 0.981187 0.601870 0.261180
H93   H     H_    0.972062 0.069411 0.617511 0.206203
H94   H     H_    0.876423 0.088120 0.480461 0.189210
H95   H     H_    0.150710 0.855068 0.307159 0.270395
H96   H     H_    0.250555 0.900673 0.366681 0.260873
H97   H     H_    0.258453 0.838731 0.437750 0.254650
H98   H     H_    0.239714 0.918482 0.524984 0.185020
H99   H     H_    0.138142 0.874465 0.462919 0.247928
H100  H     H_    0.061723 0.938824 0.291497 0.206721
N1    N     N_R   0.892320 0.603520 0.941090 -0.073368
N2    N     N_R   0.973240 0.529450 0.794410 -0.058315
N3    N     N_R   0.526760 0.029450 0.205590 -0.060048
N4    N     N_R   0.473240 0.029450 0.794410 -0.055777
N5    N     N_R   0.819350 0.473090 0.793940 -0.056903
N6    N     N_R   0.180650 0.473090 0.206060 -0.054906
N7    N     N_R   0.319350 0.973090 0.793940 -0.052864
N8    N     N_R   0.680650 0.973090 0.206060 -0.055883
N9    N     N_R   0.027860 0.473090 0.206590 -0.069542
N10   N     N_R   0.972140 0.473090 0.793410 -0.067461
N11   N     N_R   0.527860 0.973090 0.206590 -0.068802
N12   N     N_R   0.107680 0.603520 0.058910 -0.077251
N13   N     N_R   0.472140 0.973090 0.793410 -0.072507
N14   N     N_R   0.818250 0.529450 0.792940 -0.045270
N15   N     N_R   0.181750 0.529450 0.207060 -0.037288
N16   N     N_R   0.318250 0.029450 0.792940 -0.038876
N17   N     N_R   0.681750 0.029450 0.207060 -0.045573
N18   N     N_R   0.896320 0.399020 0.944720 -0.043497
N19   N     N_R   0.103680 0.399020 0.055280 -0.045582
N20   N     N_R   0.396320 0.899020 0.944720 -0.045896
N21   N     N_R   0.603680 0.899020 0.055280 -0.046133
N22   N     N_R   0.949790 0.603520 0.054810 -0.114320
N23   N     N_R   0.392320 0.103520 0.941090 -0.078023
N24   N     N_R   0.050210 0.603520 0.945190 -0.123218
N25   N     N_R   0.449790 0.103520 0.054810 -0.122817
N26   N     N_R   0.550210 0.103520 0.945190 -0.116093
N27   N     N_R   0.607680 0.103520 0.058910 -0.074352
N28   N     N_R   0.953790 0.399020 0.058440 -0.045791
N29   N     N_R   0.046210 0.399020 0.941560 -0.043216
N30   N     N_R   0.453790 0.899020 0.058440 -0.044338
N31   N     N_R   0.546210 0.899020 0.941560 -0.047102
N32   N     N_R   0.026760 0.529450 0.205590 -0.053806
Ni1   Ni    Ni4+2 0.934100 0.565890 0.869590 0.241325
Ni2   Ni    Ni4+2 0.065900 0.565890 0.130410 0.255039
Ni3   Ni    Ni4+2 0.434100 0.065890 0.869590 0.255610
Ni4   Ni    Ni4+2 0.565900 0.065890 0.130410 0.238588
Ni5   Ni    Ni4+2 0.068420 0.436630 0.132700 0.210870
Ni6   Ni    Ni4+2 0.931580 0.436630 0.867300 0.210834
Ni7   Ni    Ni4+2 0.568420 0.936630 0.132700 0.227343
Ni8   Ni    Ni4+2 0.431580 0.936630 0.867300 0.208371

loop_
_geom_bond_atom_site_label_1
_geom_bond_atom_site_label_2
_ccdc_geom_bond_type
C54   H16   S    
N3    Ni4   S    
C21   C87   A    
C18   C75   A    
N4    Ni3   S    
C20   C86   A    
C90   H39   S    
C85   H33   S    
C66   C102  S    
C71   H19   S    
C111  C112  S    
C101  H47   S    
C77   N7    A    
N28   Ni5   S    
C19   C31   S    
C5    H76   S    
C84   H32   S    
C7    C8    S    
C23   F9    S    
C92   N21   A    
C81   N10   A    
C47   N27   A    
N26   N27   A    
C72   N2    A    
C20   C77   A    
C15   H99   S    
C50   C59   D    
C64   C68   D    
N3    N11   A    
C19   C76   A    
C35   C37   S    
C61   C91   S    
C24   C26   S    
C6    H72   S    
C6    H74   S    
C1    H1    S    
C52   C61   D    
C83   H31   S    
C111  H70   S    
C5    C6    S    
C82   H30   S    
C95   C99   A    
C78   H27   S    
N23   N25   A    
C55   H17   S    
C21   C33   S    
C106  C107  S    
C94   C98   A    
C3    H64   S    
C15   C16   S    
C29   C33   S    
C76   H25   S    
C85   N15   A    
C36   N23   A    
C49   C57   D    
C108  C109  S    
C30   C38   S    
N9    Ni5   S    
C42   C46   D    
C24   C29   S    
N22   Ni2   S    
C46   C100  S    
N31   Ni8   S    
C50   H2    S    
C10   H93   S    
C111  H71   S    
N5    Ni6   S    
C101  H48   S    
C63   F2    S    
C44   C98   S    
C22   F1    S    
C37   H57   S    
C28   C35   S    
C75   H23   S    
C8    C9    S    
C90   N20   A    
C21   C78   A    
N8    Ni7   S    
C18   C84   A    
C79   C102  A    
C86   H34   S    
N15   Ni2   S    
C105  H54   S    
C8    H83   S    
C67   H11   S    
C43   C48   D    
C60   H8    S    
C41   C52   S    
N1    N22   A    
C53   C58   A    
N6    N15   A    
C20   C34   S    
C87   H36   S    
C79   H28   S    
N2    Ni1   S    
C110  H56   S    
C17   C70   S    
C101  C103  S    
C64   F3    S    
C107  H49   S    
C80   C90   A    
C52   H5    S    
C108  H62   S    
C93   F5    S    
N21   N31   A    
C2    C72   A    
N30   Ni7   S    
C106  H52   S    
N19   N29   A    
C45   C105  S    
C87   N17   A    
C14   H3    S    
C56   C91   A    
C109  H60   S    
C110  H59   S    
C63   C67   D    
C16   H97   S    
C70   H14   S    
C3    H66   S    
C81   H29   S    
C30   C34   S    
C15   H98   S    
C27   C31   S    
C34   C39   S    
C41   F13   S    
C28   C32   S    
C6    H73   S    
N32   Ni2   S    
C2    C67   S    
C11   H91   S    
C1    C97   A    
C91   C92   A    
C62   C66   D    
C36   H24   S    
N6    Ni5   S    
C25   N12   A    
C95   F7    S    
C71   N32   A    
C72   H20   S    
C13   C82   A    
C24   C34   S    
C7    C28   S    
C89   N19   A    
C39   H79   S    
C53   H15   S    
C23   C31   S    
C112  H69   S    
C112  H67   S    
C14   H100  S    
C62   C63   S    
C77   H26   S    
C47   C100  A    
C92   H40   S    
C26   C33   S    
C25   C98   A    
C66   H10   S    
N10   Ni6   S    
C3    C112  S    
C11   C12   S    
C82   N11   A    
C29   C39   S    
N9    N32   A    
C24   F10   S    
C16   H95   S    
N13   Ni8   S    
N11   Ni7   S    
C108  H63   S    
N16   Ni3   S    
C3    H65   S    
C32   C37   S    
C105  H55   S    
C40   F12   S    
C4    H78   S    
C44   C101  S    
C110  H58   S    
C103  H44   S    
C7    H85   S    
C22   C32   S    
N24   Ni1   S    
C59   C69   S    
C104  H43   S    
N20   N30   A    
N25   Ni4   S    
C74   N4    A    
C53   N28   A    
C71   C102  A    
C13   C73   A    
N26   Ni3   S    
C26   C30   S    
C22   C27   S    
C107  H50   S    
C17   C74   A    
C65   F4    S    
C31   C35   S    
C57   H6    S    
N2    N10   A    
C56   N31   A    
C23   C28   S    
C26   F11   S    
C79   N9    A    
C42   F14   S    
C43   F15   S    
C68   H12   S    
C93   C97   A    
C12   H89   S    
C73   N3    A    
C4    C27   S    
C93   N22   A    
C104  H42   S    
C109  H61   S    
N7    Ni8   S    
C54   N29   A    
C48   C99   S    
C95   N25   A    
C60   C80   S    
C41   C45   D    
C73   H21   S    
C22   C23   S    
C35   H46   S    
C9    H82   S    
N8    N17   A    
C96   F8    S    
C25   H13   S    
N29   Ni6   S    
N12   Ni2   S    
C4    C5    S    
C19   C85   A    
C9    H80   S    
C58   C88   A    
C5    H75   S    
C78   N8    A    
C51   H4    S    
C43   C50   S    
N12   N24   A    
N20   Ni8   S    
N1    Ni1   S    
C69   C89   A    
C40   C51   S    
C105  C106  S    
C83   N13   A    
C106  H53   S    
C107  H51   S    
C33   C38   S    
C4    H77   S    
C46   C108  S    
C49   H90   S    
C55   N30   A    
C64   C65   S    
N21   Ni7   S    
C96   N26   A    
N4    N13   A    
N7    N16   A    
C8    H84   S    
C109  C110  S    
C62   F16   S    
C55   C80   A    
C94   F6    S    
C10   C29   S    
C61   H9    S    
C57   C58   S    
C38   C39   S    
C54   C69   A    
N18   N28   A    
C27   C37   S    
C47   H35   S    
C96   C100  A    
C59   H7    S    
N14   Ni1   S    
C38   H68   S    
C75   N5    A    
C36   C99   A    
C84   N14   A    
C56   H18   S    
C89   H38   S    
C7    H86   S    
C16   H96   S    
C10   C11   S    
C10   H94   S    
C42   C49   S    
C88   N18   A    
N19   Ni5   S    
C1    N1    A    
N5    N14   A    
C40   C44   D    
C48   C111  S    
C18   C32   S    
N27   Ni4   S    
C86   N16   A    
C88   H37   S    
C45   C97   S    
C9    H81   S    
C103  C104  S    
C103  H45   S    
C12   H88   S    
C14   C15   S    
C74   H22   S    
C2    C81   A    
C76   N6    A    
C51   C60   D    
C12   H87   S    
C17   C83   A    
N18   Ni6   S    
N17   Ni4   S    
C94   N24   A    
C11   H92   S    
C14   C30   S    
C65   C70   D    
N23   Ni3   S    
C104  H41   S    
C13   C68   S    
