data_mof_unit_55396.cif
_audit_creation_date              2012-12-10T18:20:30-0500
_audit_creation_method            fapswitch 2.2
_symmetry_space_group_name_H-M    P1
_symmetry_Int_Tables_number       1
_space_group_crystal_system       triclinic
_cell_length_a                    14.012192
_cell_length_b                    13.61798
_cell_length_c                    15.005394
_cell_angle_alpha                 91.148282
_cell_angle_beta                  89.62485
_cell_angle_gamma                 83.181582
_cell_volume                      2842.35870713

loop_
_atom_site_label
_atom_site_type_symbol
_atom_type_description
_atom_site_fract_x
_atom_site_fract_y
_atom_site_fract_z
_atom_type_partial_charge
C1    C     C_R   0.500916 0.494872 0.326726 0.960299
C2    C     C_R   0.365536 0.404058 0.948767 -0.180433
C3    C     C_R   0.802857 0.452974 0.565515 0.128899
C4    C     C_R   0.197393 0.546049 0.433666 0.116925
C5    C     C_R   0.792592 0.548491 0.435371 0.082094
C6    C     C_R   0.206602 0.456218 0.567191 0.094752
C7    C     C_R   0.892980 0.553493 0.434900 -0.110312
C8    C     C_R   0.105437 0.458182 0.571223 -0.113517
C9    C     C_R   0.949242 0.501864 0.500837 -0.020413
C10   C     C_R   0.050248 0.501947 0.500613 -0.019536
C11   C     C_R   0.904176 0.450524 0.567305 -0.115013
C12   C     C_R   0.499260 0.504841 0.673433 0.981277
C13   C     C_R   0.096217 0.546621 0.430343 -0.115009
C14   C     C_R   0.938020 0.607404 0.370014 0.322018
C15   C     C_R   0.058775 0.416854 0.643181 0.323846
C16   C     C_R   0.517024 0.314228 0.502628 0.943785
C17   C     C_R   0.482968 0.685758 0.497291 0.947187
C18   C     C_R   0.040086 0.593171 0.360895 0.309132
C19   C     C_R   0.960598 0.401200 0.634950 0.320326
C20   C     C_1   0.470153 0.789381 0.493602 -0.126634
C21   C     C_1   0.529918 0.210544 0.505560 -0.087753
C22   C     C_2   0.459992 0.980823 0.489819 -0.112645
C23   C     C_R   0.501412 0.500288 0.953791 0.041970
C24   C     C_2   0.540585 0.018991 0.507916 -0.146403
C25   C     C_1   0.538190 0.122820 0.507362 0.061201
C26   C     C_1   0.462137 0.877053 0.491068 0.044773
C27   C     C_R   0.434007 0.457132 0.813331 -0.280499
C28   C     C_R   0.567658 0.540309 0.187071 -0.273087
C29   C     C_R   0.498044 0.510985 0.769494 -0.186704
C30   C     C_R   0.503286 0.487122 0.230951 -0.204281
C31   C     C_R   0.560663 0.566576 0.817326 0.391831
C32   C     C_R   0.444158 0.427593 0.183496 0.312104
C33   C     C_R   0.568018 0.553825 0.909828 -0.033237
C34   C     C_R   0.502881 0.493206 0.046684 0.047152
C35   C     C_R   0.437142 0.438748 0.090789 -0.024759
C36   C     C_R   0.433111 0.453993 0.905157 0.114502
C37   C     C_R   0.570643 0.540297 0.095329 0.114277
C38   C     C_R   0.640247 0.592162 0.959805 -0.069448
C39   C     C_R   0.366354 0.398041 0.040891 -0.089470
C40   C     C_R   0.639941 0.587700 0.051854 -0.160800
H1    H     H_    0.607138 0.973121 0.523206 0.183790
H2    H     H_    0.235408 0.584496 0.385245 0.190878
H3    H     H_    0.747233 0.581358 0.383474 0.187337
H4    H     H_    0.252170 0.418482 0.616611 0.189823
H5    H     H_    0.582959 0.763910 0.658989 0.385797
H6    H     H_    0.535358 0.260677 0.282678 0.350906
H7    H     H_    0.733025 0.794851 0.334007 0.383828
H8    H     H_    0.200870 0.494279 0.828062 0.385005
H9    H     H_    0.224863 0.567954 0.184942 0.380355
H10   H     H_    0.804299 0.211597 0.682774 0.391193
H11   H     H_    0.393422 0.026701 0.474618 0.191932
H12   H     H_    0.385115 0.416575 0.775523 0.205260
H13   H     H_    0.615714 0.582105 0.224716 0.192342
H14   H     H_    0.698649 0.624264 0.928821 0.229219
H15   H     H_    0.309561 0.363676 0.072275 0.228388
H16   H     H_    0.694490 0.620708 0.089045 0.206239
H17   H     H_    0.311541 0.370101 0.911637 0.195383
H18   H     H_    0.764351 0.419794 0.617162 0.196933
N1    N     N_R   0.750030 0.500040 0.500070 -0.144561
N2    N     N_R   0.249970 0.499960 0.499930 -0.143871
O1    O     O_R   0.580280 0.500020 0.367860 -0.647864
O2    O     O_2   0.714694 0.617068 0.729042 -0.271027
O3    O     O_3   0.550355 0.707796 0.679883 -0.567161
O4    O     O_2   0.302516 0.363022 0.281002 -0.198618
O5    O     O_2   0.383930 0.244146 0.172842 -0.268399
O6    O     O_3   0.474455 0.281741 0.315321 -0.558499
O7    O     O_2   0.925736 0.780374 0.280333 -0.164402
O8    O     O_2   0.825281 0.654621 0.229519 -0.307336
O9    O     O_3   0.776905 0.755678 0.375002 -0.575900
O10   O     O_2   0.048607 0.404608 0.823560 -0.186692
O11   O     O_2   0.181878 0.303474 0.746153 -0.273614
O12   O     O_R   0.419720 0.499980 0.632140 -0.630450
O13   O     O_3   0.188168 0.492843 0.763245 -0.583242
O14   O     O_2   0.028857 0.629184 0.183097 -0.171014
O15   O     O_2   0.133392 0.723454 0.273251 -0.262669
O16   O     O_3   0.190317 0.539181 0.233988 -0.542954
O17   O     O_2   0.988170 0.239625 0.739801 -0.168907
O18   O     O_2   0.852849 0.365872 0.776679 -0.256155
O19   O     O_3   0.838915 0.248871 0.639547 -0.577719
O20   O     O_R   0.419730 0.500030 0.367840 -0.576262
O21   O     O_R   0.580270 0.499970 0.632160 -0.584824
O22   O     O_R   0.591830 0.359650 0.500030 -0.623948
O23   O     O_R   0.408170 0.640350 0.499970 -0.615785
O24   O     O_R   0.431280 0.359660 0.500010 -0.578637
O25   O     O_R   0.568720 0.640340 0.499990 -0.584607
O26   O     O_2   0.630051 0.744760 0.828040 -0.280273
S1    S     S_3+6 0.617866 0.660741 0.764158 0.046240
S2    S     S_3+6 0.397306 0.327296 0.237248 0.061954
S3    S     S_3+6 0.866980 0.701254 0.309718 0.073562
S4    S     S_3+6 0.119155 0.401006 0.747310 0.063880
S5    S     S_3+6 0.097144 0.624666 0.260110 0.089337
S6    S     S_3+6 0.910861 0.312582 0.701944 0.087263
Zn1   Zn    Zn3+2 0.607200 0.499990 0.500020 1.021105
Zn2   Zn    Zn3+2 0.392800 0.500010 0.499980 1.039046

loop_
_geom_bond_atom_site_label_1
_geom_bond_atom_site_label_2
_ccdc_geom_bond_type
C30   C32   A    
O17   S6    D    
C16   C21   S    
C12   C29   S    
C27   C29   A    
C34   C37   A    
C40   H16   S    
C14   C18   A    
C16   O24   A    
H10   O19   S    
C2    H17   S    
C15   C19   A    
C11   C19   A    
C4    H2    S    
C13   C18   A    
C17   O25   A    
C18   S5    S    
O13   S4    S    
H6    O6    S    
C37   C40   A    
O6    S2    S    
O1    Zn1   S    
C32   S2    S    
O7    S3    D    
C17   C20   S    
C34   C35   A    
C4    C13   A    
H7    O9    S    
C19   S6    S    
O25   Zn1   S    
C2    C39   A    
C7    C14   A    
C39   H15   S    
C23   C33   A    
C31   C33   A    
C9    C10   A    
O15   S5    D    
O12   Zn2   S    
C5    H3    S    
O22   Zn1   S    
C6    H4    S    
C24   H1    S    
O10   S4    D    
O9    S3    S    
C31   S1    S    
C5    N1    A    
C32   C35   A    
C6    N2    A    
C24   C25   S    
C5    C7    A    
O26   S1    D    
C6    C8    A    
O18   S6    D    
O23   Zn2   S    
H5    O3    S    
C17   O23   A    
O14   S5    D    
C35   C39   A    
C14   S3    S    
O21   Zn1   S    
C38   H14   S    
C23   C34   A    
C4    N2    A    
C16   O22   A    
O8    S3    D    
H9    O16   S    
O24   Zn2   S    
C9    C11   A    
O19   S6    S    
C8    C15   A    
C22   C24   D    
O20   Zn2   S    
C27   H12   S    
O5    S2    D    
C2    C36   A    
C7    C9    A    
C21   C25   T    
O3    S1    S    
H8    O13   S    
C10   C13   A    
C1    O1    A    
C28   H13   S    
C27   C36   A    
O2    S1    D    
C33   C38   A    
C28   C30   A    
C29   C31   A    
C15   S4    S    
C38   C40   A    
O11   S4    D    
C20   C26   T    
C28   C37   A    
C1    C30   S    
C12   O21   A    
C12   O12   A    
C3    C11   A    
O16   S5    S    
C3    H18   S    
C8    C10   A    
C23   C36   A    
C22   C26   S    
C1    O20   A    
N1    Zn1   S    
O4    S2    D    
N2    Zn2   S    
C22   H11   S    
C3    N1    A    
