data_mof_unit_26853.cif
_audit_creation_date              2012-10-26T19:56:48-0400
_audit_creation_method            fapswitch 2.2
_symmetry_space_group_name_H-M    P1
_symmetry_Int_Tables_number       1
_space_group_crystal_system       triclinic
_cell_length_a                    15.866766
_cell_length_b                    15.351869
_cell_length_c                    9.860141
_cell_angle_alpha                 89.981657
_cell_angle_beta                  59.307469
_cell_angle_gamma                 90.011848
_cell_volume                      2065.33349581

loop_
_atom_site_label
_atom_site_type_symbol
_atom_type_description
_atom_site_fract_x
_atom_site_fract_y
_atom_site_fract_z
_atom_type_partial_charge
C1    C     C_R   0.371573 0.118272 0.562846 0.557678
C2    C     C_2   0.488830 0.999959 0.084941 -0.041460
C3    C     C_2   0.011170 0.500041 0.915058 -0.041452
C4    C     C_2   0.988830 0.499965 0.084941 -0.041747
C5    C     C_2   0.299930 0.812720 0.599704 0.222412
C6    C     C_2   0.699901 0.187434 0.400386 0.222502
C7    C     C_2   0.700706 0.813367 0.399999 0.222188
C8    C     C_2   0.299131 0.186477 0.600078 0.222116
C9    C     C_2   0.800040 0.312616 0.599651 0.222512
C10   C     C_2   0.200116 0.687240 0.400265 0.222423
C11   C     C_2   0.200893 0.313544 0.399907 0.222101
C12   C     C_R   0.628398 0.881696 0.437163 0.557709
C13   C     C_2   0.799318 0.686652 0.599985 0.222177
C14   C     C_2   0.282507 0.786451 0.487127 -0.123312
C15   C     C_2   0.717618 0.213457 0.512761 -0.122996
C16   C     C_2   0.717258 0.786290 0.513135 -0.124706
C17   C     C_2   0.282936 0.213864 0.486717 -0.125055
C18   C     C_2   0.782251 0.286655 0.487323 -0.123034
C19   C     C_2   0.217670 0.713399 0.512753 -0.123386
C20   C     C_2   0.217099 0.286168 0.513264 -0.125075
C21   C     C_2   0.782876 0.713823 0.486778 -0.124645
C22   C     C_3   0.823383 0.185584 0.143361 -0.034340
C23   C     C_R   0.628248 0.118478 0.437196 0.557365
C24   C     C_3   0.882483 0.244336 0.001010 -0.354672
C25   C     C_3   0.175881 0.815359 0.856230 -0.034265
C26   C     C_3   0.116925 0.757508 0.999975 -0.354924
C27   C     C_3   0.172797 0.180084 0.854320 -0.033201
C28   C     C_3   0.114998 0.233219 0.004660 -0.355351
C29   C     C_3   0.826436 0.818842 0.145111 -0.033462
C30   C     C_3   0.884591 0.764433 0.996482 -0.355357
C31   C     C_3   0.323915 0.684704 0.143528 -0.034225
C32   C     C_3   0.382968 0.742760 0.000119 -0.354855
C33   C     C_3   0.676714 0.314475 0.856812 -0.034282
C34   C     C_R   0.371719 0.881555 0.562817 0.557314
C35   C     C_3   0.617482 0.255619 0.998955 -0.354678
C36   C     C_3   0.673367 0.681081 0.854677 -0.033485
C37   C     C_3   0.615306 0.735262 0.003633 -0.355402
C38   C     C_3   0.327265 0.319899 0.145683 -0.033190
C39   C     C_3   0.385052 0.266754 0.995348 -0.355385
C40   C     C_R   0.871610 0.618310 0.562832 0.557721
C41   C     C_R   0.128433 0.381734 0.437150 0.557708
C42   C     C_R   0.128294 0.618433 0.437174 0.557296
C43   C     C_R   0.871735 0.381537 0.562814 0.557359
C44   C     C_2   0.511170 0.000036 0.915059 -0.041727
Cu1   Cu    Cu3+1 0.522650 0.000000 0.349410 0.915677
Cu2   Cu    Cu3+1 0.477350 0.000000 0.650590 0.916401
Cu3   Cu    Cu3+1 0.022650 0.500000 0.349410 0.916394
Cu4   Cu    Cu3+1 0.977350 0.500000 0.650590 0.915679
H1    H     H_    0.628388 0.000129 0.031335 0.204449
H2    H     H_    0.816033 0.320209 0.374450 0.158609
H3    H     H_    0.818523 0.681822 0.372438 0.159204
H4    H     H_    0.181071 0.317860 0.627890 0.159300
H5    H     H_    0.412598 0.999867 0.178841 0.151435
H6    H     H_    0.587402 0.000123 0.821160 0.151222
H7    H     H_    0.912598 0.499879 0.178839 0.151214
H8    H     H_    0.087402 0.500132 0.821159 0.151416
H9    H     H_    0.800731 0.126573 0.104482 0.148884
H10   H     H_    0.872098 0.165775 0.188846 0.113998
H11   H     H_    0.907948 0.302831 0.036269 0.151900
H12   H     H_    0.371612 0.999875 0.968665 0.204780
H13   H     H_    0.947233 0.208551 0.908691 0.097526
H14   H     H_    0.836968 0.265513 0.951182 0.203430
H15   H     H_    0.127126 0.834195 0.810299 0.114267
H16   H     H_    0.198429 0.874997 0.893700 0.148397
H17   H     H_    0.162378 0.737631 0.050650 0.203695
H18   H     H_    0.051910 0.793489 0.091205 0.096598
H19   H     H_    0.091891 0.698219 0.966036 0.152768
H20   H     H_    0.195055 0.117638 0.884392 0.145976
H21   H     H_    0.123493 0.166008 0.807288 0.115601
H22   H     H_    0.091100 0.295720 0.978129 0.156750
H23   H     H_    0.128388 0.500123 0.031335 0.204763
H24   H     H_    0.049321 0.196172 0.091565 0.092518
H25   H     H_    0.160871 0.247270 0.057270 0.204187
H26   H     H_    0.875572 0.834233 0.191937 0.115220
H27   H     H_    0.804074 0.880559 0.113018 0.146897
H28   H     H_    0.838891 0.748842 0.944180 0.204248
H29   H     H_    0.950123 0.801230 0.908483 0.093493
H30   H     H_    0.908745 0.702723 0.025069 0.155747
H31   H     H_    0.301188 0.625303 0.105740 0.148722
H32   H     H_    0.372672 0.665476 0.189249 0.114050
H33   H     H_    0.408248 0.801778 0.034350 0.152540
H34   H     H_    0.871612 0.499873 0.968665 0.204445
H35   H     H_    0.447830 0.706755 0.908566 0.096770
H36   H     H_    0.337497 0.763091 0.949726 0.203732
H37   H     H_    0.628028 0.334591 0.811441 0.113849
H38   H     H_    0.699528 0.373300 0.895891 0.149107
H39   H     H_    0.662984 0.234067 0.048587 0.203439
H40   H     H_    0.552881 0.291467 0.091485 0.097632
H41   H     H_    0.591781 0.197352 0.963527 0.151707
H42   H     H_    0.695575 0.619158 0.886420 0.146560
H43   H     H_    0.624228 0.666065 0.807701 0.115423
H44   H     H_    0.591389 0.797213 0.975379 0.155997
H45   H     H_    0.683801 0.179932 0.625663 0.158683
H46   H     H_    0.549629 0.698505 0.091321 0.093338
H47   H     H_    0.660983 0.750396 0.056167 0.204132
H48   H     H_    0.376557 0.333935 0.192755 0.115615
H49   H     H_    0.305056 0.382368 0.115597 0.145917
H50   H     H_    0.339210 0.252782 0.942650 0.204126
H51   H     H_    0.450794 0.303747 0.908483 0.092553
H52   H     H_    0.408851 0.204208 0.021910 0.156755
H53   H     H_    0.316727 0.819660 0.373902 0.158820
H54   H     H_    0.318964 0.182173 0.372091 0.159286
H55   H     H_    0.681692 0.818355 0.627415 0.159144
H56   H     H_    0.183537 0.680123 0.625910 0.158746
N1    N     N_2   0.443290 0.000000 0.876860 -0.353733
N2    N     N_2   0.556710 0.000000 0.123140 -0.354001
N3    N     N_2   0.943290 0.500000 0.876860 -0.354006
N4    N     N_2   0.056710 0.500000 0.123140 -0.353727
O1    O     O_R   0.422430 0.089640 0.419570 -0.525751
O2    O     O_R   0.615830 0.910350 0.326090 -0.477536
O3    O     O_R   0.615830 0.089650 0.326090 -0.480381
O4    O     O_R   0.384170 0.910350 0.673910 -0.479931
O5    O     O_R   0.884170 0.589650 0.673910 -0.477459
O6    O     O_R   0.115830 0.410350 0.326090 -0.476932
O7    O     O_R   0.115830 0.589650 0.326090 -0.480016
O8    O     O_R   0.884170 0.410350 0.673910 -0.480437
O9    O     O_3   0.739964 0.231352 0.257661 -0.575661
O10   O     O_3   0.259327 0.769230 0.742906 -0.575595
O11   O     O_3   0.256173 0.227960 0.745304 -0.575014
O12   O     O_R   0.577570 0.910360 0.580430 -0.525690
O13   O     O_3   0.743055 0.771374 0.255285 -0.575227
O14   O     O_3   0.240596 0.730842 0.257182 -0.575674
O15   O     O_3   0.760015 0.268650 0.742328 -0.575741
O16   O     O_3   0.756855 0.728541 0.744806 -0.575156
O17   O     O_3   0.243846 0.272059 0.254680 -0.574991
O18   O     O_R   0.577570 0.089640 0.580430 -0.525385
O19   O     O_R   0.422430 0.910360 0.419570 -0.525416
O20   O     O_R   0.922430 0.589640 0.419570 -0.525725
O21   O     O_R   0.077570 0.410360 0.580430 -0.525759
O22   O     O_R   0.077570 0.589640 0.580430 -0.525383
O23   O     O_R   0.922430 0.410360 0.419570 -0.525342
O24   O     O_R   0.384170 0.089650 0.673910 -0.476972

loop_
_geom_bond_atom_site_label_1
_geom_bond_atom_site_label_2
_ccdc_geom_bond_type
Cu3   O6    S    
C16   C21   S    
Cu2   O4    S    
C15   C18   S    
C1    C8    S    
C34   O4    A    
C25   H15   S    
C41   O6    A    
C17   H54   S    
C1    O24   A    
C25   O10   S    
C22   H9    S    
C12   O2    A    
C31   H32   S    
C44   N1    D    
Cu3   O7    S    
C32   H33   S    
C4    N4    D    
C24   H13   S    
C26   H19   S    
C36   C37   S    
C36   O16   S    
Cu2   O24   S    
C38   C39   S    
C33   C35   S    
Cu1   O1    S    
Cu4   N3    S    
C10   C42   S    
C40   O20   A    
Cu2   N1    S    
C17   C20   S    
C37   H47   S    
C35   H40   S    
C33   H37   S    
C13   C40   S    
C27   H20   S    
C1    O1    A    
C6    C15   D    
C12   O12   A    
C30   H29   S    
C35   H39   S    
C40   O5    A    
C2    C44   S    
C34   O19   A    
C29   O13   S    
C6    O9    S    
C27   H21   S    
Cu4   O8    S    
H23   N4    S    
Cu4   O22   S    
C28   H24   S    
C7    O13   S    
C38   H49   S    
C28   H25   S    
C7    C12   S    
C32   H36   S    
C11   C20   D    
C9    C43   S    
Cu2   O12   S    
C26   H18   S    
Cu3   O20   S    
C13   O16   S    
Cu1   O2    S    
C14   H53   S    
C29   H26   S    
C3    N3    D    
C25   C26   S    
Cu1   Cu2   S    
C2    N2    D    
Cu3   O23   S    
C25   H16   S    
C33   H38   S    
C15   H45   S    
C29   C30   S    
C43   O8    A    
C2    H5    S    
C30   H28   S    
C3    H8    S    
C9    C18   D    
C16   H55   S    
C39   H51   S    
Cu3   Cu4   S    
C10   C19   D    
C5    C34   S    
C13   C21   D    
C42   O22   A    
H34   N3    S    
C5    C14   D    
C23   O18   A    
C10   O14   S    
C35   H41   S    
C36   H43   S    
C7    C16   D    
C4    H7    S    
C22   C24   S    
Cu4   O21   S    
C3    C4    S    
C21   H3    S    
C38   O17   S    
Cu1   N2    S    
C18   H2    S    
C36   H42   S    
C32   H35   S    
C24   H14   S    
C37   H44   S    
C11   O17   S    
C26   H17   S    
C14   C19   S    
Cu2   O18   S    
C31   C32   S    
C28   H22   S    
C31   O14   S    
C39   H50   S    
C19   H56   S    
C22   H10   S    
Cu1   O3    S    
C31   H31   S    
H1    N2    S    
C29   H27   S    
C27   O11   S    
C23   O3    A    
C8    C17   D    
C5    O10   S    
C43   O23   A    
C20   H4    S    
C41   O21   A    
C39   H52   S    
Cu1   O19   S    
C24   H11   S    
C6    C23   S    
C9    O15   S    
C37   H46   S    
C11   C41   S    
C30   H30   S    
C44   H6    S    
C42   O7    A    
Cu3   N4    S    
C38   H48   S    
C27   C28   S    
C33   O15   S    
C22   O9    S    
H12   N1    S    
C8    O11   S    
Cu4   O5    S    
