data_mof_unit_8303.cif
_audit_creation_date              2012-12-10T20:42:41-0500
_audit_creation_method            fapswitch 2.2
_symmetry_space_group_name_H-M    P1
_symmetry_Int_Tables_number       1
_space_group_crystal_system       triclinic
_cell_length_a                    8.895039
_cell_length_b                    10.713831
_cell_length_c                    9.873504
_cell_angle_alpha                 90.033221
_cell_angle_beta                  90.091729
_cell_angle_gamma                 90.354662
_cell_volume                      940.924987864

loop_
_atom_site_label
_atom_site_type_symbol
_atom_type_description
_atom_site_fract_x
_atom_site_fract_y
_atom_site_fract_z
_atom_type_partial_charge
C1    C     C_R   0.495775 0.259995 0.499858 0.864371
C2    C     C_R   0.472923 0.935374 0.374329 -0.227621
C3    C     C_R   0.478166 0.871466 0.498327 -0.062685
C4    C     C_R   0.454163 0.936326 0.618453 0.053622
C5    C     C_3   0.526514 0.930747 0.755289 0.358351
C6    C     C_3   0.521728 0.072557 0.754834 -0.534911
C7    C     C_R   0.369049 0.483279 0.071265 0.156290
C8    C     C_R   0.627857 0.523901 0.071992 -0.144691
C9    C     C_R   0.628130 0.522684 0.928382 -0.186477
C10   C     C_R   0.368912 0.482699 0.928371 0.201115
C11   C     C_3   0.273128 0.367627 0.925046 0.288413
C12   C     C_R   0.218768 0.501339 0.499863 0.926063
C13   C     C_3   0.269865 0.371153 0.078889 -0.588531
C14   C     C_R   0.497730 0.740038 0.499850 0.893444
C15   C     C_R   0.781258 0.501179 0.500058 0.948827
C16   C     C_1   0.065471 0.503247 0.499591 -0.190821
C17   C     C_1   0.934583 0.503050 0.499889 -0.208330
C18   C     C_R   0.449773 0.063379 0.618309 0.034055
C19   C     C_R   0.474003 0.128497 0.498253 -0.061123
C20   C     C_R   0.471226 0.064303 0.374276 -0.220373
H1    H     H_    0.326352 0.289871 0.126439 0.176577
H2    H     H_    0.731579 0.542371 0.125770 0.164150
N1    N     N_R   0.499010 0.499140 0.142800 -0.099789
N2    N     N_R   0.499010 0.499180 0.857150 -0.138726
O1    O     O_R   0.500020 0.316790 0.614690 -0.628396
O2    O     O_R   0.500000 0.316760 0.385350 -0.623418
O3    O     O_R   0.285350 0.500020 0.614650 -0.588832
O4    O     O_R   0.285340 0.499980 0.385310 -0.617506
O5    O     O_R   0.500000 0.683240 0.614650 -0.606624
O6    O     O_R   0.499980 0.683210 0.385310 -0.633551
O7    O     O_R   0.714660 0.500020 0.614690 -0.616438
O8    O     O_R   0.714650 0.499980 0.385350 -0.624355
Zn1   Zn    Zn3+2 0.500010 0.500020 0.653130 0.954930
Zn2   Zn    Zn3+2 0.499990 0.499980 0.346870 0.937514
H3    H     H_    0.478356 0.112570 0.278083 0.164030
H4    H     H_    0.335395 0.287743 0.881621 0.079018
H5    H     H_    0.157828 0.393752 0.121932 0.223255
H6    H     H_    0.480224 0.887135 0.278123 0.171844
H7    H     H_    0.450034 0.886037 0.830792 0.053080
O9    O     O_3   0.675957 0.886328 0.748957 -0.619026
C21   C     C_3   0.720396 0.836814 0.875646 0.127615
H8    H     H_    0.822490 0.779809 0.858329 0.167580
H9    H     H_    0.633815 0.772668 0.918122 0.129803
C22   C     C_3   0.758874 0.939837 0.978468 -0.417371
H10   H     H_    0.845451 0.003415 0.935475 0.230912
H11   H     H_    0.656948 0.995221 0.001674 0.214193
C23   C     C_3   0.817986 0.884408 0.110458 -0.942824
H12   H     H_    0.732766 0.820742 0.155724 0.268498
H13   H     H_    0.842502 0.960635 0.183639 0.270813
H14   H     H_    0.923109 0.831744 0.091691 0.263751
H15   H     H_    0.444078 0.108540 0.832930 0.145098
H16   H     H_    0.633950 0.118757 0.752105 0.219066
H17   H     H_    0.732106 0.539979 0.874876 0.171372
O10   O     O_3   0.130781 0.390322 0.866198 -0.607129
C24   C     C_3   0.052476 0.275830 0.848004 0.096240
H18   H     H_    0.930073 0.294882 0.854936 0.156314
H19   H     H_    0.077590 0.206551 0.929330 0.124014
C25   C     C_3   0.085040 0.220912 0.707499 -0.368385
H20   H     H_    0.030384 0.279063 0.629114 0.223869
H21   H     H_    0.207672 0.221406 0.687784 0.230678
C26   C     C_3   0.026349 0.087448 0.694038 -0.944617
H22   H     H_    0.079685 0.026318 0.770968 0.258704
H23   H     H_    0.053957 0.050899 0.591844 0.272966
H24   H     H_    0.902470 0.085146 0.706723 0.282112

loop_
_geom_bond_atom_site_label_1
_geom_bond_atom_site_label_2
_ccdc_geom_bond_type
C19   C20   A    
C7    C10   A    
C8    H2    S    
C24   H18   S    
O7    Zn1   S    
C9    N2    A    
C15   O7    A    
O5    Zn1   S    
C6    H15   S    
C26   H24   S    
C21   H9    S    
C21   H8    S    
C2    H6    S    
C13   H5    S    
N2    Zn1   S    
C22   C23   S    
C25   H21   S    
N1    Zn2   S    
C4    C18   A    
C25   C26   S    
C5    H7    S    
C2    C3    A    
O4    Zn2   S    
C15   O8    A    
C23   H13   S    
O3    Zn1   S    
C1    O1    A    
C4    C5    S    
C11   C13   S    
C1    O2    A    
C3    C14   S    
C14   O6    A    
C7    N1    A    
C5    C6    S    
C11   O10   S    
O9    C21   S    
C12   O4    A    
C23   H14   S    
C24   H19   S    
C26   H22   S    
C6    C18   S    
C21   C22   S    
C1    C19   S    
C9    H17   S    
C10   C11   S    
O6    Zn2   S    
C12   O3    A    
C13   H1    S    
C3    C4    A    
C12   C16   S    
C7    C13   S    
C8    N1    A    
C22   H10   S    
C24   C25   S    
C18   C19   A    
C5    O9    S    
O1    Zn1   S    
C26   H23   S    
O10   C24   S    
C16   C17   T    
C10   N2    A    
C14   O5    A    
C6    H16   S    
C25   H20   S    
C15   C17   S    
C20   H3    S    
C2    C20   A    
O2    Zn2   S    
C11   H4    S    
C23   H12   S    
C22   H11   S    
C8    C9    A    
O8    Zn2   S    
