data_mof_unit_9404.cif
_audit_creation_date              2012-12-11T14:10:55-0500
_audit_creation_method            fapswitch 2.2
_symmetry_space_group_name_H-M    P1
_symmetry_Int_Tables_number       1
_space_group_crystal_system       triclinic
_cell_length_a                    19.72987
_cell_length_b                    17.153641
_cell_length_c                    15.543103
_cell_angle_alpha                 90.000687
_cell_angle_beta                  52.511179
_cell_angle_gamma                 89.976716
_cell_volume                      4173.9752305

loop_
_atom_site_label
_atom_site_type_symbol
_atom_type_description
_atom_site_fract_x
_atom_site_fract_y
_atom_site_fract_z
_atom_type_partial_charge
C1    C     C_R   0.338365 0.174163 0.049888 -0.150537
C2    C     C_3   0.773511 0.797863 0.425367 -0.118644
C3    C     C_3   0.040948 0.895169 0.855878 -0.937639
C4    C     C_3   0.097194 0.201992 0.825202 0.247313
C5    C     C_3   0.117460 0.119008 0.837376 -0.931999
C6    C     C_3   0.970096 0.807845 0.143037 0.270220
C7    C     C_3   0.958237 0.895631 0.145008 -0.936910
C8    C     C_3   0.691755 0.248929 0.442695 -0.100935
C9    C     C_3   0.227172 0.797657 0.574323 -0.117932
C10   C     C_3   0.812018 0.751421 0.556292 -0.099217
C11   C     C_3   0.277072 0.299361 0.423563 -0.124096
C12   C     C_3   0.187984 0.751822 0.443904 -0.098798
C13   C     C_3   0.734270 0.294703 0.569702 -0.102909
C14   C     C_2   0.286864 0.686849 0.954184 -0.194968
C15   C     C_2   0.810144 0.256205 0.904818 -0.217932
C16   C     C_2   0.712848 0.686701 0.046326 -0.196216
C17   C     C_R   0.625032 0.802752 0.006444 -0.098185
C18   C     C_2   0.190073 0.256382 0.095310 -0.215274
C19   C     C_2   0.786557 0.187049 0.954822 -0.197604
C20   C     C_2   0.310084 0.756231 0.904762 -0.217628
C21   C     C_2   0.212808 0.186713 0.046643 -0.194550
C22   C     C_2   0.689646 0.756136 0.095662 -0.217167
C23   C     C_R   0.350345 0.826046 0.222135 0.517497
C24   C     C_R   0.616015 0.194987 0.781547 0.544985
C25   C     C_R   0.649630 0.825948 0.777951 0.517770
C26   C     C_R   0.392581 0.197629 0.213617 0.498640
C27   C     C_R   0.850523 0.325909 0.221685 0.518002
C28   C     C_R   0.660854 0.175049 0.951941 -0.190993
C29   C     C_R   0.110444 0.696811 0.785203 0.499017
C30   C     C_R   0.149282 0.325647 0.778221 0.518456
C31   C     C_R   0.890007 0.696955 0.214583 0.499488
C32   C     C_R   0.365229 0.890048 0.897399 -0.155474
C33   C     C_R   0.669995 0.086699 0.049249 -0.138528
C34   C     C_R   0.634695 0.890023 0.102705 -0.155231
C35   C     C_R   0.329724 0.086541 0.951365 -0.138404
C36   C     C_R   0.865259 0.390053 0.897360 -0.155816
C37   C     C_R   0.170115 0.586610 0.049002 -0.138014
C38   C     C_R   0.134870 0.390112 0.102507 -0.154666
C39   C     C_R   0.374860 0.802804 0.993747 -0.099932
C40   C     C_R   0.829798 0.586553 0.951187 -0.139219
C41   C     C_R   0.398304 0.105110 0.309388 -0.229252
C42   C     C_R   0.643310 0.919771 0.683530 -0.224220
C43   C     C_R   0.608188 0.102648 0.687383 -0.255248
C44   C     C_R   0.356462 0.920291 0.316346 -0.226595
C45   C     C_R   0.897303 0.605058 0.309801 -0.235715
C46   C     C_R   0.143379 0.419748 0.683567 -0.225867
C47   C     C_R   0.103157 0.604922 0.689953 -0.235992
C48   C     C_R   0.856286 0.420281 0.316162 -0.226347
C49   C     C_R   0.286813 0.147188 0.024047 0.150804
C50   C     C_R   0.838596 0.674470 0.049230 -0.178509
C51   C     C_R   0.652842 0.814135 0.067707 0.129924
C52   C     C_R   0.712527 0.147768 0.977427 0.163777
C53   C     C_R   0.346999 0.814201 0.932540 0.130628
C54   C     C_R   0.786975 0.647336 0.023587 0.154750
C55   C     C_R   0.153136 0.314258 0.067404 0.130997
C56   C     C_R   0.212864 0.647438 0.976735 0.154836
C57   C     C_R   0.847006 0.314231 0.932548 0.131106
C58   C     C_R   0.307058 0.860017 0.323316 -0.100423
C59   C     C_R   0.637789 0.175783 0.682068 -0.080094
C60   C     C_R   0.692790 0.859661 0.676736 -0.101847
C61   C     C_R   0.125208 0.302796 0.006266 -0.097182
C62   C     C_R   0.375175 0.180569 0.311768 -0.120815
C63   C     C_R   0.807174 0.359739 0.322876 -0.098258
C64   C     C_R   0.127974 0.679911 0.687123 -0.113176
C65   C     C_R   0.192420 0.359163 0.677008 -0.102565
C66   C     C_R   0.872827 0.680152 0.312481 -0.114211
C67   C     C_3   0.268378 0.199580 0.518583 -0.146027
C68   C     C_3   0.815120 0.849795 0.462744 -0.168243
C69   C     C_3   0.737035 0.197534 0.475268 -0.160078
C70   C     C_3   0.185233 0.849874 0.537618 -0.167738
C71   C     C_3   0.770238 0.699879 0.519001 -0.146396
C72   C     C_R   0.161286 0.674547 0.950992 -0.178754
C73   C     C_3   0.317765 0.348919 0.464281 -0.170213
C74   C     C_3   0.230104 0.699998 0.480515 -0.145453
C75   C     C_3   0.689061 0.346427 0.537209 -0.161046
C76   C     C_3   0.709272 0.766054 0.540778 -0.188004
C77   C     C_3   0.377222 0.279991 0.443275 -0.209043
C78   C     C_3   0.291145 0.766073 0.458681 -0.186909
C79   C     C_3   0.628040 0.278327 0.560898 -0.194307
C80   C     C_3   0.209936 0.267624 0.538253 -0.188228
C81   C     C_3   0.877222 0.782732 0.439337 -0.199935
C82   C     C_3   0.797060 0.264782 0.453003 -0.195334
C83   C     C_R   0.874800 0.302849 0.993806 -0.102193
C84   C     C_3   0.123062 0.782918 0.561078 -0.200020
C85   C     C_3   0.751194 0.817219 0.577296 0.225988
C86   C     C_3   0.335290 0.231602 0.404490 0.215686
C87   C     C_3   0.248888 0.817521 0.422828 0.225323
C88   C     C_3   0.674531 0.227776 0.591299 0.232407
C89   C     C_3   0.250967 0.316476 0.577990 0.228080
C90   C     C_3   0.834244 0.731937 0.404130 0.219709
C91   C     C_3   0.751553 0.315811 0.421336 0.221667
C92   C     C_3   0.166370 0.731832 0.595603 0.218995
C93   C     C_3   0.403323 0.702654 0.172747 0.250279
C94   C     C_3   0.309144 0.248758 0.559312 -0.093951
C95   C     C_3   0.382449 0.619422 0.162565 -0.931066
C96   C     C_3   0.531883 0.296762 0.893181 0.237849
C97   C     C_3   0.483845 0.314614 0.846980 -0.963717
C98   C     C_3   0.597415 0.702377 0.826716 0.249118
C99   C     C_3   0.618481 0.619400 0.837640 -0.926317
C100  C     C_3   0.465088 0.313940 0.158617 0.256783
C101  C     C_3   0.449891 0.400605 0.155774 -0.950105
C102  C     C_3   0.905583 0.203116 0.169671 0.251769
C103  C     C_3   0.885585 0.119560 0.159304 -0.930975
C104  C     C_3   0.029721 0.807315 0.857565 0.271095
H1    H     H_    0.327409 0.223053 0.100074 0.156676
H2    H     H_    0.690118 0.052970 0.088884 0.099129
H3    H     H_    0.638380 0.916302 0.163022 0.097504
H4    H     H_    0.309620 0.052987 0.911591 0.100263
H5    H     H_    0.861574 0.416293 0.837023 0.097042
H6    H     H_    0.190198 0.552982 0.088757 0.100283
H7    H     H_    0.138605 0.416413 0.162770 0.097120
H8    H     H_    0.809689 0.552896 0.911496 0.100017
H9    H     H_    0.402896 0.076677 0.367770 0.125982
H10   H     H_    0.654610 0.953062 0.617008 0.134425
H11   H     H_    0.603117 0.075316 0.628822 0.129210
H12   H     H_    0.615497 0.747342 0.983128 0.131627
H13   H     H_    0.344883 0.954405 0.382504 0.134368
H14   H     H_    0.902284 0.577084 0.368109 0.126860
H15   H     H_    0.155100 0.453717 0.617227 0.134587
H16   H     H_    0.098224 0.577007 0.631575 0.126726
H17   H     H_    0.844771 0.454098 0.382509 0.134484
H18   H     H_    0.639456 0.760118 0.583842 0.112651
H19   H     H_    0.446959 0.283429 0.401713 0.117933
H20   H     H_    0.361007 0.760081 0.415273 0.112520
H21   H     H_    0.557666 0.281972 0.607674 0.127680
H22   H     H_    0.140335 0.263454 0.578942 0.112828
H23   H     H_    0.671046 0.224977 0.903873 0.150132
H24   H     H_    0.947264 0.787994 0.394631 0.119019
H25   H     H_    0.867313 0.260323 0.407419 0.114129
H26   H     H_    0.052979 0.788243 0.606133 0.119170
H27   H     H_    0.248486 0.137639 0.539313 0.113067
H28   H     H_    0.832180 0.912299 0.442839 0.114733
H29   H     H_    0.756295 0.135716 0.451754 0.115664
H30   H     H_    0.168152 0.912355 0.557912 0.114591
H31   H     H_    0.752070 0.637691 0.540651 0.113812
H32   H     H_    0.336698 0.411129 0.445044 0.117588
H33   H     H_    0.248266 0.637826 0.458524 0.113164
H34   H     H_    0.384282 0.747406 0.017240 0.131853
H35   H     H_    0.670489 0.408446 0.559726 0.116576
H36   H     H_    0.322099 0.229293 0.616142 0.146438
H37   H     H_    0.757546 0.816120 0.371108 0.147102
H38   H     H_    0.674733 0.231703 0.389181 0.143692
H39   H     H_    0.243405 0.815645 0.628397 0.146782
H40   H     H_    0.827247 0.733750 0.611491 0.143171
H41   H     H_    0.263420 0.319317 0.367598 0.148310
H42   H     H_    0.172459 0.734400 0.388926 0.142841
H43   H     H_    0.752397 0.312528 0.621862 0.143405
H44   H     H_    0.309902 0.665921 0.997928 0.130282
H45   H     H_    0.827731 0.723679 0.098809 0.158726
H46   H     H_    0.789304 0.276154 0.858189 0.136868
H47   H     H_    0.689764 0.665744 0.002659 0.130086
H48   H     H_    0.211604 0.276774 0.140980 0.135890
H49   H     H_    0.809375 0.166209 0.998849 0.130101
H50   H     H_    0.288954 0.776374 0.858535 0.137001
H51   H     H_    0.189432 0.165604 0.003368 0.130209
H52   H     H_    0.710814 0.776312 0.141826 0.136981
H53   H     H_    0.414668 0.703353 0.234743 0.094638
H54   H     H_    0.462738 0.720535 0.093314 0.078361
H55   H     H_    0.372028 0.616116 0.100051 0.246321
H56   H     H_    0.115802 0.247363 0.982820 0.132602
H57   H     H_    0.436353 0.580406 0.138366 0.223896
H58   H     H_    0.323889 0.599363 0.241515 0.256664
H59   H     H_    0.536846 0.352047 0.925850 0.140852
H60   H     H_    0.495235 0.255767 0.962005 0.132222
H61   H     H_    0.472769 0.260401 0.818178 0.251752
H62   H     H_    0.420811 0.340781 0.911238 0.235263
H63   H     H_    0.520883 0.356583 0.778850 0.263499
H64   H     H_    0.586994 0.702603 0.763861 0.094910
H65   H     H_    0.537457 0.720225 0.905651 0.078410
H66   H     H_    0.627619 0.616507 0.901346 0.244424
H67   H     H_    0.172064 0.723819 0.901571 0.158727
H68   H     H_    0.565280 0.579904 0.860521 0.218028
H69   H     H_    0.677858 0.599591 0.759306 0.256047
H70   H     H_    0.526394 0.296795 0.080809 0.090349
H71   H     H_    0.472092 0.304979 0.223609 0.100517
H72   H     H_    0.392729 0.419913 0.236472 0.256088
H73   H     H_    0.506129 0.434393 0.134755 0.218240
H74   H     H_    0.439148 0.412753 0.094794 0.257444
H75   H     H_    0.918548 0.204034 0.230105 0.094968
H76   H     H_    0.963900 0.221819 0.089756 0.078127
H77   H     H_    0.873818 0.116044 0.098057 0.246006
H78   H     H_    0.884149 0.247456 0.017319 0.132303
H79   H     H_    0.940450 0.081264 0.133293 0.223455
H80   H     H_    0.828039 0.098728 0.238645 0.257000
H81   H     H_    0.977258 0.788921 0.941638 0.128254
H82   H     H_    0.010759 0.794003 0.804611 0.087216
H83   H     H_    0.089081 0.915362 0.771211 0.254207
H84   H     H_    0.979272 0.924862 0.890361 0.216057
H85   H     H_    0.063133 0.911110 0.904243 0.267856
H86   H     H_    0.088668 0.202190 0.760616 0.096208
H87   H     H_    0.036424 0.219865 0.903143 0.079936
H88   H     H_    0.064649 0.079580 0.858682 0.224300
H89   H     H_    0.361499 0.916307 0.837109 0.097609
H90   H     H_    0.177568 0.099053 0.759986 0.256694
H91   H     H_    0.124825 0.116178 0.902668 0.245973
H92   H     H_    0.023028 0.789694 0.059025 0.127734
H93   H     H_    0.988696 0.794722 0.196415 0.087341
H94   H     H_    0.909661 0.915626 0.229684 0.254055
H95   H     H_    0.019603 0.925675 0.111102 0.215877
H96   H     H_    0.936334 0.911377 0.096268 0.267985
N1    N     N_R   0.408680 0.130810 0.995780 -0.056781
N2    N     N_R   0.578590 0.132790 0.846380 -0.102990
N3    N     N_R   0.578590 0.867210 0.846380 -0.110740
N4    N     N_R   0.421410 0.132790 0.153620 -0.091442
N5    N     N_R   0.921410 0.367210 0.153620 -0.111828
N6    N     N_R   0.078590 0.632790 0.846380 -0.090389
N7    N     N_R   0.078590 0.367210 0.846380 -0.110051
N8    N     N_R   0.921410 0.632790 0.153620 -0.090187
N9    N     N_R   0.403840 0.921910 0.935760 -0.039588
N10   N     N_R   0.596160 0.078090 0.064240 -0.039757
N11   N     N_R   0.596160 0.921910 0.064240 -0.039484
N12   N     N_R   0.591320 0.869190 0.004220 -0.057992
N13   N     N_R   0.403840 0.078090 0.935760 -0.040248
N14   N     N_R   0.903840 0.421910 0.935760 -0.039339
N15   N     N_R   0.096160 0.578090 0.064240 -0.041384
N16   N     N_R   0.096160 0.421910 0.064240 -0.039548
N17   N     N_R   0.903840 0.578090 0.935760 -0.041295
N18   N     N_R   0.426250 0.076100 0.213650 -0.050573
N19   N     N_R   0.573750 0.923900 0.786350 -0.057477
N20   N     N_R   0.573750 0.076100 0.786350 -0.050397
N21   N     N_R   0.426250 0.923900 0.213650 -0.058277
N22   N     N_R   0.926250 0.576100 0.213650 -0.050801
N23   N     N_R   0.591320 0.130810 0.004220 -0.058303
N24   N     N_R   0.073750 0.423900 0.786350 -0.058095
N25   N     N_R   0.073750 0.576100 0.786350 -0.050753
N26   N     N_R   0.926250 0.423900 0.213650 -0.058532
N27   N     N_R   0.408680 0.869190 0.995780 -0.058170
N28   N     N_R   0.908680 0.630810 0.995780 -0.055691
N29   N     N_R   0.091320 0.369190 0.004220 -0.058050
N30   N     N_R   0.091320 0.630810 0.004220 -0.055536
N31   N     N_R   0.908680 0.369190 0.995780 -0.058363
N32   N     N_R   0.421410 0.867210 0.153620 -0.110965
Ni1   Ni    Ni4+2 0.500000 0.131570 0.000000 0.212817
Ni2   Ni    Ni4+2 0.500000 0.868430 0.000000 0.191794
Ni3   Ni    Ni4+2 0.000000 0.631570 0.000000 0.220806
Ni4   Ni    Ni4+2 0.000000 0.368430 0.000000 0.192181
Ni5   Ni    Ni4+2 0.488900 1.000000 0.862310 0.195251
Ni6   Ni    Ni4+2 0.511100 0.000000 0.137690 0.194139
Ni7   Ni    Ni4+2 0.988900 0.500000 0.862310 0.194625
Ni8   Ni    Ni4+2 0.011100 0.500000 0.137690 0.194487
O1    O     O_3   0.334650 0.751978 0.203071 -0.656899
O2    O     O_3   0.615906 0.270527 0.812942 -0.692314
O3    O     O_3   0.665521 0.752085 0.797332 -0.657270
O4    O     O_3   0.397071 0.271222 0.174033 -0.681464
O5    O     O_3   0.835566 0.251469 0.202595 -0.656588
O6    O     O_3   0.106494 0.770591 0.823536 -0.678284
O7    O     O_3   0.164659 0.251722 0.798069 -0.658619
O8    O     O_3   0.893807 0.770655 0.176140 -0.678510

loop_
_geom_bond_atom_site_label_1
_geom_bond_atom_site_label_2
_ccdc_geom_bond_type
C78   C87   S    
C45   H14   S    
C23   C58   A    
C14   C56   S    
C10   C85   S    
C102  H75   S    
C12   C74   S    
C40   N17   A    
C31   C66   A    
C18   C21   D    
C94   H36   S    
C29   O6    S    
C50   N28   A    
C43   N20   A    
C17   N12   A    
C1    N1    A    
C3    H84   S    
C17   C51   A    
C21   C49   S    
C41   N18   A    
C9    H39   S    
C2    C76   S    
C66   C90   S    
C99   H66   S    
C22   H52   S    
C33   C52   A    
C65   C89   S    
C104  H81   S    
C62   C86   S    
C24   N2    A    
C34   C51   A    
C50   C54   A    
C72   N30   A    
C95   H55   S    
C34   H3    S    
N10   Ni6   S    
C6    O8    S    
N9    Ni5   S    
C2    C68   S    
C95   H57   S    
C71   H31   S    
C71   C76   S    
C26   O4    S    
C70   C87   S    
C11   C86   S    
N8    N22   A    
C97   H62   S    
N15   N30   A    
C14   H44   S    
C77   C94   S    
C89   C94   S    
C46   N24   A    
C12   C84   S    
C13   H43   S    
C68   H28   S    
N21   N32   A    
C1    C49   A    
N2    N20   A    
C7    H96   S    
C2    C90   S    
C73   C77   S    
C59   C88   S    
N28   Ni3   S    
C101  H74   S    
N23   Ni1   S    
C8    C69   S    
C43   H11   S    
C37   C56   A    
C19   C52   S    
C42   H10   S    
C38   C55   A    
C13   C75   S    
C44   C58   A    
C56   C72   A    
C47   N25   A    
C35   C49   A    
C8    C79   S    
C61   N29   A    
C57   C83   A    
C24   O2    S    
N31   Ni4   S    
C69   C82   S    
C25   C60   A    
C23   O1    S    
C70   C84   S    
N17   Ni7   S    
C39   N27   A    
C23   N32   A    
C100  O4    S    
C28   H23   S    
C75   C91   S    
C5    H91   S    
C36   N14   A    
C10   C71   S    
N25   Ni7   S    
C79   H21   S    
C39   H34   S    
C74   C92   S    
N7    N24   A    
C93   C95   S    
C58   C87   S    
C68   C85   S    
C98   H65   S    
C4    H87   S    
C102  C103  S    
C102  O5    S    
C41   C62   A    
C100  H71   S    
C3    C104  S    
C18   H48   S    
N14   N31   A    
C9    C92   S    
C6    H92   S    
C79   C88   S    
C8    H38   S    
N7    Ni4   S    
C25   O3    S    
C26   N4    A    
C74   H33   S    
C80   C89   S    
N18   Ni6   S    
N26   Ni8   S    
C30   O7    S    
C33   H2    S    
C103  H80   S    
N16   Ni8   S    
C72   H67   S    
C4    H86   S    
N30   Ni3   S    
C9    C70   S    
N3    Ni2   S    
C40   H8    S    
C42   N19   A    
C11   C73   S    
C95   H58   S    
C42   C60   A    
C48   H17   S    
C12   H42   S    
C11   H41   S    
C48   C63   A    
C99   H68   S    
C25   N3    A    
C97   H63   S    
C13   C82   S    
C29   N6    A    
C96   H60   S    
C83   H78   S    
N4    N18   A    
N6    Ni3   S    
C27   N5    A    
C15   C19   D    
C4    O7    S    
N4    Ni1   S    
C77   H19   S    
C14   C20   D    
C67   C94   S    
C48   N26   A    
C33   N10   A    
C15   C57   S    
C84   C92   S    
N1    Ni1   S    
N11   N12   A    
C99   H69   S    
C73   H32   S    
C28   N23   A    
N13   Ni5   S    
C96   O2    S    
C96   C97   S    
N6    N25   A    
N32   Ni2   S    
N16   N29   A    
C21   H51   S    
N11   Ni6   S    
N5    N26   A    
C8    C91   S    
C10   H40   S    
C82   H25   S    
C93   H53   S    
C35   N13   A    
N8    Ni3   S    
N1    N13   A    
C98   O3    S    
C69   C88   S    
C27   C63   A    
C18   C55   S    
C46   C65   A    
C81   C90   S    
C20   C53   S    
C47   H16   S    
C77   C86   S    
C36   C57   A    
C40   C54   A    
C81   H24   S    
C100  H70   S    
C19   H49   S    
C103  H79   S    
N20   Ni5   S    
C61   H56   S    
C37   H6    S    
C45   N22   A    
C36   H5    S    
C32   C53   A    
C47   C64   A    
C78   H20   S    
N22   Ni8   S    
C43   C59   A    
C35   H4    S    
N27   Ni2   S    
C67   C86   S    
C16   C22   D    
N10   N23   A    
C80   H22   S    
C12   C87   S    
C103  H77   S    
N5    Ni4   S    
C67   H27   S    
C67   C80   S    
C5    H88   S    
C38   N16   A    
C32   H89   S    
C20   H50   S    
C3    H83   S    
C6    H93   S    
N12   Ni2   S    
C60   C85   S    
C6    C7    S    
N15   Ni8   S    
C11   C80   S    
C69   H29   S    
C104  H82   S    
N21   Ni6   S    
C10   C81   S    
C104  O6    S    
C96   H59   S    
N3    N19   A    
C102  H76   S    
C76   H18   S    
N19   Ni5   S    
N29   Ni4   S    
C3    H85   S    
N14   Ni7   S    
C26   C62   A    
C41   H9    S    
C73   C89   S    
C31   N8    A    
C75   H35   S    
N2    Ni1   S    
C32   N9    A    
C28   C52   A    
C50   H45   S    
C39   C53   A    
C71   C90   S    
C83   N31   A    
C44   H13   S    
C7    H94   S    
C24   C59   A    
C97   H61   S    
C30   N7    A    
C55   C61   A    
C13   C88   S    
C84   H26   S    
C100  C101  S    
C46   H15   S    
C16   H47   S    
C9    C78   S    
C7    H95   S    
C93   H54   S    
C31   O8    S    
N24   Ni7   S    
C16   C54   S    
C29   C64   A    
C30   C65   A    
C101  H73   S    
C34   N11   A    
C82   C91   S    
N17   N28   A    
C4    C5    S    
C68   C81   S    
C98   C99   S    
C74   C78   S    
C63   C91   S    
C45   C66   A    
C70   H30   S    
C2    H37   S    
C64   C92   S    
C22   C51   S    
C101  H72   S    
C93   O1    S    
C44   N21   A    
N9    N27   A    
C27   O5    S    
C38   H7    S    
C75   C79   S    
C76   C85   S    
C37   N15   A    
C15   H46   S    
C98   H64   S    
C17   H12   S    
C1    H1    S    
C5    H90   S    
