data_mof_unit_44314.cif
_audit_creation_date              2013-03-05T15:51:00-0500
_audit_creation_method            fapswitch 2.2
_symmetry_space_group_name_H-M    P1
_symmetry_Int_Tables_number       1
_space_group_crystal_system       triclinic
_cell_length_a                    6.954712
_cell_length_b                    17.493038
_cell_length_c                    19.299569
_cell_angle_alpha                 109.488957
_cell_angle_beta                  90.326056
_cell_angle_gamma                 90.61138
_cell_volume                      2213.2096031

loop_
_atom_site_label
_atom_site_type_symbol
_atom_site_description
_atom_site_fract_x
_atom_site_fract_y
_atom_site_fract_z
_atom_type_partial_charge
O1    O     O_R   0.505810 0.439670 0.562310 -0.606384
O2    O     O_R   0.169070 0.404920 0.411210 -0.599808
O3    O     O_R   0.005550 0.560330 0.437690 -0.601080
C1    C     C_R   0.338171 0.381415 0.383016 0.888253
O4    O     O_R   0.175650 0.430000 0.560110 -0.577976
O5    O     O_R   0.012170 0.585580 0.587650 -0.567216
C2    C     C_R   0.344641 0.415029 0.581878 1.005847
O6    O     O_R   0.499180 0.414420 0.412350 -0.593606
O7    O     O_3   0.341430 0.551020 0.508860 -0.274013
V1    V     V_3+5 0.063930 0.490540 0.498360 1.177955
O8    O     O_R   0.682850 0.595080 0.588790 -0.601375
C3    C     C_R   0.852940 0.617122 0.617410 1.024750
O9    O     O_R   0.676280 0.570000 0.439890 -0.602007
C4    C     C_R   0.845086 0.585226 0.418449 0.939559
V2    V     V_3+5 0.564760 0.509460 0.501640 1.162804
O10   O     O_3   0.837130 0.448980 0.491140 -0.282602
C5    C     C_R   0.059768 0.861887 0.175395 -0.317097
C6    C     C_R   0.912224 0.857252 0.123990 -0.174618
C7    C     C_R   0.754022 0.802736 0.118038 0.192695
C8    C     C_R   0.736908 0.761095 0.169821 0.103706
C9    C     C_R   0.887257 0.767281 0.221332 -0.019066
C10   C     C_R   0.050055 0.816651 0.223018 0.159537
C11   C     C_R   0.573783 0.712789 0.171362 -0.196303
C12   C     C_R   0.561842 0.670654 0.221243 -0.216248
C13   C     C_R   0.712077 0.675131 0.270990 0.152499
C14   C     C_R   0.876007 0.723290 0.271013 0.048854
C15   C     C_R   0.029254 0.727158 0.320488 0.151528
C16   C     C_R   0.190363 0.776317 0.321210 -0.223400
C17   C     C_R   0.200027 0.821088 0.273307 -0.195446
C18   C     C_R   0.701220 0.631885 0.320460 -0.260681
C19   C     C_R   0.854917 0.634037 0.368765 -0.137858
C20   C     C_R   0.018941 0.681681 0.368242 -0.262025
H1    H     H_    0.182232 0.902039 0.179106 0.146136
H2    H     H_    0.451863 0.708013 0.135056 0.159739
H3    H     H_    0.434210 0.634385 0.220835 0.142144
H4    H     H_    0.574844 0.594877 0.320098 0.135140
H5    H     H_    0.137657 0.684096 0.405619 0.140185
H6    H     H_    0.309202 0.780141 0.358840 0.141012
H7    H     H_    0.326040 0.858742 0.275163 0.135859
C21   C     C_3   0.777426 0.810061 0.745070 0.389178
C22   C     C_3   0.943483 0.771760 0.692772 -0.250603
H8    H     H_    0.991079 0.789763 0.645511 0.138436
C23   C     C_3   0.869241 0.686524 0.688199 -0.316396
C24   C     C_3   0.700515 0.724400 0.739577 -0.148766
C25   C     C_3   0.828071 0.727627 0.807347 -0.304666
C26   C     C_3   0.994532 0.690561 0.755053 0.419301
C27   C     C_3   0.068125 0.775095 0.760289 0.196452
C28   C     C_3   0.902675 0.812962 0.811960 -0.192464
H9    H     H_    0.554728 0.696825 0.730070 0.174675
H10   H     H_    0.782234 0.709296 0.854609 0.168101
C29   C     C_3   0.482184 0.236547 0.304901 -0.127809
C30   C     C_3   0.322416 0.180650 0.257385 -0.132323
H11   H     H_    0.271303 0.122865 0.263386 0.100560
H12   H     H_    0.561120 0.225355 0.350674 0.103026
C31   C     C_3   0.415024 0.189305 0.187843 -0.090162
C32   C     C_3   0.574574 0.244462 0.234618 -0.096458
C33   C     C_3   0.448678 0.319492 0.242517 -0.129741
C34   C     C_3   0.288908 0.263592 0.194998 -0.123580
C35   C     C_3   0.196519 0.255676 0.265283 -0.098228
C36   C     C_3   0.356068 0.310833 0.312058 -0.084418
H13   H     H_    0.729750 0.239656 0.221273 0.104787
H14   H     H_    0.499789 0.377280 0.236521 0.102368
H15   H     H_    0.209973 0.274782 0.149225 0.107101
H16   H     H_    0.041343 0.260484 0.278627 0.104166
C37   C     C_R   0.251505 0.128310 0.823560 -0.247806
C38   C     C_R   0.416146 0.133536 0.867948 -0.141950
C39   C     C_R   0.569174 0.185381 0.864231 -0.255630
C40   C     C_R   0.557335 0.232395 0.817821 0.147245
C41   C     C_R   0.392108 0.226371 0.773315 0.032366
C42   C     C_R   0.239166 0.173803 0.775972 0.150288
C43   C     C_R   0.707519 0.285632 0.815281 -0.205346
C44   C     C_R   0.695410 0.331743 0.768484 -0.192820
C45   C     C_R   0.532689 0.325596 0.723441 0.132749
C46   C     C_R   0.379737 0.273035 0.726099 0.030560
C47   C     C_R   0.214474 0.267047 0.681619 0.151327
C48   C     C_R   0.064331 0.213778 0.684133 -0.211436
C49   C     C_R   0.076477 0.167634 0.730907 -0.220067
C50   C     C_R   0.520296 0.371142 0.675904 -0.206036
C51   C     C_R   0.355522 0.366043 0.631611 -0.132712
C52   C     C_R   0.202532 0.314157 0.635288 -0.238749
H17   H     H_    0.133433 0.088035 0.825386 0.136749
H18   H     H_    0.696332 0.190100 0.898264 0.141146
H19   H     H_    0.835100 0.291312 0.849237 0.146342
H20   H     H_    0.814044 0.371948 0.767249 0.161402
H21   H     H_    0.638393 0.411409 0.674088 0.151359
H22   H     H_    0.075294 0.309516 0.601313 0.133776
H23   H     H_    0.936737 0.208108 0.650186 0.139016
H24   H     H_    0.957864 0.127411 0.732129 0.140283
O11   O     O_R   0.271890 0.085690 0.087580 -0.589685
O12   O     O_R   0.595690 0.070020 0.939870 -0.599290
O13   O     O_R   0.758900 0.914390 0.912370 -0.596542
C53   C     C_R   0.426808 0.084776 0.917865 0.943192
O14   O     O_R   0.602020 0.095100 0.088770 -0.593486
O15   O     O_R   0.765280 0.939660 0.062330 -0.589123
C54   C     C_R   0.432910 0.118682 0.116914 0.903119
O16   O     O_R   0.265520 0.060430 0.937620 -0.598494
O17   O     O_3   0.429560 0.949050 0.991100 -0.266686
V3    V     V_3+5 0.707160 0.009450 0.001650 1.146668
O18   O     O_R   0.094540 0.929890 0.060190 -0.597300
C55   C     C_R   0.924791 0.911577 0.078833 0.961408
O19   O     O_R   0.088200 0.904800 0.911290 -0.589433
C56   C     C_R   0.918229 0.882628 0.882732 0.967966
V4    V     V_3+5 0.206300 0.990390 0.998440 1.154332
O20   O     O_3   0.934030 0.050940 0.008900 -0.277886
C57   C     C_3   0.673257 0.883275 0.738103 -1.045586
H25   H     H_    0.583832 0.865041 0.687298 0.255913
H26   H     H_    0.583450 0.911104 0.787014 0.267045
H27   H     H_    0.780635 0.929436 0.735061 0.242422
N1    N     N_R   0.116230 0.627068 0.763974 0.227637
O21   O     O_R   0.222761 0.641991 0.822703 -0.414556
O22   O     O_R   0.106176 0.553728 0.717288 -0.426557
C58   C     C_3   0.269802 0.808783 0.768627 -0.933261
H28   H     H_    0.346257 0.795244 0.813711 0.281568
H29   H     H_    0.342572 0.782118 0.715334 0.242437
H30   H     H_    0.263221 0.875368 0.781174 0.242117
C59   C     C_3   0.611748 0.784197 0.054412 -0.909081
H31   H     H_    0.666860 0.801159 0.007719 0.245322
H32   H     H_    0.584951 0.717803 0.030652 0.239238
H33   H     H_    0.474094 0.815502 0.073649 0.252593

loop_
_geom_bond_atom_site_label_1
_geom_bond_atom_site_label_2
_geom_bond_distance
_ccdc_geom_bond_type
C24   H9    1.105775 S    
O18   V4    1.994748 S    
C31   C32   1.536793 S    
O19   C56   1.300667 A    
C10   C17   1.404403 A    
C22   H8    1.110677 S    
C7    C8    1.424344 A    
C4    C19   1.482899 S    
C9    C14   1.417575 A    
C58   H29   1.105632 S    
O17   V3    2.166470 S    
C33   H14   1.110177 S    
C25   C26   1.540103 S    
C32   C33   1.550823 S    
C57   H26   1.106674 S    
C14   C15   1.412795 A    
C6    C55   1.490628 S    
C7    C59   1.518453 S    
C16   C17   1.398323 A    
C6    C7    1.426977 A    
C3    C23   1.497276 S    
N1    O22   1.299506 A    
O5    C3    1.292085 A    
C18   C19   1.406243 A    
O15   V3    1.996105 S    
C37   C42   1.404435 A    
C53   O16   1.299226 A    
C59   H31   1.107682 S    
C29   C32   1.550905 S    
C45   C46   1.410948 A    
C52   H22   1.084408 S    
O12   C53   1.304009 A    
C27   C28   1.531610 S    
C49   H24   1.083987 S    
C40   C41   1.412489 A    
C45   C50   1.404358 A    
O1    V2    1.994532 S    
O15   C55   1.298255 A    
C47   C52   1.406374 A    
C30   C31   1.543511 S    
C1    O6    1.291754 A    
C38   C39   1.408550 A    
C35   C36   1.536783 S    
O19   V4    2.005743 S    
O9    C4    1.301090 A    
O11   V4    2.002019 S    
C42   C49   1.404227 A    
C22   C23   1.546865 S    
C1    C36   1.514054 S    
C5    H1    1.084811 S    
C58   H28   1.109428 S    
C43   H19   1.083820 S    
C57   H27   1.110146 S    
C12   H3    1.084007 S    
C46   C47   1.412483 A    
C29   C30   1.548741 S    
C12   C13   1.398673 A    
C31   C54   1.514062 S    
O4    C2    1.304127 A    
C50   C51   1.409862 A    
C33   C36   1.543522 S    
C38   C53   1.486590 S    
C34   C35   1.550924 S    
C39   C40   1.406254 A    
O11   C54   1.291755 A    
O2    C1    1.310173 A    
C47   C48   1.403937 A    
C30   C35   1.550784 S    
C37   H17   1.084641 S    
O18   C55   1.303637 A    
C8    C11   1.413760 A    
C16   H6    1.083778 S    
C11   C12   1.396417 A    
C11   H2    1.081473 S    
C28   C56   1.499099 S    
C17   H7    1.083869 S    
C5    C6    1.405956 A    
C22   C27   1.545348 S    
C41   C46   1.414587 A    
C44   H20   1.083965 S    
C20   H5    1.084421 S    
C48   C49   1.400132 A    
C48   H23   1.083816 S    
O17   V4    1.706472 S    
O3    C4    1.298668 A    
C50   H21   1.084632 S    
C21   C22   1.542706 S    
O6    V2    2.001221 S    
O8    V2    2.005959 S    
O9    V2    1.994612 S    
C23   C24   1.546168 S    
O16   V4    2.000728 S    
O13   C56   1.293070 A    
O2    V1    1.990826 S    
V4    O20   2.157015 S    
C30   H11   1.110160 S    
C2    C51   1.486823 S    
O7    V1    2.166552 S    
C25   C28   1.549112 S    
C13   C18   1.403949 A    
C21   C28   1.539616 S    
C26   C27   1.530504 S    
C15   C20   1.405765 A    
O1    C2    1.299201 A    
C19   C20   1.407648 A    
C24   C25   1.561204 S    
C34   H15   1.110066 S    
C44   C45   1.404210 A    
O5    V1    1.992840 S    
O8    C3    1.301463 A    
C57   H25   1.109101 S    
C5    C10   1.400129 A    
C59   H33   1.110770 S    
C18   H4    1.084625 S    
C29   H12   1.110068 S    
C13   C14   1.410227 A    
O4    V1    1.998661 S    
O3    V1    1.996325 S    
V1    O10   1.715039 S    
N1    O21   1.300262 A    
C33   C34   1.548795 S    
C31   C34   1.543707 S    
C25   H10   1.110272 S    
C40   C43   1.403891 A    
V3    O20   1.714972 S    
V2    O10   2.157004 S    
C59   H32   1.110397 S    
O13   V3    1.992891 S    
O7    V2    1.708610 S    
C41   C42   1.410977 A    
C23   C26   1.534320 S    
C51   C52   1.408602 A    
C35   H16   1.108483 S    
C21   C24   1.555310 S    
C43   C44   1.400047 A    
C8    C9    1.416816 A    
C39   H18   1.084414 S    
O14   C54   1.310175 A    
C37   C38   1.409856 A    
C26   N1    1.457942 S    
C15   C16   1.402289 A    
C32   H13   1.108484 S    
C29   C36   1.543693 S    
C9    C10   1.410256 A    
O14   V3    1.990729 S    
O12   V3    1.998815 S    
C58   H30   1.109282 S    
C27   C58   1.502331 S    
C21   C57   1.522116 S    
