data_mof_unit_45640.cif
_audit_creation_date              2012-12-11T20:49:07-0500
_audit_creation_method            fapswitch 2.2
_symmetry_space_group_name_H-M    P1
_symmetry_Int_Tables_number       1
_space_group_crystal_system       triclinic
_cell_length_a                    8.32618
_cell_length_b                    18.855409
_cell_length_c                    18.783894
_cell_angle_alpha                 101.035387
_cell_angle_beta                  93.654333
_cell_angle_gamma                 92.179969
_cell_volume                      2884.73429969

loop_
_atom_site_label
_atom_site_type_symbol
_atom_type_description
_atom_site_fract_x
_atom_site_fract_y
_atom_site_fract_z
_atom_type_partial_charge
Ba1   Ba    Ba6+2 0.153490 0.533960 0.468530 1.629855
Ba2   Ba    Ba6+2 0.656680 0.466030 0.531410 1.619393
C1    C     C_3   0.289480 0.716113 0.208000 -0.235556
C2    C     C_R   0.097186 0.908476 0.570486 -0.002774
C3    C     C_R   0.254389 0.933287 0.599193 -0.081017
C4    C     C_3   0.949051 0.719680 0.324279 0.361101
C5    C     C_R   0.316033 0.001892 0.593977 -0.105103
C6    C     C_R   0.220940 0.048578 0.561918 0.034134
C7    C     C_R   0.065190 0.024432 0.531284 0.031328
C8    C     C_R   0.278173 0.119566 0.562131 -0.105805
C9    C     C_R   0.180134 0.168866 0.534322 -0.058266
C10   C     C_R   0.024529 0.144674 0.501969 0.013992
C11   C     C_R   0.967888 0.072074 0.500588 0.026861
C12   C     C_3   0.349342 0.694431 0.280088 0.202487
C13   C     C_R   0.231034 0.242232 0.540034 -0.005194
C14   C     C_R   0.127274 0.290475 0.514490 -0.273523
C15   C     C_R   0.977909 0.267146 0.477077 0.051629
C16   C     C_3   0.957261 0.795568 0.305775 0.240747
C17   C     C_R   0.924181 0.192966 0.472143 -0.045742
C18   C     C_R   0.848719 0.929266 0.503555 0.024638
C19   C     C_R   0.789811 0.857638 0.503982 0.003562
C20   C     C_R   0.884639 0.811157 0.539123 -0.083790
C21   C     C_R   0.026420 0.842318 0.582038 -0.000308
C22   C     C_R   0.770728 0.165835 0.441164 -0.044248
C23   C     C_3   0.547980 0.692584 0.684895 0.639491
C24   C     C_R   0.712587 0.095265 0.441496 0.055469
C25   C     C_R   0.811295 0.047897 0.471184 0.046332
C26   C     C_R   0.751593 0.976860 0.472715 0.048065
C27   C     C_R   0.554435 0.072125 0.414245 -0.071797
C28   C     C_3   0.723371 0.306196 0.293838 0.218062
C29   C     C_R   0.495132 0.002260 0.415984 -0.067010
C30   C     C_R   0.593001 0.954168 0.444811 0.060985
C31   C     C_R   0.632990 0.833870 0.471927 -0.007067
C32   C     C_R   0.534470 0.883712 0.445394 -0.029144
C33   C     C_R   0.580094 0.760810 0.466590 0.090323
C34   C     C_3   0.600023 0.761168 0.739993 -0.244283
C35   C     C_R   0.683779 0.712840 0.491985 -0.209485
C36   C     C_R   0.831160 0.736348 0.530847 0.006042
C37   C     C_2   0.639052 0.490333 0.293444 -0.191253
C38   C     C_3   0.759745 0.508029 0.241299 0.089214
C39   C     C_2   0.682685 0.519960 0.169502 -0.030267
C40   C     C_3   0.674862 0.225670 0.268630 -0.325684
C41   C     C_2   0.523260 0.504036 0.151367 -0.057718
C42   C     C_2   0.419937 0.482148 0.206810 -0.107093
C43   C     C_1   0.484225 0.475463 0.271470 0.102367
C44   C     C_R   0.341651 0.491817 0.934223 0.450456
C45   C     C_3   0.918210 0.270742 0.674125 0.520582
C46   C     C_R   0.454864 0.502918 0.075739 0.483064
C47   C     C_R   0.384224 0.512154 0.808733 -0.088240
C48   C     C_R   0.335498 0.505691 0.735163 0.030724
C49   C     C_R   0.085313 0.443886 0.753497 0.030579
C50   C     C_R   0.133731 0.450090 0.827717 -0.145169
C51   C     C_R   0.285363 0.483890 0.855997 -0.070920
C52   C     C_3   0.006878 0.620764 0.690412 0.242842
C53   C     C_R   0.188623 0.470147 0.707594 -0.277325
C54   C     C_3   0.977875 0.632316 0.771423 -0.201647
C55   C     C_3   0.291139 0.315068 0.369534 0.298900
C56   C     C_3   0.918558 0.195891 0.694000 0.272699
C57   C     C_3   0.249036 0.234689 0.342528 -0.387844
C58   C     C_2   0.072979 0.697151 0.814940 0.927978
C59   C     C_2   0.517505 0.671109 0.276988 0.810029
C60   C     C_2   0.353904 0.790182 0.201315 1.009885
C61   C     C_2   0.508406 0.275049 0.833536 0.966257
C62   C     C_2   0.057131 0.825956 0.655490 0.909987
C63   C     C_2   0.741920 0.335624 0.224791 0.829858
C64   C     C_3   0.406829 0.314564 0.718980 0.329153
C65   C     C_3   0.363055 0.279976 0.783033 -0.284811
C66   C     C_R   0.005036 0.953346 0.533574 0.012065
Cl1   Cl    Cl    0.445752 0.716883 0.608993 -0.688250
Cl2   Cl    Cl    0.764844 0.833202 0.302801 -0.654531
Cl3   Cl    Cl    0.735753 0.144531 0.661481 -0.643910
H1    H     H_    0.273683 0.647314 0.286084 0.069757
H2    H     H_    0.390277 0.321686 0.412964 0.052964
H3    H     H_    0.156610 0.713676 0.202355 0.059766
H4    H     H_    0.143021 0.227085 0.302535 0.151891
H5    H     H_    0.221529 0.207830 0.388020 0.049812
H6    H     H_    0.351837 0.208018 0.316162 0.116328
H7    H     H_    0.324424 0.675081 0.161308 0.066712
H8    H     H_    0.657491 0.664581 0.667619 -0.007603
H9    H     H_    0.682462 0.748073 0.783974 0.126426
H10   H     H_    0.662807 0.800654 0.713131 0.147083
H11   H     H_    0.493560 0.786767 0.764779 0.151798
H12   H     H_    0.637696 0.200437 0.313180 0.060415
H13   H     H_    0.860620 0.266537 0.618459 -0.001443
H14   H     H_    0.045646 0.289618 0.674420 -0.344306
H15   H     H_    0.018862 0.165652 0.668713 0.001941
H16   H     H_    0.937121 0.200844 0.753826 0.112977
H17   H     H_    0.294226 0.333356 0.695820 -0.025398
H18   H     H_    0.490050 0.362812 0.738416 0.057850
H19   H     H_    0.271951 0.312424 0.813257 -0.005912
H20   H     H_    0.066690 0.709214 0.349293 0.036625
H21   H     H_    0.306454 0.225057 0.762298 0.096546
H22   H     H_    0.332030 0.899583 0.624973 0.152127
H23   H     H_    0.569034 0.217988 0.228332 0.134664
H24   H     H_    0.437206 0.019126 0.616840 0.140047
H25   H     H_    0.167369 0.346664 0.520379 0.064822
H26   H     H_    0.398233 0.136217 0.586199 0.162337
H27   H     H_    0.688713 0.200463 0.421407 0.107039
H28   H     H_    0.476024 0.108288 0.391981 0.061053
H29   H     H_    0.372536 0.985817 0.394697 0.089717
H30   H     H_    0.411895 0.868440 0.424150 0.116821
H31   H     H_    0.863566 0.720822 0.367181 -0.024911
H32   H     H_    0.644068 0.656482 0.485301 0.101345
H33   H     H_    0.761882 0.534493 0.130197 0.108478
H34   H     H_    0.776791 0.196074 0.243271 0.125917
H35   H     H_    0.293684 0.466445 0.191708 0.126676
H36   H     H_    0.497338 0.541438 0.829199 0.111922
H37   H     H_    0.053179 0.429573 0.862924 0.117181
H38   H     H_    0.686961 0.479788 0.345203 0.045738
H39   H     H_    0.150311 0.467115 0.650912 0.056845
H40   H     H_    0.035870 0.832253 0.348255 0.046163
H41   H     H_    0.006274 0.795570 0.252644 0.113475
H42   H     H_    0.628540 0.335190 0.324072 0.019400
H43   H     H_    0.069323 0.797225 0.876037 0.327884
H44   H     H_    0.679022 0.640985 0.347463 0.267271
H45   H     H_    0.134989 0.611814 0.682368 0.043722
H46   H     H_    0.366395 0.897779 0.240995 0.322395
H47   H     H_    0.421059 0.339254 0.920026 0.281712
H48   H     H_    0.212228 0.799106 0.730828 0.333416
H49   H     H_    0.966049 0.383850 0.254161 0.306169
H50   H     H_    0.933035 0.571715 0.663221 0.058985
H51   H     H_    0.010574 0.583987 0.793512 0.000499
H52   H     H_    0.847341 0.639184 0.777863 0.071396
H53   H     H_    0.183963 0.341669 0.391297 0.034244
N1    N     N_R   0.487846 0.525022 0.959080 -0.219908
N2    N     N_R   0.543261 0.530361 0.028048 -0.213652
N3    N     N_R   0.307490 0.470406 0.051322 -0.218133
N4    N     N_R   0.251956 0.464981 0.982064 -0.229897
O1    O     O_2   0.117290 0.676350 0.548250 -0.378358
O2    O     O_2   0.749291 0.453111 0.749245 -0.484960
O3    O     O_3   0.835488 0.318467 0.724431 -0.554975
O4    O     O_3   0.869060 0.586940 0.542720 -0.493932
O5    O     O_3   0.438990 0.460930 0.412890 -0.482023
O6    O     O_2   0.623700 0.539890 0.674570 -0.481943
O7    O     O_3   0.440440 0.651186 0.716759 -0.600228
O8    O     O_2   0.567561 0.244820 0.535336 -0.470525
O9    O     O_3   0.481259 0.263953 0.668036 -0.521917
O10   O     O_3   0.356990 0.628630 0.417250 -0.416799
O11   O     O_2   0.246084 0.757680 0.472681 -0.469908
O12   O     O_3   0.339233 0.344252 0.310880 -0.620802
O13   O     O_3   0.964074 0.682552 0.663921 -0.617595
O14   O     O_3   0.335690 0.750980 0.340544 -0.634245
O15   O     O_2   0.186600 0.460070 0.325400 -0.465992
O16   O     O_3   0.942970 0.591450 0.378940 -0.505944
O17   O     O_2   0.085190 0.554033 0.256310 -0.502229
O18   O     O_2   0.219913 0.697153 0.822043 -0.599100
O19   O     O_R   0.992535 0.756877 0.848282 -0.727065
O20   O     O_2   0.607464 0.687925 0.233371 -0.528278
O21   O     O_R   0.567173 0.628598 0.325567 -0.813049
O22   O     O_2   0.440666 0.796647 0.152508 -0.530194
O23   O     O_3   0.905887 0.665326 0.261757 -0.567361
O24   O     O_R   0.313533 0.851367 0.250372 -0.744121
O25   O     O_2   0.618257 0.237916 0.811324 -0.475036
O26   O     O_R   0.519502 0.311396 0.905991 -0.697521
O27   O     O_2   0.949588 0.832272 0.697031 -0.608592
O28   O     O_R   0.208357 0.807519 0.679184 -0.709854
O29   O     O_2   0.626826 0.330532 0.180074 -0.574667
O30   O     O_R   0.888018 0.366620 0.209228 -0.707521
O31   O     O_2   0.693010 0.323600 0.451730 -0.488814
O32   O     O_3   0.941240 0.413050 0.457220 -0.465038
O33   O     O_3   0.453310 0.371360 0.582690 -0.477230
O34   O     O_3   0.872174 0.314557 0.335433 -0.670700
O35   O     O_3   0.371310 0.539060 0.587050 -0.435434
O36   O     O_3   0.867330 0.408540 0.621000 -0.476320
P1    P     P_3+3 0.945300 0.665790 0.568510 1.031393
P2    P     P_3+3 0.360080 0.438780 0.334620 1.008729
P3    P     P_3+3 0.921755 0.578710 0.284112 0.952447
P4    P     P_3+3 0.865000 0.334200 0.431430 0.973588
P5    P     P_3+3 0.883705 0.407058 0.713961 1.007135
P6    P     P_3+3 0.378205 0.723547 0.424812 1.019836
P7    P     P_3+3 0.442329 0.558779 0.678943 0.991517
P8    P     P_3+3 0.432615 0.279243 0.580349 1.000075

loop_
_geom_bond_atom_site_label_1
_geom_bond_atom_site_label_2
_ccdc_geom_bond_type
C16   Cl2   S    
C36   P1    S    
C12   O14   S    
H48   O28   S    
C57   H4    S    
O10   P6    S    
C44   N1    A    
O17   P3    D    
Ba1   O4    S    
C56   H16   S    
C57   H6    S    
C5    C6    A    
C47   H36   S    
C42   C43   D    
C10   C11   A    
C62   O27   D    
C24   C25   A    
Ba2   O6    S    
C60   O24   S    
C22   H27   S    
C45   H14   S    
C44   N4    A    
C33   C35   A    
C59   O20   D    
C22   C24   A    
H43   O19   S    
Ba1   O1    S    
C64   H17   S    
O23   P3    S    
C56   Cl3   S    
C55   C57   S    
C19   C31   A    
O2    P5    D    
C13   C14   A    
C20   C36   A    
O31   P4    D    
C10   C17   A    
O11   P6    D    
Ba1   Ba2   S    
C55   H2    S    
C1    H3    S    
C7    C11   A    
C38   P3    S    
C15   C17   A    
O33   P8    S    
C9    C13   A    
O3    P5    S    
O8    P8    D    
C34   H11   S    
Ba2   O31   S    
O9    P8    S    
C52   H45   S    
Ba2   O4    S    
C48   P7    S    
C58   O19   S    
O7    P7    S    
O35   P7    S    
C41   C46   S    
C37   C43   D    
O32   P4    S    
C64   C65   S    
C40   H23   S    
C19   C20   A    
H49   O30   S    
C39   C41   D    
O36   P5    S    
C58   O18   D    
Ba1   O5    S    
C56   H15   S    
Ba2   O33   S    
C46   N3    A    
C64   H18   S    
C52   C54   S    
O12   P2    S    
C4    C16   S    
C61   C65   S    
C14   H25   S    
Ba2   O5    S    
C27   H28   S    
O16   P3    S    
C49   C50   A    
C32   H30   S    
C54   H52   S    
C26   C30   A    
O4    P1    S    
C61   O25   D    
C63   O29   D    
C34   H9    S    
Ba2   O36   S    
C37   C38   S    
C3    C5    A    
C2    C21   A    
C14   C15   A    
C18   C26   A    
C45   H13   S    
C12   C59   S    
C65   H19   S    
C54   C58   S    
C55   O12   S    
C45   O3    S    
C54   H51   S    
C8    H26   S    
C41   C42   S    
O15   P2    D    
C35   C36   A    
Ba1   O15   S    
O14   P6    S    
C3    H22   S    
C29   C30   A    
Ba1   P1    S    
C34   H10   S    
H44   O21   S    
C31   C32   A    
C6    C7    A    
C29   H29   S    
C16   H40   S    
C50   H37   S    
C1    C12   S    
O34   P4    S    
C4    O23   S    
Ba2   O32   S    
C38   C39   S    
C52   H50   S    
O6    P7    D    
C53   H39   S    
N1    N2    A    
C23   Cl1   S    
C28   O34   S    
N3    N4    A    
Ba2   P4    S    
C50   C51   A    
C2    C66   A    
C43   P2    S    
C1    C60   S    
C21   C62   S    
C60   O22   D    
C23   H8    S    
C12   H1    S    
C18   C66   A    
Ba1   O32   S    
C28   C40   S    
C40   H12   S    
C61   O26   S    
C16   H41   S    
C63   O30   S    
C15   P4    S    
Ba2   O35   S    
C35   H32   S    
C9    C10   A    
C42   H35   S    
C5    H24   S    
C37   H38   S    
C62   O28   S    
O13   P1    S    
C48   C53   A    
C39   H33   S    
O1    P1    D    
C17   C22   A    
C7    C66   A    
C27   C29   A    
Ba1   O16   S    
O5    P2    S    
C45   C56   S    
C64   O9    S    
Ba1   P2    S    
C47   C51   A    
C44   C51   S    
C65   H21   S    
C31   C33   A    
C13   P8    S    
H47   O26   S    
H46   O24   S    
C49   C53   A    
C4    H31   S    
C23   O7    S    
C40   H34   S    
C28   C63   S    
C8    C9    A    
C23   C34   S    
C46   N2    A    
C2    C3    A    
C52   O13   S    
C18   C19   A    
Ba1   O35   S    
C24   C27   A    
C6    C8    A    
C47   C48   A    
C25   C26   A    
C33   P6    S    
C20   C21   A    
C11   C25   A    
C1    H7    S    
C59   O21   S    
C57   H5    S    
Ba1   O10   S    
C4    H20   S    
C49   P5    S    
C30   C32   A    
C55   H53   S    
C28   H42   S    
