data_mof_unit_47467.cif
_audit_creation_date              2012-12-10T17:37:15-0500
_audit_creation_method            fapswitch 2.2
_symmetry_space_group_name_H-M    P1
_symmetry_Int_Tables_number       1
_space_group_crystal_system       triclinic
_cell_length_a                    12.332895
_cell_length_b                    13.116689
_cell_length_c                    15.844264
_cell_angle_alpha                 77.922621
_cell_angle_beta                  101.128326
_cell_angle_gamma                 116.790172
_cell_volume                      2222.97237318

loop_
_atom_site_label
_atom_site_type_symbol
_atom_type_description
_atom_site_fract_x
_atom_site_fract_y
_atom_site_fract_z
_atom_type_partial_charge
C1    C     C_R   0.854720 0.286195 0.507394 0.770663
C2    C     C_3   0.997849 0.498609 0.917146 0.156825
C3    C     C_3   0.115048 0.548370 0.036805 -0.176811
C4    C     C_3   0.999256 0.498890 0.082957 0.169126
C5    C     C_3   0.052691 0.606617 0.961991 0.139031
C6    C     C_3   0.937557 0.558463 0.009199 -0.176816
C7    C     C_1   0.997724 0.498786 0.825283 -0.084413
C8    C     C_1   0.000155 0.499088 0.174777 -0.074918
C9    C     C_R   0.280204 0.011034 0.366611 -0.199912
C10   C     C_R   0.227395 0.835646 0.468810 -0.073631
C11   C     C_R   0.813816 0.081576 0.559029 -0.191834
C12   C     C_R   0.999459 0.499786 0.659945 0.816850
C13   C     C_R   0.735093 0.964719 0.569061 -0.149246
C14   C     C_R   0.612061 0.928255 0.537267 -0.175551
C15   C     C_R   0.565870 0.008622 0.494655 0.064663
C16   C     C_R   0.650237 0.123375 0.469991 0.078666
C17   C     C_R   0.439140 0.976583 0.470066 0.048401
C18   C     C_R   0.402851 0.047715 0.401385 0.139466
C19   C     C_R   0.489574 0.154433 0.367801 -0.233575
C20   C     C_R   0.611070 0.193356 0.403219 -0.194467
C21   C     C_R   0.346401 0.879171 0.512871 0.027866
C22   C     C_R   0.194109 0.903001 0.397359 -0.225344
C23   C     C_R   0.145041 0.713619 0.487618 0.779674
C24   C     C_R   0.772461 0.162398 0.510237 -0.105431
C25   C     C_R   0.344383 0.326084 0.636590 -0.306328
C26   C     C_R   0.760836 0.646763 0.384035 0.080329
C27   C     C_R   0.665256 0.679526 0.359085 -0.258524
C28   C     C_R   0.561371 0.624276 0.402773 -0.195080
C29   C     C_R   0.551901 0.535062 0.472505 -0.006478
C30   C     C_R   0.652705 0.504899 0.496070 0.288363
C31   C     C_R   0.446974 0.475088 0.519855 -0.037737
C32   C     C_R   0.445266 0.386523 0.589222 0.178437
C33   C     C_R   0.544401 0.358954 0.611360 -0.287204
C34   C     C_R   0.000411 0.500063 0.340064 0.819226
C35   C     C_R   0.645978 0.417285 0.566280 -0.177647
C36   C     C_R   0.342772 0.498617 0.501765 0.020802
C37   C     C_R   0.245232 0.353500 0.615556 0.074326
C38   C     C_3   0.943690 0.389546 0.038960 -0.148036
C39   C     C_3   0.882335 0.449130 0.963559 -0.180868
C40   C     C_1   0.998301 0.499290 0.749650 -0.184738
C41   C     C_1   0.000635 0.499487 0.250411 -0.185453
C42   C     C_3   0.059212 0.439094 0.991103 -0.180811
Cu1   Cu    Cu3+1 0.098270 0.475420 0.519690 0.931692
Cu2   Cu    Cu3+1 0.901730 0.524580 0.480310 0.920250
H1    H     H_    0.787065 0.408177 0.932284 0.134557
H2    H     H_    0.907409 0.108565 0.588972 0.150743
H3    H     H_    0.555447 0.836674 0.541669 0.134207
H4    H     H_    0.769048 0.902284 0.602866 0.143064
H5    H     H_    0.674503 0.275794 0.373705 0.174141
H6    H     H_    0.166911 0.307116 0.651760 0.121044
H7    H     H_    0.543882 0.291680 0.664642 0.148093
H8    H     H_    0.342325 0.258141 0.689608 0.133916
H9    H     H_    0.335973 0.564216 0.450206 0.123743
H10   H     H_    0.841214 0.690259 0.349843 0.122557
H11   H     H_    0.898726 0.299966 0.072231 0.130585
H12   H     H_    0.490270 0.653233 0.380711 0.134701
H13   H     H_    0.671734 0.748021 0.305720 0.142019
H14   H     H_    0.717556 0.390819 0.589396 0.205810
H15   H     H_    0.888157 0.607778 0.017811 0.124591
H16   H     H_    0.210402 0.589456 0.067920 0.125843
H17   H     H_    0.108685 0.389904 0.982387 0.134294
H18   H     H_    0.102098 0.870919 0.364100 0.150369
H19   H     H_    0.463041 0.209024 0.314970 0.144096
H20   H     H_    0.252131 0.063318 0.312689 0.137560
N1    N     N_R   0.246280 0.438200 0.549540 -0.178876
N2    N     N_R   0.754330 0.561180 0.450980 -0.205819
O1    O     O_R   0.972510 0.318130 0.524770 -0.578296
O2    O     O_R   0.806530 0.359650 0.491510 -0.603341
O3    O     O_R   0.082970 0.479240 0.637550 -0.576726
O4    O     O_R   0.916990 0.520750 0.604290 -0.590647
O5    O     O_R   0.193470 0.640350 0.508490 -0.584468
O6    O     O_R   0.027490 0.681870 0.475230 -0.583007
O7    O     O_R   0.083010 0.479250 0.395710 -0.573376
O8    O     O_R   0.917030 0.520760 0.362450 -0.588145
C43   C     C_3   0.363774 0.835643 0.609907 -0.379340
C44   C     C_3   0.413382 0.933690 0.665645 -0.341345
C45   C     C_3   0.424085 0.888074 0.762208 -0.868703
H21   H     H_    0.333437 0.823158 0.781216 0.250081
H22   H     H_    0.489167 0.847896 0.776998 0.258245
H23   H     H_    0.458201 0.960303 0.800825 0.238245
H24   H     H_    0.505165 0.999428 0.649477 0.230747
H25   H     H_    0.350769 0.976547 0.652911 0.220484
H26   H     H_    0.274528 0.771913 0.632446 0.192993
H27   H     H_    0.421237 0.788182 0.624420 0.195919
C46   C     C_3   0.114703 0.729380 0.915597 -0.420807
C47   C     C_3   0.159225 0.818290 0.978288 -0.340109
C48   C     C_3   0.222793 0.940572 0.931614 -0.855491
H28   H     H_    0.303717 0.950427 0.903944 0.254234
H29   H     H_    0.158779 0.960266 0.878524 0.251965
H30   H     H_    0.253832 0.003235 0.978380 0.238798
H31   H     H_    0.080290 0.811376 0.006935 0.214874
H32   H     H_    0.224589 0.801523 0.031838 0.216988
H33   H     H_    0.193461 0.736695 0.886739 0.195495
H34   H     H_    0.048555 0.745479 0.862441 0.199696

loop_
_geom_bond_atom_site_label_1
_geom_bond_atom_site_label_2
_ccdc_geom_bond_type
Cu1   O7    S    
C12   O3    A    
C3    C42   S    
C9    H20   S    
Cu2   N2    S    
C19   C20   A    
C4    C8    S    
C28   H12   S    
C45   H21   S    
C10   C22   A    
C26   C27   A    
C20   H5    S    
C30   C35   A    
C35   H14   S    
C28   C29   A    
C38   C42   S    
C47   H31   S    
C5    C6    S    
C43   H27   S    
C15   C16   A    
C11   C24   A    
C1    O2    A    
C18   C19   A    
C23   O6    A    
C43   C44   S    
C36   H9    S    
C33   C35   A    
C46   H33   S    
C2    C39   S    
C38   H11   S    
C2    C7    S    
C19   H19   S    
C37   N1    A    
C7    C40   T    
Cu2   O4    S    
C16   C20   A    
C39   H1    S    
C5    C46   S    
C3    H16   S    
C25   C32   A    
C16   C24   A    
C13   C14   A    
C34   C41   S    
C26   H10   S    
C45   H22   S    
C10   C21   A    
C26   N2    A    
C23   O5    A    
C44   C45   S    
C4    C6    S    
C27   H13   S    
C44   H25   S    
C47   C48   S    
C46   C47   S    
C17   C21   A    
C12   C40   S    
Cu1   Cu2   S    
C29   C30   A    
C22   H18   S    
C46   H34   S    
C31   C32   A    
C14   C15   A    
Cu1   N1    S    
C17   C18   A    
C8    C41   T    
Cu2   O8    S    
C42   H17   S    
C30   N2    A    
C34   O8    A    
C4    C38   S    
C48   H29   S    
Cu2   O2    S    
C2    C5    S    
C3    C4    S    
C45   H23   S    
C15   C17   A    
C12   O4    A    
Cu1   O5    S    
C31   C36   A    
C6    H15   S    
C3    C5    S    
C44   H24   S    
C13   H4    S    
C14   H3    S    
C10   C23   S    
C33   H7    S    
C21   C43   S    
C32   C33   A    
C36   N1    A    
C25   H8    S    
C29   C31   A    
C47   H32   S    
C1    C24   S    
C37   H6    S    
C11   C13   A    
C43   H26   S    
C38   C39   S    
C2    C42   S    
C1    O1    A    
Cu2   O6    S    
C9    C22   A    
C34   O7    A    
C9    C18   A    
C48   H28   S    
Cu1   O1    S    
C48   H30   S    
C27   C28   A    
C6    C39   S    
C11   H2    S    
Cu1   O3    S    
C25   C37   A    
