data_mof_unit_65657.cif
_audit_creation_date              2012-10-26T20:36:29-0400
_audit_creation_method            fapswitch 2.2
_symmetry_space_group_name_H-M    P1
_symmetry_Int_Tables_number       1
_space_group_crystal_system       triclinic
_cell_length_a                    15.774322
_cell_length_b                    17.140744
_cell_length_c                    19.400237
_cell_angle_alpha                 90.329225
_cell_angle_beta                  91.681495
_cell_angle_gamma                 97.023321
_cell_volume                      5203.67422211

loop_
_atom_site_label
_atom_site_type_symbol
_atom_type_description
_atom_site_fract_x
_atom_site_fract_y
_atom_site_fract_z
_atom_type_partial_charge
C1    C     C_R   0.488896 0.348407 0.500804 0.549345
C2    C     C_R   0.525803 0.902724 0.495007 0.214688
C3    C     C_R   0.402986 0.133305 0.522241 -0.109143
C4    C     C_R   0.597025 0.866699 0.477787 -0.109142
C5    C     C_R   0.405701 0.214984 0.521454 -0.044263
C6    C     C_R   0.594314 0.785021 0.478579 -0.044258
C7    C     C_R   0.751521 0.461911 0.466399 0.041135
C8    C     C_R   0.248479 0.538092 0.533598 0.041147
C9    C     C_R   0.840953 0.464224 0.468254 -0.102948
C10   C     C_R   0.159048 0.535779 0.531743 -0.102939
C11   C     C_R   0.891272 0.516469 0.513969 0.215552
C12   C     C_R   0.511104 0.651593 0.499196 0.549344
C13   C     C_R   0.108727 0.483531 0.486031 0.215552
C14   C     C_R   0.848822 0.564908 0.556239 -0.120697
C15   C     C_R   0.151177 0.435088 0.443764 -0.120711
C16   C     C_R   0.500973 0.501207 0.367299 0.543359
C17   C     C_R   0.499026 0.498794 0.632701 0.543360
C18   C     C_R   0.759278 0.560678 0.552745 0.046627
C19   C     C_R   0.240721 0.439318 0.447259 0.046609
C20   C     C_R   0.427964 0.475973 0.253070 -0.141265
C21   C     C_R   0.572046 0.523998 0.746931 -0.141264
C22   C     C_R   0.427063 0.475386 0.181306 -0.119064
C23   C     C_R   0.481670 0.261976 0.502570 -0.006978
C24   C     C_R   0.572949 0.524582 0.818695 -0.119065
C25   C     C_R   0.501243 0.501785 0.145910 0.020645
C26   C     C_R   0.498761 0.498210 0.854091 0.020646
C27   C     C_R   0.576313 0.529223 0.183617 -0.119495
C28   C     C_R   0.423681 0.470803 0.816385 -0.119494
C29   C     C_R   0.577955 0.530095 0.255640 -0.028470
C30   C     C_R   0.422037 0.469934 0.744363 -0.028467
C31   C     C_R   0.503037 0.502696 0.291253 -0.000423
C32   C     C_R   0.496963 0.497304 0.708748 -0.000428
C33   C     C_R   0.499475 0.499099 0.930078 0.348619
C34   C     C_R   0.518329 0.738026 0.497428 -0.006984
C35   C     C_R   0.500531 0.500894 0.069924 0.348619
C36   C     C_1   0.656989 0.561303 0.290816 0.220105
C37   C     C_1   0.342988 0.438763 0.709189 0.220125
C38   C     C_1   0.330264 0.248055 0.542115 0.220923
C39   C     C_1   0.669776 0.751956 0.457966 0.220946
C40   C     C_R   0.553130 0.225351 0.485359 -0.166315
C41   C     C_R   0.446851 0.774648 0.514596 -0.166315
C42   C     C_R   0.549698 0.144029 0.486384 -0.087499
C43   C     C_R   0.450279 0.855970 0.513564 -0.087501
C44   C     C_R   0.474190 0.097278 0.504981 0.214686
Cu1   Cu    Cu3+1 0.415220 0.496180 0.496660 0.975888
Cu2   Cu    Cu3+1 0.584780 0.503820 0.503340 0.975890
H1    H     H_    0.369698 0.454594 0.278744 0.130592
H2    H     H_    0.631908 0.545964 0.846358 0.144119
H3    H     H_    0.634025 0.550388 0.157017 0.144075
H4    H     H_    0.365963 0.449660 0.842986 0.144075
H5    H     H_    0.388002 0.740347 0.529394 0.131384
H6    H     H_    0.611965 0.259651 0.470530 0.131369
H7    H     H_    0.393763 0.881837 0.527334 0.143705
H8    H     H_    0.606198 0.118158 0.472579 0.143706
H9    H     H_    0.345140 0.097107 0.536867 0.126208
H10   H     H_    0.654883 0.902900 0.463190 0.126207
H11   H     H_    0.286533 0.578204 0.568843 0.124630
H12   H     H_    0.630319 0.545354 0.721257 0.130601
H13   H     H_    0.713468 0.421802 0.431151 0.124625
H14   H     H_    0.130073 0.574491 0.565753 0.126515
H15   H     H_    0.869927 0.425516 0.434241 0.126513
H16   H     H_    0.885058 0.605904 0.591916 0.110801
H17   H     H_    0.114942 0.394090 0.408090 0.110796
H18   H     H_    0.727475 0.598430 0.585604 0.124731
H19   H     H_    0.272525 0.401563 0.414401 0.124723
H20   H     H_    0.368112 0.453979 0.153642 0.144119
N1    N     N_R   0.572317 0.526208 0.035557 -0.226202
N2    N     N_2   0.016989 0.477423 0.480622 -0.233777
N3    N     N_1   0.720387 0.586294 0.318831 -0.253623
N4    N     N_1   0.279578 0.413803 0.681176 -0.253629
N5    N     N_1   0.269731 0.274360 0.558655 -0.255594
N6    N     N_1   0.730328 0.725657 0.441463 -0.255626
N7    N     N_R   0.427689 0.473784 0.964445 -0.226202
N8    N     N_R   0.571813 0.525344 0.967010 -0.225591
N9    N     N_R   0.428194 0.474647 0.032991 -0.225592
N10   N     N_2   0.466800 0.014108 0.507345 -0.244203
N11   N     N_2   0.533193 0.985893 0.492641 -0.244202
N12   N     N_R   0.712130 0.509560 0.508360 -0.218229
N13   N     N_R   0.287870 0.490440 0.491640 -0.218229
N14   N     N_2   0.983011 0.522576 0.519378 -0.233775
O1    O     O_R   0.420530 0.382500 0.496880 -0.488393
O2    O     O_R   0.579470 0.617500 0.503120 -0.488383
O3    O     O_R   0.563720 0.388950 0.502520 -0.511587
O4    O     O_R   0.436280 0.611050 0.497480 -0.511595
O5    O     O_R   0.428380 0.496760 0.397320 -0.510757
O6    O     O_R   0.571620 0.503240 0.602680 -0.510762
O7    O     O_R   0.571570 0.503220 0.402960 -0.489115
O8    O     O_R   0.428430 0.496780 0.597040 -0.489106

loop_
_geom_bond_atom_site_label_1
_geom_bond_atom_site_label_2
_ccdc_geom_bond_type
N2    N14   D    
C27   C29   A    
C17   O8    A    
C41   C43   A    
C14   C18   A    
C10   H14   S    
Cu1   Cu2   S    
C16   C31   S    
C15   C19   A    
C29   C36   S    
C35   N9    A    
C9    H15   S    
C24   C26   A    
C11   C14   A    
C1    O1    A    
C23   C40   A    
C14   H16   S    
C12   O4    A    
C44   N10   S    
C22   H20   S    
Cu2   O2    S    
C3    H9    S    
C43   H7    S    
C22   C25   A    
C16   O7    A    
C39   N6    T    
C40   C42   A    
C37   N4    T    
C4    H10   S    
N7    N9    A    
C34   C41   A    
C42   C44   A    
C7    H13   S    
C21   C32   A    
C3    C44   A    
C17   O6    A    
C24   H2    S    
Cu1   O8    S    
N10   N11   D    
C4    C6    A    
Cu2   N12   S    
C28   H4    S    
C40   H6    S    
C6    C34   A    
C30   C37   S    
C2    C4    A    
C8    H11   S    
C8    N13   A    
C26   C33   S    
C5    C23   A    
C35   N1    A    
C2    C43   A    
C18   N12   A    
C12   O2    A    
Cu1   N13   S    
N1    N8    A    
C19   N13   A    
C9    C11   A    
C25   C35   S    
C7    N12   A    
C33   N7    A    
C20   C22   A    
C1    C23   S    
C13   C15   A    
C16   O5    A    
Cu1   O4    S    
C25   C27   A    
C12   C34   S    
C36   N3    T    
Cu2   O7    S    
C7    C9    A    
C38   N5    T    
C13   N2    S    
Cu1   O1    S    
C3    C5    A    
C10   C13   A    
C1    O3    A    
C26   C28   A    
Cu1   O5    S    
C28   C30   A    
C21   H12   S    
C29   C31   A    
C2    N11   S    
C42   H8    S    
C30   C32   A    
C18   H18   S    
C19   H19   S    
C20   H1    S    
C11   N14   S    
Cu2   O3    S    
C33   N8    A    
C8    C10   A    
C21   C24   A    
C17   C32   S    
C15   H17   S    
C6    C39   S    
C5    C38   S    
C41   H5    S    
C27   H3    S    
Cu2   O6    S    
C20   C31   A    
