data_mof_unit_55413.cif
_audit_creation_date              2012-12-10T18:19:12-0500
_audit_creation_method            fapswitch 2.2
_symmetry_space_group_name_H-M    P1
_symmetry_Int_Tables_number       1
_space_group_crystal_system       triclinic
_cell_length_a                    14.852317
_cell_length_b                    14.181372
_cell_length_c                    11.5979
_cell_angle_alpha                 89.904129
_cell_angle_beta                  87.690377
_cell_angle_gamma                 90.293743
_cell_volume                      2440.80113499

loop_
_atom_site_label
_atom_site_type_symbol
_atom_type_description
_atom_site_fract_x
_atom_site_fract_y
_atom_site_fract_z
_atom_type_partial_charge
C1    C     C_R   0.327378 0.499401 0.504662 0.915230
C2    C     C_R   0.427991 0.201321 0.548639 0.458139
C3    C     C_R   0.422213 0.799137 0.526355 0.496529
C4    C     C_R   0.570284 0.202036 0.447539 0.491909
C5    C     C_R   0.424230 0.899407 0.542865 -0.102265
C6    C     C_R   0.577300 0.101979 0.459450 -0.087371
C7    C     C_R   0.576665 0.900303 0.458956 -0.103226
C8    C     C_R   0.422604 0.100873 0.539712 -0.086488
C9    C     C_R   0.500548 0.950402 0.501147 -0.027021
C10   C     C_R   0.500455 0.051055 0.501050 -0.030295
C11   C     C_R   0.349105 0.950007 0.590453 -0.087176
C12   C     C_R   0.672589 0.499849 0.496341 0.926735
C13   C     C_R   0.655803 0.051153 0.422676 -0.098446
C14   C     C_R   0.651446 0.951826 0.410019 -0.089200
C15   C     C_R   0.343756 0.048659 0.573703 -0.083142
C16   C     C_R   0.500027 0.500030 0.281991 0.881190
C17   C     C_R   0.500066 0.499884 0.718005 0.878243
C18   C     C_1   0.499950 0.499869 0.161441 -0.197247
C19   C     C_1   0.500015 0.499470 0.838551 -0.186492
C20   C     C_1   0.499915 0.499401 0.059366 0.004746
C21   C     C_1   0.499949 0.499194 0.940634 0.002108
C22   C     C_R   0.818640 0.516429 0.392620 -0.111274
C23   C     C_R   0.911439 0.497044 0.391622 0.066835
C24   C     C_R   0.181650 0.514064 0.610075 -0.112673
C25   C     C_R   0.768034 0.497674 0.494586 -0.256329
C26   C     C_R   0.231796 0.496112 0.507693 -0.267648
C27   C     C_R   0.807970 0.471926 0.596262 0.395903
C28   C     C_R   0.191197 0.471273 0.406125 0.389787
C29   C     C_R   0.900629 0.485218 0.603797 -0.106292
C30   C     C_R   0.098807 0.484830 0.398878 -0.097148
C31   C     C_R   0.953076 0.492356 0.499593 -0.071505
C32   C     C_R   0.046589 0.491953 0.503173 -0.074413
C33   C     C_2   0.775419 0.563222 0.293928 0.552426
C34   C     C_R   0.088361 0.495754 0.611148 0.065742
C35   C     C_2   0.225982 0.559506 0.708920 0.556078
C36   C     C_3   0.765771 0.337487 0.693027 0.169422
C37   C     C_3   0.679719 0.292580 0.745241 -0.331379
C38   C     C_3   0.690257 0.186680 0.762997 -0.970834
C39   C     C_3   0.240533 0.338661 0.315719 0.192485
C40   C     C_3   0.307124 0.300703 0.223947 -0.362289
C41   C     C_3   0.317905 0.194039 0.233733 -0.926632
C42   C     C_3   0.847228 0.570311 0.836095 0.164019
C43   C     C_3   0.900306 0.629326 0.920308 -0.450344
C44   C     C_3   0.846582 0.714211 0.964667 -0.809716
C45   C     C_R   0.941687 0.486043 0.711552 0.362076
C46   C     C_3   0.151968 0.568527 0.164012 0.164459
C47   C     C_3   0.096797 0.627722 0.082584 -0.458636
C48   C     C_3   0.149775 0.713168 0.036307 -0.809713
C49   C     C_2   0.074429 0.446288 0.822959 0.481761
C50   C     C_2   0.923978 0.447771 0.179990 0.489175
C51   C     C_3   0.711349 0.772316 0.561727 0.082198
C52   C     C_3   0.810046 0.746765 0.533174 -0.324308
C53   C     C_3   0.875189 0.801691 0.606456 -0.982574
C54   C     C_3   0.378309 0.267655 0.720036 0.159606
C55   C     C_3   0.318545 0.206464 0.800363 -0.385203
C56   C     C_R   0.057678 0.485528 0.291125 0.372609
C57   C     C_3   0.326386 0.236471 0.925373 -0.924179
C58   C     C_3   0.288818 0.771202 0.439355 0.082823
C59   C     C_3   0.189990 0.745257 0.468149 -0.324455
C60   C     C_3   0.125197 0.799148 0.393824 -0.981402
C61   C     C_3   0.598264 0.257994 0.263964 0.150678
C62   C     C_3   0.637677 0.181784 0.183785 -0.406095
C63   C     C_3   0.607789 0.195544 0.060781 -0.935670
C64   C     C_2   0.277716 0.901724 0.662798 0.446790
C65   C     C_2   0.743889 0.099743 0.399729 0.450665
C66   C     C_2   0.723256 0.903741 0.339284 0.445594
C67   C     C_R   0.035640 0.481567 0.714662 -0.071241
C68   C     C_2   0.253531 0.093701 0.582815 0.443663
C69   C     C_R   0.963694 0.482285 0.288132 -0.079494
C70   C     C_R   0.578145 0.799813 0.474637 0.496218
H1    H     H_    0.704358 0.552710 0.279588 0.053050
H2    H     H_    0.171740 0.312690 0.296942 0.159239
H3    H     H_    0.259215 0.310885 0.401349 0.216759
H4    H     H_    0.282649 0.319138 0.137858 0.239055
H5    H     H_    0.373825 0.334561 0.232994 0.240861
H6    H     H_    0.344641 0.175227 0.318693 0.287220
H7    H     H_    0.366532 0.168931 0.165542 0.253845
H8    H     H_    0.252159 0.158001 0.223419 0.281778
H9    H     H_    0.779628 0.554456 0.876243 0.198558
H10   H     H_    0.835624 0.612698 0.757030 0.121226
H11   H     H_    0.916338 0.585048 0.995290 0.241284
H12   H     H_    0.296771 0.547704 0.723171 0.042190
H13   H     H_    0.964257 0.653935 0.876880 0.229883
H14   H     H_    0.828682 0.760762 0.892384 0.234523
H15   H     H_    0.887666 0.755256 0.025021 0.278895
H16   H     H_    0.783747 0.690569 0.011507 0.295540
H17   H     H_    0.218219 0.552823 0.120495 0.197268
H18   H     H_    0.166542 0.610627 0.242301 0.124404
H19   H     H_    0.078571 0.583750 0.008320 0.238534
H20   H     H_    0.034040 0.651742 0.128754 0.231747
H21   H     H_    0.169366 0.759706 0.107798 0.235679
H22   H     H_    0.107449 0.754014 0.977479 0.276200
H23   H     H_    0.822976 0.320837 0.748405 0.179305
H24   H     H_    0.211620 0.690207 0.987380 0.298345
H25   H     H_    0.037364 0.453820 0.904697 0.088760
H26   H     H_    0.960978 0.455233 0.098102 0.084003
H27   H     H_    0.686316 0.729951 0.637374 0.142651
H28   H     H_    0.708364 0.848053 0.587076 0.123408
H29   H     H_    0.819809 0.670764 0.548832 0.208398
H30   H     H_    0.827541 0.761011 0.440750 0.262288
H31   H     H_    0.872396 0.878119 0.585831 0.272865
H32   H     H_    0.944964 0.776435 0.588311 0.275401
H33   H     H_    0.857869 0.791035 0.699309 0.264746
H34   H     H_    0.779196 0.304992 0.606417 0.189972
H35   H     H_    0.361153 0.342313 0.738912 0.185332
H36   H     H_    0.450492 0.257078 0.740529 0.112025
H37   H     H_    0.247075 0.213678 0.776995 0.264693
H38   H     H_    0.338966 0.131501 0.792161 0.204212
H39   H     H_    0.396870 0.228834 0.952234 0.252977
H40   H     H_    0.281638 0.191325 0.981302 0.279093
H41   H     H_    0.305382 0.311121 0.935932 0.285482
H42   H     H_    0.313498 0.729020 0.363781 0.143733
H43   H     H_    0.292270 0.846979 0.413803 0.124520
H44   H     H_    0.179922 0.669071 0.453758 0.210990
H45   H     H_    0.661577 0.326526 0.829195 0.228724
H46   H     H_    0.172457 0.760150 0.560298 0.260744
H47   H     H_    0.128312 0.875765 0.413159 0.274637
H48   H     H_    0.055290 0.773589 0.412237 0.275339
H49   H     H_    0.142602 0.787802 0.301209 0.264954
H50   H     H_    0.620492 0.327331 0.228026 0.187775
H51   H     H_    0.523170 0.255529 0.261971 0.125463
H52   H     H_    0.712436 0.184698 0.183577 0.251126
H53   H     H_    0.614161 0.111191 0.213574 0.218717
H54   H     H_    0.533176 0.192792 0.058468 0.255800
H55   H     H_    0.636046 0.138163 0.005683 0.277697
H56   H     H_    0.624135 0.303793 0.685975 0.254262
H57   H     H_    0.632368 0.264438 0.026110 0.275819
H58   H     H_    0.207232 0.918826 0.654540 0.024794
H59   H     H_    0.787167 0.080364 0.326162 0.032393
H60   H     H_    0.793685 0.921135 0.349283 0.026623
H61   H     H_    0.206689 0.077411 0.654225 0.025178
H62   H     H_    0.708836 0.151508 0.680146 0.304404
H63   H     H_    0.625234 0.156279 0.796255 0.260780
H64   H     H_    0.742911 0.172599 0.826053 0.275851
N1    N     N_R   0.500000 0.750030 0.500000 -0.191452
N2    N     N_R   0.500000 0.249970 0.500000 -0.216748
O1    O     O_R   0.367850 0.580280 0.500030 -0.580798
O2    O     O_2   0.184409 0.613826 0.772621 -0.592614
O3    O     O_3   0.754712 0.436608 0.687584 -0.645351
O4    O     O_3   0.243482 0.438312 0.313350 -0.648382
O5    O     O_3   0.890815 0.482822 0.814685 -0.648448
O6    O     O_3   0.108390 0.480892 0.188010 -0.640682
O7    O     O_2   0.144827 0.402106 0.821139 -0.603908
O8    O     O_2   0.852680 0.404398 0.182083 -0.584336
O9    O     O_3   0.658829 0.751779 0.465095 -0.572898
O10   O     O_3   0.358951 0.251204 0.603199 -0.594597
O11   O     O_3   0.341264 0.750713 0.535972 -0.572281
O12   O     O_R   0.632150 0.419720 0.499970 -0.565295
O13   O     O_3   0.631397 0.251224 0.376845 -0.579021
O14   O     O_2   0.297738 0.843444 0.734930 -0.514087
O15   O     O_2   0.770259 0.160186 0.465245 -0.561148
O16   O     O_2   0.703736 0.845610 0.266712 -0.514952
O17   O     O_2   0.229386 0.147073 0.507565 -0.566570
O18   O     O_R   0.632150 0.580280 0.499970 -0.587228
O19   O     O_R   0.367850 0.419720 0.500030 -0.573957
O20   O     O_R   0.500010 0.580270 0.334450 -0.595464
O21   O     O_R   0.499990 0.419730 0.665550 -0.663988
O22   O     O_R   0.499990 0.580270 0.665550 -0.596027
O23   O     O_R   0.500010 0.419730 0.334450 -0.648720
O24   O     O_2   0.818333 0.617218 0.230402 -0.595791
Zn1   Zn    Zn3+2 0.500000 0.607200 0.500000 1.023691
Zn2   Zn    Zn3+2 0.500000 0.392800 0.500000 0.973014

loop_
_geom_bond_atom_site_label_1
_geom_bond_atom_site_label_2
_ccdc_geom_bond_type
C51   H27   S    
O1    Zn1   S    
C42   H10   S    
C27   C29   A    
C43   H13   S    
C23   C69   A    
O18   Zn1   S    
C28   O4    S    
C62   H52   S    
C68   O17   D    
C7    C70   A    
C63   H54   S    
C46   O6    S    
C13   C65   S    
C3    O11   S    
C4    O13   S    
C5    C9    A    
C62   C63   S    
C48   H24   S    
C58   H42   S    
C36   C37   S    
C19   C21   T    
C50   C69   S    
C24   C26   A    
C37   H56   S    
C40   H4    S    
C35   O2    D    
C41   H7    S    
C51   O9    S    
C22   C25   A    
C60   H49   S    
C61   H51   S    
C46   C47   S    
C38   H63   S    
C1    O19   A    
O22   Zn1   S    
C2    N2    A    
C39   O4    S    
C11   C15   A    
C36   H23   S    
C7    C14   A    
C57   H39   S    
C47   C48   S    
C53   H31   S    
C59   H46   S    
C64   H58   S    
C48   H21   S    
C16   O20   A    
C58   H43   S    
C39   H2    S    
C60   H48   S    
C17   O21   A    
C9    C10   A    
C3    N1    A    
C33   O24   D    
C4    N2    A    
C56   O6    S    
C51   H28   S    
C39   H3    S    
C59   C60   S    
C55   H37   S    
C13   C14   A    
C61   H50   S    
C45   O5    S    
N1    Zn1   S    
C44   H16   S    
C62   H53   S    
C35   H12   S    
C50   O8    D    
C57   H41   S    
C46   H18   S    
O19   Zn2   S    
C24   C35   S    
C54   H36   S    
C51   C52   S    
C4    C6    A    
C11   C64   S    
C39   C40   S    
C58   O11   S    
N2    Zn2   S    
C3    C5    A    
C58   C59   S    
C30   C56   A    
C52   H30   S    
C27   O3    S    
C29   C45   A    
C38   H62   S    
C65   O15   D    
C68   H61   S    
C43   C44   S    
C66   O16   D    
C37   C38   S    
C57   H40   S    
C53   H32   S    
C42   O5    S    
C14   C66   S    
O23   Zn2   S    
C60   H47   S    
C70   O9    S    
C49   H25   S    
C17   O22   A    
C63   H55   S    
C8    C10   A    
C40   C41   S    
O20   Zn1   S    
C47   H19   S    
C8    C15   A    
C55   C57   S    
C1    C26   S    
C43   H11   S    
C47   H20   S    
C25   C27   A    
C42   C43   S    
C44   H15   S    
C41   H8    S    
C1    O1    A    
C52   C53   S    
C46   H17   S    
C7    C9    A    
C22   C33   S    
C54   C55   S    
C49   C67   S    
C54   H35   S    
C31   C32   A    
C2    C8    A    
C12   O18   A    
C44   H14   S    
C34   C67   A    
C6    C10   A    
C65   H59   S    
C5    C11   A    
C45   C67   A    
C37   H45   S    
C2    O10   S    
C55   H38   S    
C52   H29   S    
C26   C28   A    
C40   H5    S    
C54   O10   S    
C12   C25   S    
C36   H34   S    
O12   Zn2   S    
C12   O12   A    
C28   C30   A    
C29   C31   A    
C6    C13   A    
C30   C32   A    
C50   H26   S    
C70   N1    A    
C53   H33   S    
C59   H44   S    
C15   C68   S    
C49   O7    D    
C17   C19   S    
C41   H6    S    
C18   C20   T    
C38   H64   S    
C61   C62   S    
C36   O3    S    
C24   C34   A    
C33   H1    S    
C23   C31   A    
C42   H9    S    
C20   C21   S    
C16   C18   S    
C56   C69   A    
C48   H22   S    
C64   O14   D    
C22   C23   A    
C66   H60   S    
C61   O13   S    
O21   Zn2   S    
C63   H57   S    
C32   C34   A    
C16   O23   A    
