data_mof_unit_64846.cif
_audit_creation_date              2012-12-10T18:39:50-0500
_audit_creation_method            fapswitch 2.2
_symmetry_space_group_name_H-M    P1
_symmetry_Int_Tables_number       1
_space_group_crystal_system       triclinic
_cell_length_a                    11.572054
_cell_length_b                    10.800085
_cell_length_c                    10.529607
_cell_angle_alpha                 89.633366
_cell_angle_beta                  90.024132
_cell_angle_gamma                 90.000432
_cell_volume                      1315.95445057

loop_
_atom_site_label
_atom_site_type_symbol
_atom_type_description
_atom_site_fract_x
_atom_site_fract_y
_atom_site_fract_z
_atom_type_partial_charge
C1    C     C_R   0.281226 0.500000 0.499968 0.905267
C2    C     C_3   0.404887 0.441590 0.042626 -0.178655
C3    C     C_3   0.404865 0.558330 0.957236 -0.178645
C4    C     C_3   0.595135 0.441670 0.042764 -0.178645
C5    C     C_3   0.500028 0.498615 0.878100 0.024444
C6    C     C_3   0.499972 0.501385 0.121900 0.024444
C7    C     C_1   0.161080 0.499999 0.499975 -0.193441
C8    C     C_1   0.838920 0.500001 0.500025 -0.193441
C9    C     C_1   0.059170 0.499999 0.499990 -0.000490
C10   C     C_1   0.940830 0.500000 0.500010 -0.000490
C11   C     C_R   0.718774 0.500000 0.500032 0.905267
C12   C     C_R   0.499957 0.500462 0.256533 0.864950
C13   C     C_R   0.500042 0.499538 0.743467 0.864950
C14   C     C_1   0.500000 0.069819 0.500000 0.030684
C15   C     C_1   0.500000 0.930181 0.500000 0.030684
C16   C     C_3   0.499949 0.618270 0.039215 -0.132872
C17   C     C_3   0.500051 0.381730 0.960785 -0.132872
C18   C     C_3   0.595113 0.558410 0.957374 -0.178655
H1    H     H_    0.327522 0.605550 0.917550 0.137868
H2    H     H_    0.672478 0.394450 0.082450 0.137868
H3    H     H_    0.499907 0.714659 0.075251 0.148063
H4    H     H_    0.500093 0.285341 0.924749 0.148063
H5    H     H_    0.672441 0.605700 0.917799 0.137867
H6    H     H_    0.327559 0.394300 0.082201 0.137867
N1    N     N_1   0.500000 0.180630 0.500000 -0.081565
N2    N     N_1   0.500000 0.819370 0.500000 -0.081565
O1    O     O_R   0.334450 0.602530 0.499980 -0.608477
O2    O     O_R   0.665550 0.397470 0.500020 -0.608477
O3    O     O_R   0.665550 0.602530 0.500020 -0.608473
O4    O     O_R   0.334450 0.397470 0.499980 -0.608473
O5    O     O_R   0.499970 0.602510 0.313950 -0.623474
O6    O     O_R   0.500030 0.397490 0.686050 -0.623474
O7    O     O_R   0.500030 0.602510 0.686050 -0.616841
O8    O     O_R   0.499970 0.397490 0.313950 -0.616841
Zn1   Zn    Zn3+2 0.500000 0.636920 0.500000 0.973790
Zn2   Zn    Zn3+2 0.500000 0.363080 0.500000 0.973790

loop_
_geom_bond_atom_site_label_1
_geom_bond_atom_site_label_2
_ccdc_geom_bond_type
C3    H1    S    
C16   H3    S    
C9    C10   S    
O3    Zn1   S    
C13   O6    A    
C5    C13   S    
C17   H4    S    
O4    Zn2   S    
C4    C18   S    
C2    C3    S    
C12   O5    A    
C2    C17   S    
C2    H6    S    
O2    Zn2   S    
C2    C6    S    
C11   O2    A    
C8    C11   S    
C4    C17   S    
O6    Zn2   S    
C16   C18   S    
C1    O4    A    
O7    Zn1   S    
O8    Zn2   S    
C14   N1    T    
C6    C12   S    
O5    Zn1   S    
C4    C6    S    
C5    C17   S    
N1    Zn2   S    
C6    C16   S    
C18   H5    S    
C4    H2    S    
C7    C9    T    
N2    Zn1   S    
C11   O3    A    
C8    C10   T    
C13   O7    A    
C1    O1    A    
C14   C15   S    
C15   N2    T    
C5    C18   S    
O1    Zn1   S    
C1    C7    S    
C12   O8    A    
C3    C16   S    
C3    C5    S    
