data_mof_unit_49046.cif
_audit_creation_date              2012-12-10T17:26:14-0500
_audit_creation_method            fapswitch 2.2
_symmetry_space_group_name_H-M    P1
_symmetry_Int_Tables_number       1
_space_group_crystal_system       triclinic
_cell_length_a                    10.183256
_cell_length_b                    10.558539
_cell_length_c                    27.624834
_cell_angle_alpha                 90.814671
_cell_angle_beta                  82.224768
_cell_angle_gamma                 94.576026
_cell_volume                      2933.524877

loop_
_atom_site_label
_atom_site_type_symbol
_atom_type_description
_atom_site_fract_x
_atom_site_fract_y
_atom_site_fract_z
_atom_type_partial_charge
C1    C     C_R   0.554071 0.734214 0.494385 0.877665
C2    C     C_R   0.466925 0.622206 0.128433 -0.013460
C3    C     C_R   0.508471 0.502168 0.646907 -0.120246
C4    C     C_R   0.492298 0.500045 0.352998 -0.139126
C5    C     C_R   0.508642 0.623157 0.025433 0.070366
C6    C     C_R   0.507333 0.390983 0.973768 0.057959
C7    C     C_R   0.466058 0.390709 0.024917 -0.030662
C8    C     C_R   0.547103 0.623668 0.974028 -0.047605
C9    C     C_R   0.478152 0.506548 0.050761 0.076577
C10   C     C_R   0.536237 0.507459 0.948276 0.078713
C11   C     C_R   0.487581 0.735893 0.052098 -0.224678
C12   C     C_R   0.445497 0.265580 0.500659 0.895595
C13   C     C_R   0.530995 0.278013 0.947640 -0.201528
C14   C     C_R   0.471441 0.736922 0.102945 0.146808
C15   C     C_R   0.548716 0.275664 0.896841 0.140336
C16   C     C_R   0.501313 0.499715 0.594066 0.888189
C17   C     C_R   0.498547 0.499995 0.405920 0.891304
C18   C     C_R   0.602497 0.734475 0.947411 -0.044900
C19   C     C_R   0.405673 0.280714 0.051078 -0.083448
C20   C     C_2   0.578992 0.870573 0.485160 -0.131426
C21   C     C_2   0.419622 0.128882 0.493291 -0.104883
C22   C     C_2   0.498283 0.930262 0.459024 0.114822
C23   C     C_R   0.554930 0.506875 0.896629 -0.112637
C24   C     C_2   0.502004 0.068692 0.459459 0.178776
C25   C     C_2   0.930799 0.518734 0.500627 0.128094
C26   C     C_2   0.069487 0.481790 0.499032 0.123436
C27   C     C_R   0.569446 0.618882 0.820056 0.548057
C28   C     C_R   0.433414 0.392327 0.178804 0.516423
C29   C     C_R   0.550323 0.392071 0.820219 0.562811
C30   C     C_R   0.467320 0.618393 0.179182 0.503482
C31   C     C_R   0.410924 0.483649 0.732262 0.112424
C32   C     C_R   0.593999 0.494340 0.268129 0.078459
C33   C     C_R   0.394817 0.482175 0.682584 0.026896
C34   C     C_R   0.458326 0.506484 0.102394 -0.136411
C35   C     C_R   0.606619 0.493142 0.318074 0.090356
C36   C     C_R   0.635041 0.522934 0.661918 -0.293707
C37   C     C_R   0.367479 0.507744 0.337261 -0.241850
C38   C     C_R   0.650424 0.523677 0.711144 0.123123
C39   C     C_R   0.354702 0.508983 0.287960 0.142283
C40   C     C_R   0.538433 0.504130 0.746159 0.301099
C41   C     C_R   0.468004 0.502452 0.253307 0.222341
C42   C     C_2   0.676450 0.840400 0.971057 0.927020
C43   C     C_2   0.334032 0.175600 0.026282 0.877832
C44   C     C_R   0.575558 0.622858 0.870765 -0.073744
C45   C     C_R   0.430104 0.391048 0.128014 -0.025736
C46   C     C_R   0.606692 0.736548 0.896257 0.054038
C47   C     C_R   0.394398 0.279852 0.102596 0.062637
C48   C     C_R   0.550976 0.389939 0.870932 -0.024244
H1    H     H_    0.723339 0.538910 0.635438 0.167103
H2    H     H_    0.771977 0.905764 0.494198 0.184920
H3    H     H_    0.119559 0.300243 0.500418 0.205221
H4    H     H_    0.186335 0.382677 0.448539 0.236792
H5    H     H_    0.881547 0.700195 0.498327 0.206362
H6    H     H_    0.813954 0.619448 0.550462 0.228930
H7    H     H_    0.838059 0.473345 0.709606 0.191643
H8    H     H_    0.822756 0.631588 0.712247 0.198869
H9    H     H_    0.204379 0.437609 0.252207 0.208559
H10   H     H_    0.228100 0.598174 0.252181 0.210439
H11   H     H_    0.577690 0.887275 0.854872 0.247563
H12   H     H_    0.278340 0.512799 0.363294 0.186188
H13   H     H_    0.735334 0.835743 0.844625 0.230371
H14   H     H_    0.244430 0.141597 0.120152 0.200401
H15   H     H_    0.402265 0.097512 0.120711 0.226383
H16   H     H_    0.774250 0.402502 0.318674 0.206602
H17   H     H_    0.797485 0.563274 0.318363 0.204972
H18   H     H_    0.261939 0.379464 0.646013 0.204699
H19   H     H_    0.236934 0.537584 0.652772 0.215243
H20   H     H_    0.719991 0.568334 0.210673 0.210036
H21   H     H_    0.696012 0.407667 0.210681 0.210425
H22   H     H_    0.233176 0.534397 0.765339 0.206282
H23   H     H_    0.128799 0.633379 0.537348 0.177964
H24   H     H_    0.249272 0.375846 0.763427 0.220374
H25   H     H_    0.365173 0.887048 0.119252 0.199075
H26   H     H_    0.532652 0.919349 0.115547 0.208420
H27   H     H_    0.649475 0.119489 0.882565 0.225666
H28   H     H_    0.482662 0.094379 0.884122 0.211476
H29   H     H_    0.805032 0.891923 0.018650 0.351271
H30   H     H_    0.301586 0.986988 0.015407 0.349162
H31   H     H_    0.691067 0.113460 0.427982 0.199005
H32   H     H_    0.575979 0.108737 0.389266 0.189858
H33   H     H_    0.324316 0.823397 0.453863 0.225252
H34   H     H_    0.870883 0.366053 0.463022 0.183347
H35   H     H_    0.453312 0.792433 0.409971 0.182013
H36   H     H_    0.481306 0.824706 0.034024 0.175578
H37   H     H_    0.537215 0.189830 0.966243 0.189116
H38   H     H_    0.331046 0.075277 0.560477 0.182919
H39   H     H_    0.225318 0.095982 0.519694 0.185472
H40   H     H_    0.663044 0.925845 0.544976 0.187721
N1    N     N_R   0.553889 0.505063 0.796755 -0.333376
N2    N     N_3   0.225577 0.517058 0.273646 -0.455444
N3    N     N_3   0.654621 0.852484 0.870940 -0.414083
N4    N     N_3   0.338580 0.169032 0.129609 -0.369262
N5    N     N_3   0.735237 0.485813 0.333097 -0.415705
N6    N     N_3   0.263273 0.457365 0.669777 -0.469506
N7    N     N_3   0.710044 0.487573 0.232719 -0.468741
N8    N     N_3   0.298130 0.464517 0.769258 -0.438475
N9    N     N_3   0.452927 0.854410 0.128280 -0.371246
N10   N     N_3   0.565409 0.156629 0.872156 -0.374034
N11   N     N_3   0.595783 0.138306 0.424002 -0.442573
N12   N     N_R   0.455504 0.504462 0.202504 -0.367582
N13   N     N_3   0.406006 0.863581 0.430646 -0.448584
N14   N     N_2   0.842700 0.448890 0.480020 -0.202052
N15   N     N_2   0.157300 0.551110 0.519980 -0.214469
N16   N     N_3   0.314942 0.058876 0.524259 -0.462767
N17   N     N_3   0.681268 0.941885 0.507320 -0.464960
N18   N     N_3   0.102800 0.365861 0.474485 -0.481884
N19   N     N_3   0.897880 0.635423 0.524634 -0.490712
N20   N     N_3   0.780005 0.543743 0.725905 -0.442255
O1    O     O_R   0.431060 0.692470 0.504020 -0.607111
O2    O     O_2   0.418357 0.283084 0.204442 -0.528842
O3    O     O_2   0.483226 0.726494 0.205121 -0.525853
O4    O     O_2   0.542318 0.282955 0.794374 -0.527802
O5    O     O_2   0.662893 0.951005 0.961549 -0.638198
O6    O     O_R   0.761276 0.812635 0.004611 -0.788920
O7    O     O_2   0.257117 0.200390 0.998007 -0.596240
O8    O     O_R   0.355447 0.049133 0.034718 -0.850992
O9    O     O_R   0.568940 0.307530 0.495980 -0.578492
O10   O     O_R   0.651120 0.659650 0.491200 -0.625561
O11   O     O_R   0.348880 0.340350 0.508800 -0.633058
O12   O     O_R   0.389980 0.516390 0.577660 -0.614769
O13   O     O_R   0.610020 0.483610 0.422340 -0.568699
O14   O     O_R   0.610040 0.483570 0.564830 -0.623023
O15   O     O_R   0.389960 0.516430 0.435170 -0.646733
O16   O     O_2   0.575235 0.726607 0.793987 -0.577910
Zn1   Zn    Zn3+2 0.353060 0.521910 0.508560 0.912222
Zn2   Zn    Zn3+2 0.646940 0.478090 0.491440 0.948372

loop_
_geom_bond_atom_site_label_1
_geom_bond_atom_site_label_2
_ccdc_geom_bond_type
C24   N11   S    
C47   N4    S    
C29   O4    S    
H38   N16   S    
C33   N6    S    
C26   N18   S    
C29   N1    A    
C39   C41   A    
H33   N13   S    
H25   N9    S    
C22   N13   S    
H6    N19   S    
H31   N11   S    
H16   N5    S    
C5    C11   A    
C16   O12   A    
C26   N15   D    
C11   C14   A    
C19   C47   A    
C25   N14   D    
O15   Zn1   S    
C3    C33   A    
H28   N10   S    
C31   N8    S    
C30   N12   A    
C31   C40   A    
C16   O14   A    
H8    N20   S    
C18   C42   S    
C1    O1    A    
C21   N16   S    
C27   C44   A    
C42   O6    S    
H21   N7    S    
C44   C46   A    
H14   N4    S    
H15   N4    S    
H19   N6    S    
C32   C41   A    
C31   C33   A    
C40   N1    S    
O9    Zn2   S    
C39   N2    S    
H18   N6    S    
C43   O7    D    
C2    C34   A    
C45   C47   A    
C4    C35   A    
H4    N18   S    
C15   C48   A    
C2    C14   A    
C18   C46   A    
C19   C43   S    
H26   N9    S    
C35   N5    S    
C28   C45   A    
H20   N7    S    
H9    N2    S    
C29   C48   A    
C32   C35   A    
O12   Zn1   S    
C46   N3    S    
C28   O2    S    
C25   C26   S    
C12   C21   S    
H27   N10   S    
C8    C18   A    
C23   C44   A    
C12   O9    A    
O14   Zn2   S    
H22   N8    S    
C5    C9    A    
C43   O8    S    
H2    N17   S    
C12   O11   A    
H5    N19   S    
C42   O5    D    
H34   N14   S    
C41   N12   S    
C34   C45   A    
H11   N3    S    
H10   N2    S    
C4    C17   S    
O11   Zn1   S    
C17   O13   A    
C20   C22   D    
C7    C19   A    
C13   C15   A    
H32   N11   S    
C9    C34   A    
C11   H36   S    
C22   C24   S    
C15   N10   S    
H29   O6    S    
C25   N19   S    
C14   N9    S    
C20   N17   S    
O1    Zn1   S    
C7    C9    A    
H23   N15   S    
C1    C20   S    
C23   C48   A    
H35   N13   S    
H30   O8    S    
N14   Zn2   S    
C6    C10   A    
C5    C8    A    
C27   O16   S    
C6    C7    A    
C10   C23   A    
C30   O3    S    
H7    N20   S    
C2    C30   A    
C36   C38   A    
O13   Zn2   S    
C37   C39   A    
C6    C13   A    
C38   C40   A    
H40   N17   S    
C28   N12   A    
C3    C36   A    
H3    N18   S    
H17   N5    S    
C27   N1    A    
C1    O10   A    
C38   N20   S    
N15   Zn1   S    
C37   H12   S    
C3    C16   S    
H39   N16   S    
H24   N8    S    
C32   N7    S    
C4    C37   A    
C8    C10   A    
C21   C24   D    
C13   H37   S    
O10   Zn2   S    
C17   O15   A    
C36   H1    S    
H13   N3    S    
