data_mof_unit_57072.cif
_audit_creation_date              2013-03-05T16:00:00-0500
_audit_creation_method            fapswitch 2.2
_symmetry_space_group_name_H-M    P1
_symmetry_Int_Tables_number       1
_space_group_crystal_system       triclinic
_cell_length_a                    26.232823
_cell_length_b                    7.273124
_cell_length_c                    23.728229
_cell_angle_alpha                 90.122187
_cell_angle_beta                  101.474209
_cell_angle_gamma                 89.860585
_cell_volume                      4436.71855658

loop_
_atom_site_label
_atom_site_type_symbol
_atom_site_description
_atom_site_fract_x
_atom_site_fract_y
_atom_site_fract_z
_atom_type_partial_charge
O1    O     O_R   0.192370 0.384760 0.193350 -0.571600
O2    O     O_R   0.807630 0.615240 0.806650 -0.569823
O3    O     O_R   0.307630 0.884760 0.306650 -0.572003
O4    O     O_R   0.692370 0.115240 0.693350 -0.570201
O5    O     O_R   0.296630 0.711620 0.196480 -0.595968
O6    O     O_R   0.703370 0.288380 0.803520 -0.590285
O7    O     O_R   0.203370 0.211620 0.303520 -0.598558
O8    O     O_R   0.796630 0.788380 0.696480 -0.590840
C1    C     C_R   0.311615 0.544796 0.183024 0.958147
C2    C     C_R   0.686363 0.454742 0.814594 0.952407
C3    C     C_R   0.188012 0.044015 0.316945 0.938831
C4    C     C_R   0.813471 0.954222 0.685290 0.953931
O9    O     O_R   0.192080 0.714290 0.186600 -0.574652
O10   O     O_R   0.807920 0.285710 0.813400 -0.579121
O11   O     O_R   0.307920 0.214290 0.313400 -0.573940
O12   O     O_R   0.692080 0.785710 0.686600 -0.579461
O13   O     O_R   0.202340 0.887460 0.296690 -0.592409
O14   O     O_R   0.797660 0.112540 0.703310 -0.605947
O15   O     O_R   0.297660 0.387460 0.203310 -0.591186
O16   O     O_R   0.702340 0.612540 0.796690 -0.606578
C5    C     C_R   0.173847 0.546293 0.171353 0.920209
C6    C     C_R   0.826308 0.453643 0.828443 0.945579
C7    C     C_R   0.326152 0.046231 0.328661 0.942365
C8    C     C_R   0.673713 0.953715 0.671536 0.945011
O17   O     O_3   0.253490 0.552180 0.286130 -0.290165
O18   O     O_3   0.746510 0.447820 0.713870 -0.283623
O19   O     O_3   0.246510 0.052180 0.213870 -0.283357
O20   O     O_3   0.753490 0.947820 0.786130 -0.283956
V1    V     V_3+5 0.249350 0.825920 0.243300 1.164783
V2    V     V_3+5 0.750650 0.174080 0.756700 1.179859
V3    V     V_3+5 0.250650 0.325920 0.256700 1.162329
V4    V     V_3+5 0.749350 0.674080 0.743300 1.179885
C9    C     C_3   0.532422 0.876598 0.483066 -0.252437
C10   C     C_3   0.466690 0.123090 0.518229 -0.257694
C11   C     C_3   0.967780 0.377173 0.016817 -0.255271
C12   C     C_3   0.033425 0.622247 0.981600 -0.258730
C13   C     C_3   0.513723 0.061249 0.452663 0.051019
C14   C     C_3   0.485421 0.938451 0.548659 0.061376
C15   C     C_3   0.986390 0.562089 0.047161 0.061058
C16   C     C_3   0.014780 0.437345 0.951225 0.060555
H1    H     H_    0.558642 0.772902 0.469408 0.207509
H2    H     H_    0.440465 0.226757 0.531895 0.205107
H3    H     H_    0.941603 0.274036 0.030507 0.206830
H4    H     H_    0.059613 0.725350 0.967912 0.204048
C17   C     C_1   0.371681 0.039301 0.374720 -0.244252
C18   C     C_1   0.627873 0.960516 0.625920 -0.246253
C19   C     C_1   0.128375 0.539450 0.125233 -0.253430
C20   C     C_1   0.872211 0.460279 0.874004 -0.246460
C21   C     C_3   0.475807 0.840809 0.489796 0.398891
C22   C     C_3   0.523309 0.158884 0.511509 0.399623
C23   C     C_3   0.024421 0.340561 0.010124 0.399615
C24   C     C_3   0.976782 0.658872 0.988283 0.399323
C25   C     C_3   0.457210 0.021766 0.459199 -0.101166
C26   C     C_3   0.541916 0.977940 0.542074 -0.105769
C27   C     C_3   0.042926 0.521791 0.040663 -0.102037
C28   C     C_3   0.958253 0.477661 0.957770 -0.106159
C29   C     C_1   0.410059 0.033577 0.412961 0.157361
C30   C     C_1   0.589244 0.966157 0.588033 0.155554
C31   C     C_1   0.090040 0.533709 0.086942 0.154197
C32   C     C_1   0.910890 0.465851 0.911840 0.155811
C33   C     C_R   0.887705 0.112976 0.647723 0.212866
C34   C     C_R   0.125810 0.856001 0.366796 0.197946
C35   C     C_R   0.612387 0.618149 0.852195 0.217747
C36   C     C_R   0.354174 0.375920 0.108145 0.209348
C37   C     C_R   0.921138 0.112740 0.607852 -0.091376
C38   C     C_R   0.085941 0.854777 0.398622 -0.157534
C39   C     C_R   0.578783 0.620141 0.891902 -0.096871
C40   C     C_R   0.391376 0.377572 0.072752 -0.152897
H5    H     H_    0.948077 0.224517 0.607327 0.168100
H6    H     H_    0.063964 0.730083 0.400806 0.175093
H7    H     H_    0.552783 0.734791 0.893366 0.166434
H8    H     H_    0.396062 0.255651 0.048140 0.194272
C41   C     C_R   0.921763 0.968096 0.568772 -0.112631
C42   C     C_R   0.076300 0.006997 0.430957 -0.081282
C43   C     C_R   0.576627 0.473842 0.929622 -0.113194
C44   C     C_R   0.422252 0.532083 0.067913 -0.091858
C45   C     C_R   0.887409 0.818714 0.568741 0.369933
C46   C     C_R   0.107599 0.164461 0.431153 0.389624
C47   C     C_R   0.609465 0.319961 0.928775 0.364041
C48   C     C_R   0.413819 0.693550 0.098392 0.389911
C49   C     C_R   0.853735 0.817701 0.607951 -0.276064
C50   C     C_R   0.141842 0.175618 0.392323 -0.338098
C51   C     C_R   0.643929 0.318101 0.890263 -0.278383
C52   C     C_R   0.378275 0.691059 0.135632 -0.315934
H9    H     H_    0.826868 0.704098 0.606505 0.191746
H10   H     H_    0.165139 0.295917 0.392776 0.178403
H11   H     H_    0.669888 0.201734 0.890982 0.194337
H12   H     H_    0.373493 0.815223 0.159347 0.174898
C53   C     C_R   0.852351 0.963345 0.646832 -0.264624
C54   C     C_R   0.150678 0.025647 0.357940 -0.211620
C55   C     C_R   0.646931 0.465484 0.852582 -0.265785
C56   C     C_R   0.348339 0.534612 0.141888 -0.207450
N1    N     N_R   0.986392 0.822286 0.519328 -0.027959
N2    N     N_R   0.008740 0.148356 0.476848 -0.029462
N3    N     N_R   0.500469 0.354598 0.964610 -0.041078
N4    N     N_R   0.501396 0.645051 0.035146 0.001462
N5    N     N_R   0.022774 0.832047 0.487374 -0.029087
N6    N     N_R   0.972416 0.138649 0.508801 -0.031714
N7    N     N_R   0.464013 0.370515 0.996323 -0.042462
N8    N     N_R   0.537560 0.630509 0.003037 -0.010191
C57   C     C_R   0.035042 0.995598 0.465832 0.198753
C58   C     C_R   0.960371 0.975443 0.530631 0.205137
C59   C     C_R   0.463242 0.517000 0.032023 0.204171
C60   C     C_R   0.537907 0.484664 0.967290 0.205040
C61   C     C_3   0.527899 0.133958 0.397286 -0.298363
C62   C     C_3   0.584581 0.095533 0.394666 -0.760039
H13   H     H_    0.611149 0.152885 0.432811 0.289019
H14   H     H_    0.591373 0.945162 0.392545 0.249558
H15   H     H_    0.593746 0.159779 0.355469 0.255884
H16   H     H_    0.502710 0.066366 0.359842 0.194587
H17   H     H_    0.520393 0.284223 0.394177 0.236246
C63   C     C_3   0.471477 0.865860 0.604178 -0.296632
C64   C     C_3   0.414826 0.903897 0.607003 -0.808482
H18   H     H_    0.407921 0.054247 0.608934 0.250036
H19   H     H_    0.388193 0.845781 0.569031 0.293460
H20   H     H_    0.405878 0.840118 0.646374 0.246646
H21   H     H_    0.479081 0.715661 0.607343 0.233456
H22   H     H_    0.496731 0.933719 0.641534 0.182927
C65   C     C_3   0.972167 0.635924 0.102501 -0.307632
C66   C     C_3   0.915486 0.598395 0.105093 -0.778859
H23   H     H_    0.888919 0.655560 0.066923 0.293042
H24   H     H_    0.908726 0.448151 0.107240 0.249406
H25   H     H_    0.906287 0.663397 0.144269 0.250086
H26   H     H_    0.997357 0.568572 0.139977 0.184242
H27   H     H_    0.979636 0.786131 0.105569 0.234797
C67   C     C_3   0.028805 0.363647 0.895760 -0.287463
C68   C     C_3   0.085489 0.400522 0.893047 -0.822868
H28   H     H_    0.092434 0.550706 0.891154 0.250424
H29   H     H_    0.112066 0.342356 0.931040 0.291501
H30   H     H_    0.094486 0.336069 0.853694 0.248972
H31   H     H_    0.021182 0.213549 0.892594 0.232519
H32   H     H_    0.003609 0.431445 0.858366 0.182681
N9    N     N_R   0.550504 0.332659 0.525653 0.254064
O21   O     O_R   0.532026 0.453670 0.556706 -0.415778
O22   O     O_R   0.597252 0.353759 0.516165 -0.406114
N10   N     N_R   0.448576 0.667092 0.475689 0.254493
O23   O     O_R   0.467065 0.545814 0.444733 -0.409519
O24   O     O_R   0.401796 0.646285 0.485114 -0.416582
N11   N     N_R   0.949528 0.832799 0.974089 0.254058
O25   O     O_R   0.968083 0.953411 0.943216 -0.415445
O26   O     O_R   0.902718 0.854543 0.983424 -0.406826
N12   N     N_R   0.051761 0.166789 0.024313 0.254405
O27   O     O_R   0.033132 0.045638 0.054945 -0.413344
O28   O     O_R   0.098703 0.145797 0.015296 -0.422764
C69   C     C_3   0.890226 0.268914 0.691551 -0.306622
C70   C     C_3   0.937105 0.397780 0.697970 -0.931510
H33   H     H_    0.974001 0.318146 0.707394 0.266610
H34   H     H_    0.935188 0.481649 0.658543 0.281812
H35   H     H_    0.936669 0.493788 0.734349 0.251458
H36   H     H_    0.854647 0.354921 0.679854 0.224704
H37   H     H_    0.891370 0.207760 0.734689 0.183083
C71   C     C_3   0.145654 0.669994 0.351975 -0.337703
C72   C     C_3   0.199300 0.633040 0.390453 -0.664810
H38   H     H_    0.226434 0.750079 0.391466 0.232459
H39   H     H_    0.195230 0.608464 0.435432 0.264078
H40   H     H_    0.217896 0.511325 0.375076 0.238459
H41   H     H_    0.118766 0.559207 0.359275 0.187776
H42   H     H_    0.146003 0.656668 0.305551 0.192487
C73   C     C_3   0.610749 0.774930 0.809004 -0.296975
C74   C     C_3   0.563886 0.904792 0.802085 -0.944504
H43   H     H_    0.526974 0.825864 0.792191 0.264263
H44   H     H_    0.565392 0.989014 0.841454 0.282851
H45   H     H_    0.564741 0.000487 0.765857 0.252637
H46   H     H_    0.646412 0.859632 0.821512 0.223964
H47   H     H_    0.610038 0.714525 0.765776 0.182388
C75   C     C_3   0.321317 0.203333 0.106613 -0.357789
C76   C     C_3   0.264909 0.237179 0.076620 -0.768807
H48   H     H_    0.246419 0.345930 0.098532 0.237306
H49   H     H_    0.263327 0.279245 0.031328 0.243754
H50   H     H_    0.242231 0.108484 0.076705 0.260811
H51   H     H_    0.336540 0.091649 0.082417 0.197945
H52   H     H_    0.323774 0.145848 0.150241 0.220518
N13   N     N_R   0.884080 0.671835 0.527509 0.237697
O29   O     O_R   0.872857 0.506005 0.541487 -0.404937
O30   O     O_R   0.883936 0.707948 0.473788 -0.361623
N14   N     N_R   0.108934 0.303771 0.474478 0.236376
O31   O     O_R   0.114695 0.475608 0.462599 -0.440661
O32   O     O_R   0.111610 0.256781 0.527886 -0.372568
N15   N     N_R   0.610048 0.168273 0.967915 0.238686
O33   O     O_R   0.626024 0.006844 0.955076 -0.407265
O34   O     O_R   0.600891 0.194758 0.019247 -0.344562
N16   N     N_R   0.438760 0.864023 0.090192 0.226771
O35   O     O_R   0.434925 0.929462 0.038509 -0.422561
O36   O     O_R   0.455771 0.970561 0.134012 -0.395380

loop_
_geom_bond_atom_site_label_1
_geom_bond_atom_site_label_2
_geom_bond_distance
_ccdc_geom_bond_type
O17   V3    1.782204 S    
C6    C20   1.450249 S    
C61   H16   1.110772 S    
O1    C5    1.337065 A    
C67   C68   1.525552 S    
C7    C17   1.450550 S    
C27   C31   1.483582 S    
O19   V1    1.784617 S    
O13   V1    1.985574 S    
O3    C7    1.336886 A    
C10   H2    1.109992 S    
C35   C73   1.529597 S    
C48   C52   1.406585 A    
O15   V3    1.988143 S    
C69   C70   1.531177 S    
O4    V2    1.966266 S    
C76   H49   1.110815 S    
C14   C21   1.541178 S    
C38   H6    1.082677 S    
N13   O29   1.301407 A    
N3    C60   1.357526 A    
O7    C3    1.343456 A    
C17   C29   1.214567 T    
O5    C1    1.332145 A    
C22   C26   1.535016 S    
C34   C71   1.514019 S    
C36   C40   1.408552 A    
O9    V1    1.980769 S    
C64   H18   1.110322 S    
O16   V4    1.988143 S    
C63   H21   1.110013 S    
O4    C8    1.336787 A    
N3    N7    1.334026 A    
C62   H13   1.108051 S    
N2    N6    1.332593 A    
C9    C21   1.547699 S    
C38   C42   1.396621 A    
C34   C54   1.432374 A    
O1    V3    1.966042 S    
C24   N11   1.458213 S    
C37   C41   1.403102 A    
O2    V4    1.966039 S    
O3    V1    1.966263 S    
C33   C69   1.529759 S    
N16   O35   1.301438 A    
C36   C75   1.520689 S    
C1    O15   1.322763 A    
N8    C60   1.357906 A    
C15   C27   1.548517 S    
N2    C57   1.358526 A    
C2    O16   1.322336 A    
C16   C28   1.548627 S    
O2    C6    1.337101 A    
O12   V4    1.980123 S    
O14   V2    1.985572 S    
C48   N16   1.434863 S    
C72   H39   1.108464 S    
C11   H3    1.109992 S    
O5    V1    2.000717 S    
C69   H36   1.110979 S    
C12   C24   1.547790 S    
C66   H25   1.110252 S    
C40   H8    1.080877 S    
C64   H20   1.110254 S    
C49   C53   1.408369 A    
C44   C59   1.502293 S    
O11   C7    1.335689 A    
C15   C24   1.540785 S    
C61   H17   1.110027 S    
C75   H51   1.111997 S    
O12   C8    1.335470 A    
C75   H52   1.107165 S    
C18   C30   1.214193 T    
C46   N14   1.437388 S    
C35   C55   1.430379 A    
O10   V2    1.980769 S    
C1    C56   1.503247 S    
C63   C64   1.525492 S    
C33   C53   1.428972 A    
C20   C32   1.214407 T    
C76   H50   1.110499 S    
C70   H34   1.110590 S    
N13   O30   1.301307 A    
N11   O25   1.299908 A    
C71   H42   1.107448 S    
C10   C22   1.547759 S    
O7    V3    2.005190 S    
C34   C38   1.406611 A    
O8    V4    2.005189 S    
C74   H45   1.110933 S    
C52   H12   1.083175 S    
C4    C53   1.499431 S    
C12   C16   1.557581 S    
N10   O24   1.299670 A    
N7    C59   1.362338 A    
C76   H48   1.108123 S    
C25   C29   1.483573 S    
O18   V4    1.782204 S    
C23   C27   1.535335 S    
C65   H26   1.110790 S    
C9    C13   1.557183 S    
C73   H47   1.111745 S    
C64   H19   1.108115 S    
C74   H44   1.110147 S    
N1    C58   1.358903 A    
C11   C15   1.557163 S    
C13   C25   1.548570 S    
C68   H29   1.108102 S    
C35   C39   1.412573 A    
C13   C61   1.530639 S    
N6    C58   1.358935 A    
C70   H35   1.110922 S    
C46   C50   1.411508 A    
C73   C74   1.531346 S    
C14   C26   1.548454 S    
C45   C49   1.404663 A    
C73   H46   1.111032 S    
O8    C4    1.330859 A    
C16   C67   1.530827 S    
O9    C5    1.335933 A    
C72   H40   1.105481 S    
C69   H37   1.111804 S    
C42   C57   1.489996 S    
C65   H27   1.110054 S    
N14   O31   1.297555 A    
O6    V2    2.000718 S    
C21   N10   1.458130 S    
C2    C55   1.502949 S    
C43   C60   1.482342 S    
C11   C23   1.547785 S    
C75   C76   1.528646 S    
C47   N15   1.441713 S    
C12   H4    1.109998 S    
C39   C43   1.400333 A    
C36   C56   1.428498 A    
C14   C63   1.530882 S    
C68   H28   1.110303 S    
C15   C65   1.530631 S    
N1    N5    1.333883 A    
N12   O28   1.299722 A    
C66   H23   1.108121 S    
C66   H24   1.110367 S    
C70   H33   1.110846 S    
C26   C30   1.482975 S    
C23   N12   1.458216 S    
C9    C26   1.556741 S    
C37   H5    1.080196 S    
C71   H41   1.108484 S    
C41   C58   1.487550 S    
C45   N13   1.438057 S    
N16   O36   1.301654 A    
C11   C28   1.556857 S    
C10   C14   1.557552 S    
C44   C48   1.417700 A    
N10   O23   1.299889 A    
C22   N9    1.458188 S    
C3    O13   1.317658 A    
C51   H11   1.083045 S    
O6    C2    1.332207 A    
C65   C66   1.525672 S    
O11   V3    1.980124 S    
C40   C44   1.405012 A    
C16   C23   1.541230 S    
C51   C55   1.409684 A    
C61   C62   1.525666 S    
C50   C54   1.406874 A    
C9    H1    1.109994 S    
C74   H43   1.110851 S    
O10   C6    1.335813 A    
O20   V2    1.784617 S    
C68   H30   1.110236 S    
C8    C18   1.449884 S    
C12   C27   1.557096 S    
C50   H10   1.067287 S    
C63   H22   1.110981 S    
C13   C22   1.540821 S    
N11   O26   1.299647 A    
C3    C54   1.517721 S    
N9    O21   1.299899 A    
C62   H14   1.110300 S    
C67   H31   1.110017 S    
C21   C25   1.535363 S    
N4    N8    1.333577 A    
N14   O32   1.301555 A    
C39   H7    1.080845 S    
N5    C57   1.360047 A    
C67   H32   1.110975 S    
C19   C31   1.214531 T    
N15   O33   1.301478 A    
C47   C51   1.407556 A    
C33   C37   1.412220 A    
C28   C32   1.483331 S    
C71   C72   1.540876 S    
C10   C25   1.557153 S    
C42   C46   1.410253 A    
N4    C59   1.359903 A    
C4    O14   1.321688 A    
N9    O22   1.299640 A    
C41   C45   1.413184 A    
N12   O27   1.299879 A    
C52   C56   1.408876 A    
N15   O34   1.301356 A    
C72   H38   1.108100 S    
C43   C47   1.413204 A    
C49   H9    1.083378 S    
C24   C28   1.535111 S    
C5    C19   1.450414 S    
C62   H15   1.110217 S    
