data_mof_unit_12347.cif
_audit_creation_date              2012-12-10T16:57:09-0500
_audit_creation_method            fapswitch 2.2
_symmetry_space_group_name_H-M    P1
_symmetry_Int_Tables_number       1
_space_group_crystal_system       triclinic
_cell_length_a                    7.721295
_cell_length_b                    8.653194
_cell_length_c                    16.7991
_cell_angle_alpha                 91.877275
_cell_angle_beta                  81.67668
_cell_angle_gamma                 93.659627
_cell_volume                      1108.01126403

loop_
_atom_site_label
_atom_site_type_symbol
_atom_type_description
_atom_site_fract_x
_atom_site_fract_y
_atom_site_fract_z
_atom_type_partial_charge
C1    C     C_R   0.545636 0.794039 0.493226 0.926666
C2    C     C_R   0.411522 0.620173 0.233193 0.276786
C3    C     C_R   0.640076 0.722203 0.832129 0.346598
C4    C     C_R   0.402226 0.626258 0.150445 0.386061
C5    C     C_R   0.493896 0.694102 0.890221 -0.061701
C6    C     C_R   0.527663 0.552509 0.095898 -0.024442
C7    C     C_R   0.338988 0.620624 0.870138 -0.252449
C8    C     C_R   0.651929 0.464185 0.122595 -0.318684
C9    C     C_R   0.335369 0.553924 0.794035 0.147075
C10   C     C_R   0.653229 0.446849 0.204444 0.132746
C11   C     C_2   0.518833 0.696485 0.974675 0.541487
C12   C     C_R   0.454364 0.205889 0.497387 0.922455
C13   C     C_2   0.522465 0.558845 0.009447 0.391253
C14   C     C_3   0.948381 0.418670 0.230216 -0.693819
C15   C     C_3   0.197630 0.297958 0.780531 -0.696960
C16   C     C_3   0.776308 0.031096 0.361776 -0.722495
C17   C     C_3   0.150381 0.986051 0.581532 -0.708214
C18   C     C_2   0.568709 0.954557 0.477371 -0.050896
C19   C     C_2   0.427032 0.043719 0.490723 -0.027154
C20   C     C_R   0.481522 0.514498 0.653507 0.946729
C21   C     C_R   0.521435 0.501956 0.345998 0.938554
C22   C     C_R   0.484945 0.573782 0.735513 -0.154632
C23   C     C_R   0.530029 0.522518 0.259911 -0.175179
C24   C     C_R   0.631804 0.669422 0.752472 0.294367
H1    H     H_    0.228078 0.598655 0.916714 0.185107
H2    H     H_    0.944632 0.529909 0.265235 0.264862
H3    H     H_    0.067958 0.498289 0.810392 0.239204
H4    H     H_    0.212147 0.264654 0.842469 0.251127
H5    H     H_    0.311876 0.260702 0.737891 0.218839
H6    H     H_    0.077443 0.236731 0.763110 0.237100
H7    H     H_    0.506072 0.333672 0.999371 0.340834
H8    H     H_    0.536679 0.920442 0.980018 0.349221
H9    H     H_    0.168002 0.704690 0.164148 0.337478
H10   H     H_    0.894097 0.758446 0.818144 0.338667
H11   H     H_    0.841650 0.964044 0.470338 0.242539
H12   H     H_    0.746305 0.406202 0.079563 0.190380
H13   H     H_    0.908478 0.088765 0.344608 0.230716
H14   H     H_    0.677921 0.102946 0.341155 0.245551
H15   H     H_    0.771587 0.915033 0.331484 0.230202
H16   H     H_    0.203425 0.910819 0.457955 0.261815
H17   H     H_    0.116724 0.865441 0.601263 0.239842
H18   H     H_    0.027463 0.045821 0.581504 0.236212
H19   H     H_    0.227333 0.046830 0.625480 0.225535
H20   H     H_    0.023197 0.381331 0.440075 0.198962
H21   H     H_    0.976630 0.618650 0.559710 0.229279
H22   H     H_    0.818916 0.812861 0.704194 0.328517
H23   H     H_    0.286550 0.806439 0.262862 0.336379
H24   H     H_    0.775109 0.241740 0.200843 0.231534
H25   H     H_    0.011523 0.439805 0.167467 0.234703
H26   H     H_    0.028634 0.339816 0.258341 0.221508
N1    N     N_2   0.953500 0.457650 0.478520 -0.158985
N2    N     N_2   0.046500 0.542350 0.521480 -0.166275
N3    N     N_2   0.773314 0.348095 0.230469 -0.300534
N4    N     N_2   0.183127 0.463531 0.777681 -0.277798
N5    N     N_2   0.742312 0.015624 0.448168 -0.288403
N6    N     N_2   0.247569 0.985080 0.500977 -0.302070
O1    O     O_R   0.388470 0.738640 0.505270 -0.615265
O2    O     O_3   0.309822 0.710171 0.288800 -0.775877
O3    O     O_3   0.518744 0.423194 0.963193 -0.804757
O4    O     O_3   0.546124 0.834291 0.016383 -0.737434
O5    O     O_3   0.269623 0.697460 0.121201 -0.767368
O6    O     O_3   0.791624 0.790035 0.856294 -0.770618
O7    O     O_R   0.611530 0.261360 0.494730 -0.598960
O8    O     O_R   0.679650 0.711510 0.491500 -0.627148
O9    O     O_R   0.320350 0.288490 0.508500 -0.616589
O10   O     O_R   0.337210 0.515200 0.623500 -0.602442
O11   O     O_R   0.662790 0.484800 0.376500 -0.610785
O12   O     O_R   0.628380 0.488060 0.609730 -0.570816
O13   O     O_R   0.371620 0.511940 0.390270 -0.584555
O14   O     O_3   0.762526 0.711363 0.690415 -0.789386
Zn1   Zn    Zn3+2 0.305580 0.518120 0.509190 0.974292
Zn2   Zn    Zn3+2 0.694420 0.481880 0.490810 0.981513

loop_
_geom_bond_atom_site_label_1
_geom_bond_atom_site_label_2
_ccdc_geom_bond_type
C19   N6    S    
C2    C4    A    
C14   H2    S    
C2    O2    S    
C15   H5    S    
C1    O8    A    
C13   O3    S    
C1    O1    A    
C10   C23   A    
C5    C7    A    
C12   O9    A    
O10   Zn1   S    
C7    H1    S    
C16   H13   S    
O12   Zn2   S    
O8    Zn2   S    
C12   O7    A    
C17   H19   S    
C3    C24   A    
H3    N4    S    
C24   O14   S    
N2    Zn1   S    
C21   O11   A    
C6    C13   S    
C11   C13   D    
C17   N6    S    
C1    C18   S    
C14   H26   S    
C18   N5    S    
H20   N1    S    
C20   O10   A    
C20   C22   S    
C5    C11   S    
C17   H17   S    
C21   C23   S    
C21   O13   A    
H24   N3    S    
C22   C24   A    
C9    C22   A    
C16   N5    S    
C14   H25   S    
H22   O14   S    
N1    Zn2   S    
H8    O4    S    
C16   H15   S    
H11   N5    S    
C11   O4    S    
C15   H4    S    
C15   N4    S    
C3    C5    A    
O13   Zn1   S    
H10   O6    S    
C14   N3    S    
O7    Zn2   S    
C12   C19   S    
C15   H6    S    
H9    O5    S    
O11   Zn2   S    
C8    H12   S    
C3    O6    S    
H7    O3    S    
C2    C23   A    
C7    C9    A    
C10   N3    S    
C17   H18   S    
C18   C19   D    
C6    C8    A    
C9    N4    S    
H21   N2    S    
H23   O2    S    
O9    Zn1   S    
C4    C6    A    
C4    O5    S    
C20   O12   A    
C8    C10   A    
O1    Zn1   S    
N1    N2    D    
C16   H14   S    
H16   N6    S    
