data_mof_unit_17519.cif
_audit_creation_date              2012-12-10T20:25:42-0500
_audit_creation_method            fapswitch 2.2
_symmetry_space_group_name_H-M    P1
_symmetry_Int_Tables_number       1
_space_group_crystal_system       triclinic
_cell_length_a                    8.609924
_cell_length_b                    10.64862
_cell_length_c                    9.879636
_cell_angle_alpha                 89.84966
_cell_angle_beta                  98.540022
_cell_angle_gamma                 90.207995
_cell_volume                      895.75156582

loop_
_atom_site_label
_atom_site_type_symbol
_atom_type_description
_atom_site_fract_x
_atom_site_fract_y
_atom_site_fract_z
_atom_type_partial_charge
C1    C     C_R   0.492483 0.260444 0.499645 0.861818
C2    C     C_R   0.386326 0.932598 0.396218 -0.174514
C3    C     C_R   0.487168 0.871484 0.499720 -0.139075
C4    C     C_R   0.559733 0.937155 0.612835 0.042368
C5    C     C_3   0.726841 0.936783 0.682220 0.122378
C6    C     C_3   0.715902 0.079081 0.686259 -0.471110
C7    C     C_R   0.511481 0.390166 0.072804 0.194827
C8    C     C_R   0.500625 0.609536 0.071623 -0.101796
C9    C     C_R   0.500713 0.609561 0.927967 -0.057566
C10   C     C_R   0.511409 0.390217 0.930359 0.210087
C11   C     C_3   0.399538 0.282544 0.909949 -0.488236
C12   C     C_R   0.201533 0.504398 0.465043 0.969155
C13   C     C_3   0.399471 0.282362 0.063497 -0.436263
C14   C     C_R   0.499454 0.739746 0.499774 0.948981
C15   C     C_R   0.798375 0.505166 0.536027 0.919148
C16   C     C_2   0.036834 0.504673 0.449232 -0.441189
C17   C     C_2   0.961896 0.523900 0.557107 0.136812
C18   C     C_R   0.551400 0.064575 0.614594 0.022237
C19   C     C_R   0.472885 0.128665 0.502154 -0.184545
C20   C     C_R   0.374889 0.062650 0.398113 0.433219
H1    H     H_    0.976153 0.479011 0.348509 0.167930
H2    H     H_    0.498959 0.698080 0.874013 0.155856
H3    H     H_    0.284444 0.308850 0.850094 0.237930
H4    H     H_    0.454263 0.197276 0.873059 0.206991
H5    H     H_    0.284183 0.308433 0.093110 0.234125
H6    H     H_    0.454535 0.196968 0.114471 0.235747
H7    H     H_    0.317604 0.879808 0.314537 0.180860
H8    H     H_    0.740305 0.892166 0.785131 0.145694
H9    H     H_    0.719485 0.116601 0.791576 0.184281
H10   H     H_    0.793028 0.129317 0.622955 0.225707
H11   H     H_    0.498774 0.698021 0.124666 0.160042
N1    N     N_R   0.498950 0.499140 0.142680 -0.110291
N2    N     N_R   0.498950 0.499180 0.857030 -0.100184
O1    O     O_R   0.500020 0.316790 0.614690 -0.617667
O2    O     O_R   0.500000 0.316760 0.385350 -0.619125
O3    O     O_R   0.271760 0.500010 0.587850 -0.566456
O4    O     O_R   0.271740 0.499970 0.358500 -0.628660
O5    O     O_R   0.500000 0.683240 0.614650 -0.619876
O6    O     O_R   0.499980 0.683210 0.385310 -0.629519
O7    O     O_R   0.728260 0.500030 0.641500 -0.585533
O8    O     O_R   0.728240 0.499990 0.412150 -0.627959
Zn1   Zn    Zn3+2 0.500010 0.500020 0.653130 1.000868
Zn2   Zn    Zn3+2 0.499990 0.499980 0.346870 0.965926
Br1   Br    Br    0.050651 0.585173 0.738256 -0.443742
O9    O     O_3   0.270010 0.119980 0.297936 -0.766134
H12   H     H_    0.246754 0.205221 0.329096 0.331437
Br2   Br    Br    0.875460 0.879707 0.565107 -0.484985

loop_
_geom_bond_atom_site_label_1
_geom_bond_atom_site_label_2
_ccdc_geom_bond_type
O4    Zn2   S    
C7    C10   A    
C16   H1    S    
C14   O5    A    
C5    H8    S    
O8    Zn2   S    
O3    Zn1   S    
C19   C20   A    
O1    Zn1   S    
C4    C18   A    
O7    Zn1   S    
C2    C3    A    
C8    C9    A    
C17   Br1   S    
O9    H12   S    
C9    N2    A    
C11   C13   S    
C15   O8    A    
C2    H7    S    
C3    C14   S    
N2    Zn1   S    
C11   H3    S    
C5    Br2   S    
N1    Zn2   S    
C1    O1    A    
O5    Zn1   S    
C10   N2    A    
C5    C6    S    
C6    C18   S    
C15   O7    A    
C1    C19   S    
C12   O3    A    
C10   C11   S    
C13   H6    S    
C2    C20   A    
C3    C4    A    
C8    N1    A    
C12   C16   S    
C11   H4    S    
C7    C13   S    
C6    H9    S    
O2    Zn2   S    
C1    O2    A    
C9    H2    S    
C12   O4    A    
C15   C17   S    
C18   C19   A    
O6    Zn2   S    
C7    N1    A    
C6    H10   S    
C14   O6    A    
C8    H11   S    
C20   O9    S    
C16   C17   D    
C4    C5    S    
C13   H5    S    
