data_mof_unit_43347.cif
_audit_creation_date              2012-12-10T18:04:02-0500
_audit_creation_method            fapswitch 2.2
_symmetry_space_group_name_H-M    P1
_symmetry_Int_Tables_number       1
_space_group_crystal_system       triclinic
_cell_length_a                    11.052693
_cell_length_b                    9.655001
_cell_length_c                    11.11698
_cell_angle_alpha                 89.934546
_cell_angle_beta                  99.054592
_cell_angle_gamma                 90.207237
_cell_volume                      1171.54378951

loop_
_atom_site_label
_atom_site_type_symbol
_atom_type_description
_atom_site_fract_x
_atom_site_fract_y
_atom_site_fract_z
_atom_type_partial_charge
C1    C     C_R   0.261389 0.498528 0.495650 0.861298
C2    C     C_R   0.738836 0.499360 0.508665 0.864466
C3    C     C_R   0.421631 0.073601 0.415113 0.240725
C4    C     C_R   0.578125 0.074168 0.584970 0.250457
C5    C     C_R   0.425489 0.926056 0.412839 0.253973
C6    C     C_R   0.574815 0.926701 0.586909 0.235017
C7    C     C_R   0.498603 0.499550 0.262561 0.838600
C8    C     C_R   0.501593 0.499436 0.737411 0.825076
C9    C     C_R   0.495546 0.616153 0.060271 -0.056850
C10   C     C_R   0.506166 0.615969 0.939386 -0.058029
C11   C     C_R   0.497581 0.495739 0.129464 -0.100433
C12   C     C_R   0.502991 0.495521 0.870455 -0.100217
C13   C     C_R   0.502193 0.368816 0.064614 0.101771
C14   C     C_R   0.497755 0.368719 0.935480 0.099537
C15   C     C_3   0.511503 0.771111 0.932010 0.276419
C16   C     C_3   0.491535 0.771458 0.066688 0.275595
C17   C     C_R   0.066558 0.367998 0.524075 0.057658
C18   C     C_R   0.939325 0.368251 0.524651 0.134985
C19   C     C_R   0.874783 0.495138 0.518362 -0.245607
C20   C     C_R   0.126514 0.492162 0.494967 -0.269492
C21   C     C_R   0.942886 0.617216 0.514629 0.351324
C22   C     C_R   0.054268 0.612080 0.473746 0.356040
Cu1   Cu    Cu3+1 0.500000 0.640660 0.500000 0.995743
Cu2   Cu    Cu3+1 0.500000 0.359340 0.500000 0.953324
N1    N     N_R   0.500000 0.852070 0.500000 -0.228186
N2    N     N_R   0.500000 0.147940 0.500000 -0.222828
O1    O     O_R   0.319640 0.618740 0.499990 -0.541434
O2    O     O_R   0.680360 0.618740 0.500010 -0.545213
O3    O     O_R   0.319620 0.381170 0.499990 -0.622774
O4    O     O_R   0.680380 0.381170 0.500010 -0.569956
O5    O     O_R   0.499990 0.618810 0.319660 -0.595599
O6    O     O_R   0.500010 0.618810 0.680340 -0.599990
O7    O     O_R   0.499960 0.381240 0.319650 -0.568293
O8    O     O_R   0.500040 0.381240 0.680350 -0.576665
N3    N     N_3   0.515023 0.239588 0.129064 -0.557101
H1    H     H_    0.600294 0.197423 0.120788 0.235658
H2    H     H_    0.447011 0.171509 0.088831 0.204452
N4    N     N_3   0.484446 0.239430 0.871200 -0.564000
H3    H     H_    0.399039 0.196944 0.879539 0.230880
H4    H     H_    0.552312 0.171569 0.911351 0.206744
N5    N     N_3   0.632255 0.823355 0.915176 -0.540119
H5    H     H_    0.640551 0.926636 0.943598 0.236648
H6    H     H_    0.702498 0.766206 0.966385 0.245173
N6    N     N_3   0.371179 0.824332 0.082901 -0.541039
H7    H     H_    0.363826 0.927484 0.053988 0.234666
H8    H     H_    0.300510 0.767140 0.031904 0.246413
N7    N     N_3   0.411039 0.833780 0.846878 -0.576922
H9    H     H_    0.336259 0.765864 0.830729 0.232726
H10   H     H_    0.438895 0.850292 0.762811 0.283409
N8    N     N_3   0.592365 0.834272 0.151665 -0.573453
H11   H     H_    0.667070 0.766781 0.167172 0.237881
H12   H     H_    0.564926 0.849657 0.236040 0.285993
N9    N     N_3   0.129519 0.239103 0.550349 -0.560444
H13   H     H_    0.164389 0.205691 0.473454 0.262743
H14   H     H_    0.198944 0.251254 0.625142 0.262232
N10   N     N_3   0.877676 0.239396 0.536812 -0.526740
H15   H     H_    0.891378 0.175674 0.464210 0.249037
H16   H     H_    0.916917 0.192306 0.618366 0.258477
S1    S     S_3+6 0.918249 0.763165 0.601212 0.005282
O9    O     O_2   0.875476 0.714690 0.715900 -0.341784
O10   O     O_2   0.035218 0.843540 0.636453 -0.264778
O11   O     O_3   0.814715 0.863825 0.515714 -0.524499
H17   H     H_    0.837677 0.959667 0.540934 0.362132
S2    S     S_3+6 0.079270 0.743088 0.370735 0.008941
O12   O     O_2   0.137479 0.682117 0.269626 -0.337707
O13   O     O_2   0.958788 0.806096 0.315821 -0.276028
O14   O     O_3   0.167354 0.865662 0.448592 -0.524588
H18   H     H_    0.125848 0.954614 0.425185 0.375527
N11   N     N_3   0.331001 0.141048 0.327996 -0.610299
H19   H     H_    0.333163 0.247269 0.336262 0.284625
H20   H     H_    0.349440 0.119110 0.241068 0.220706
N12   N     N_3   0.668487 0.142102 0.672395 -0.589619
H21   H     H_    0.666003 0.248372 0.664873 0.292586
H22   H     H_    0.650530 0.118490 0.759277 0.216136
N13   N     N_3   0.358097 0.855375 0.311492 -0.528492
H23   H     H_    0.274978 0.903934 0.280265 0.281138
H24   H     H_    0.336270 0.757804 0.338419 0.331214
N14   N     N_3   0.646294 0.857173 0.686413 -0.532167
H25   H     H_    0.731229 0.905353 0.709983 0.281510
H26   H     H_    0.664136 0.757618 0.661509 0.326411

loop_
_geom_bond_atom_site_label_1
_geom_bond_atom_site_label_2
_ccdc_geom_bond_type
N5    H6    S    
N5    H5    S    
N3    H1    S    
C15   N7    S    
N7    H10   S    
N9    H13   S    
C7    C11   S    
C3    N11   S    
C9    C16   S    
Cu2   N2    S    
C21   S1    S    
C10   C15   S    
N4    H3    S    
N14   H26   S    
C6    N14   S    
C6    N1    A    
C15   C16   S    
C17   C20   A    
N10   H15   S    
C18   C19   A    
N11   H20   S    
Cu2   O3    S    
C1    C20   S    
N8    H12   S    
Cu1   Cu2   S    
Cu1   O1    S    
C9    C10   A    
C16   N6    S    
C18   N10   S    
S1    O9    D    
C21   C22   A    
C7    O7    A    
N6    H8    S    
N8    H11   S    
N9    H14   S    
S1    O10   D    
C7    O5    A    
O14   H18   S    
C8    O6    A    
S2    O14   S    
C15   N5    S    
C4    C6    A    
N14   H25   S    
Cu2   O8    S    
Cu1   O5    S    
C5    N13   S    
N13   H23   S    
O11   H17   S    
C14   N4    S    
N13   H24   S    
N7    H9    S    
C8    C12   S    
C1    O3    A    
C17   C18   A    
C8    O8    A    
Cu1   O2    S    
C9    C11   A    
C10   C12   A    
C5    N1    A    
N12   H22   S    
C12   C14   A    
C20   C22   A    
C17   N9    S    
C4    N12   S    
N6    H7    S    
N3    H2    S    
S1    O11   S    
C19   C21   A    
C2    C19   S    
C3    N2    A    
C16   N8    S    
N12   H21   S    
C3    C5    A    
C4    N2    A    
C13   N3    S    
Cu2   O7    S    
C2    O4    A    
Cu1   O6    S    
S2    O12   D    
N4    H4    S    
C11   C13   A    
N10   H16   S    
Cu1   N1    S    
N11   H19   S    
Cu2   O4    S    
C22   S2    S    
C1    O1    A    
C2    O2    A    
C13   C14   A    
S2    O13   D    
