data_mof_unit_23359.cif
_audit_creation_date              2012-12-11T14:45:59-0500
_audit_creation_method            fapswitch 2.2
_symmetry_space_group_name_H-M    P1
_symmetry_Int_Tables_number       1
_space_group_crystal_system       triclinic
_cell_length_a                    11.205254
_cell_length_b                    11.125847
_cell_length_c                    18.775394
_cell_angle_alpha                 90.092525
_cell_angle_beta                  90.872693
_cell_angle_gamma                 119.806513
_cell_volume                      2030.68802193

loop_
_atom_site_label
_atom_site_type_symbol
_atom_type_description
_atom_site_fract_x
_atom_site_fract_y
_atom_site_fract_z
_atom_type_partial_charge
C1    C     C_R   0.869780 0.635584 0.604768 0.542625
C2    C     C_R   0.460251 0.639264 0.770707 -0.186559
C3    C     C_R   0.419385 0.617127 0.699708 0.207511
C4    C     C_R   0.339409 0.673684 0.673250 0.004259
C5    C     C_R   0.820879 0.150392 0.819859 0.022325
C6    C     C_R   0.067949 0.291621 0.838985 -0.156125
C7    C     C_R   0.198794 0.333986 0.814758 -0.190193
C8    C     C_R   0.216012 0.301965 0.745686 -0.110824
C9    C     C_R   0.102890 0.239038 0.696851 0.353691
C10   C     C_R   0.971430 0.210974 0.719525 0.064819
C11   C     C_R   0.953274 0.219193 0.793109 -0.018171
C12   C     C_R   0.267936 0.629487 0.604431 0.543752
C13   C     C_R   0.721367 0.088720 0.698748 -0.032786
C14   C     C_R   0.705624 0.108005 0.771312 -0.051287
C15   C     C_R   0.606230 0.031271 0.650205 0.287839
C16   C     C_R   0.505104 0.067735 0.664682 0.345920
C17   C     C_R   0.494444 0.105515 0.734645 -0.106093
C18   C     C_R   0.585499 0.112537 0.788612 -0.129405
C19   C     C_R   0.854525 0.161321 0.672230 0.030375
C20   C     C_R   0.757995 0.541634 0.718453 -0.166350
C21   C     C_R   0.740646 0.560804 0.789865 0.205167
C22   C     C_R   0.786954 0.695829 0.815573 -0.028510
C23   C     C_R   0.867602 0.232991 0.603942 0.580676
C24   C     C_R   0.850110 0.809522 0.769573 0.215745
C25   C     C_R   0.858723 0.789487 0.696964 0.225003
C26   C     C_R   0.822731 0.655777 0.672936 -0.085429
C27   C     C_R   0.278659 0.542257 0.277053 0.282268
C28   C     C_R   0.286479 0.560391 0.204610 -0.109124
C29   C     C_R   0.351507 0.693037 0.176444 -0.014701
C30   C     C_R   0.400573 0.809016 0.221958 -0.099327
C31   C     C_R   0.383024 0.790613 0.295340 -0.142212
C32   C     C_R   0.316874 0.657335 0.323067 0.055007
C33   C     C_R   0.722820 0.153464 0.286605 0.267461
C34   C     C_R   0.898363 0.616741 0.390057 0.595013
C35   C     C_R   0.729979 0.166907 0.213220 0.221851
C36   C     C_R   0.836131 0.159315 0.176174 -0.013110
C37   C     C_R   0.946855 0.164121 0.214093 0.217381
C38   C     C_R   0.946984 0.168600 0.288884 -0.156500
C39   C     C_R   0.837707 0.167737 0.324924 -0.054730
C40   C     C_R   0.977652 0.686611 0.268633 0.269904
C41   C     C_R   0.951178 0.686463 0.196099 0.259369
C42   C     C_R   0.818049 0.653667 0.173560 -0.037734
C43   C     C_R   0.709984 0.604280 0.222032 -0.229484
C44   C     C_R   0.734752 0.589068 0.292958 -0.229831
C45   C     C_R   0.269341 0.631447 0.396389 0.540631
C46   C     C_R   0.868483 0.629945 0.316264 -0.009102
C47   C     C_R   0.799278 0.096795 0.893665 0.540684
C48   C     C_R   0.456321 0.722573 0.890211 0.555760
C49   C     C_R   0.776228 0.724592 0.890161 0.573403
C50   C     C_R   0.806515 0.106466 0.102594 0.554957
C51   C     C_R   0.400146 0.706799 0.104199 0.529386
C52   C     C_R   0.797194 0.695903 0.104155 0.554633
C53   C     C_R   0.860361 0.226873 0.396805 0.569438
C54   C     C_R   0.303591 0.751863 0.717408 0.220182
C55   C     C_R   0.329147 0.755759 0.791241 0.259220
C56   C     C_R   0.416563 0.708539 0.815994 -0.043214
Cr1   Cr    Cr6+3 0.791660 0.390250 0.499930 0.961855
Cr2   Cr    Cr6+3 0.098520 0.708290 0.500540 1.038817
Cr3   Cr    Cr6+3 0.109770 0.401430 0.499480 1.040397
Cr4   Cr    Cr6+3 0.874790 0.925890 0.000070 1.026698
Cr5   Cr    Cr6+3 0.574120 0.948670 0.999300 1.041837
Cr6   Cr    Cr6+3 0.551420 0.625320 0.000920 1.004862
O1    O     O_R   0.766500 0.250040 0.579790 -0.514703
O2    O     O_R   0.218690 0.701900 0.425960 -0.509816
O3    O     O_R   0.249490 0.516440 0.419420 -0.493964
O4    O     O_R   0.982880 0.281910 0.424890 -0.493825
O5    O     O_3   0.999980 0.499990 0.499980 -0.289731
O6    O     O_R   0.895110 0.806860 0.920430 -0.533683
O7    O     O_R   0.872260 0.046970 0.925000 -0.489101
O8    O     O_R   0.691430 0.085060 0.918550 -0.563294
O9    O     O_R   0.451490 0.822460 0.925250 -0.443486
O10   O     O_R   0.413330 0.603360 0.920440 -0.547443
O11   O     O_R   0.676110 0.626250 0.926750 -0.481000
O12   O     O_R   0.798570 0.516780 0.574780 -0.549664
O13   O     O_R   0.895350 0.809870 0.080950 -0.476430
O14   O     O_R   0.872490 0.049760 0.073800 -0.468204
O15   O     O_R   0.691680 0.088070 0.079070 -0.483163
O16   O     O_R   0.451720 0.825250 0.074050 -0.484671
O17   O     O_R   0.413580 0.606370 0.080960 -0.532056
O18   O     O_R   0.676340 0.629040 0.075550 -0.520110
O19   O     O_3   0.666780 0.833290 0.000090 -0.312307
O20   O     O_R   0.984000 0.732950 0.581090 -0.462167
O21   O     O_R   0.218600 0.700890 0.574760 -0.464585
O22   O     O_R   0.249390 0.515350 0.579940 -0.492124
O23   O     O_R   0.982790 0.280900 0.573700 -0.459804
O24   O     O_R   0.766600 0.251130 0.419260 -0.487436
O25   O     O_R   0.798660 0.517790 0.425980 -0.538547
O26   O     O_R   0.984100 0.734040 0.420570 -0.506903
O27   O     O_3   0.255766 0.829594 0.682755 -0.533565
C57   C     C_3   0.167076 0.855264 0.721194 -0.046454
H1    H     H_    0.226135 0.934808 0.761869 0.136637
H2    H     H_    0.080076 0.758620 0.741896 0.114461
H3    H     H_    0.127275 0.902592 0.683962 0.212748
O28   O     O_3   0.414853 0.065501 0.612557 -0.586336
C58   C     C_3   0.485631 0.171562 0.562471 -0.098981
H4    H     H_    0.543163 0.144313 0.524574 0.204543
H5    H     H_    0.551749 0.273634 0.588963 0.134514
H6    H     H_    0.410781 0.181933 0.527770 0.048635
O29   O     O_3   0.630250 0.003682 0.580632 -0.605324
C59   C     C_3   0.521558 0.889693 0.546566 -0.112729
H7    H     H_    0.426626 0.895555 0.544409 0.211885
H8    H     H_    0.510663 0.795176 0.570173 0.086455
H9    H     H_    0.550237 0.888713 0.490373 0.124795
H10   H     H_    0.418044 0.134189 0.747132 0.108643
H11   H     H_    0.728711 0.438087 0.699904 0.158285
O30   O     O_3   0.680533 0.447310 0.834012 -0.552737
C60   C     C_3   0.785945 0.433658 0.868347 -0.119764
H12   H     H_    0.738499 0.344714 0.904994 0.151429
H13   H     H_    0.854194 0.525996 0.901645 0.116241
H14   H     H_    0.847398 0.413561 0.829084 0.098870
O31   O     O_3   0.906158 0.942076 0.796563 -0.542018
C61   C     C_3   0.044554 0.989891 0.817164 -0.058178
H15   H     H_    0.111643 0.045336 0.772735 0.108223
H16   H     H_    0.066052 0.907767 0.835676 0.116309
H17   H     H_    0.073538 0.062256 0.862813 0.167924
O32   O     O_3   0.927102 0.904895 0.654086 -0.540860
C62   C     C_3   0.840448 0.900796 0.598009 -0.059075
H18   H     H_    0.746544 0.892056 0.620246 0.147499
H19   H     H_    0.814253 0.816428 0.558889 0.101230
H20   H     H_    0.893310 0.998114 0.567636 0.194145
O33   O     O_3   0.227790 0.409375 0.301896 -0.535768
C63   C     C_3   0.338668 0.384129 0.310904 -0.118129
H21   H     H_    0.419466 0.461853 0.347339 0.109942
H22   H     H_    0.383116 0.381440 0.258730 0.105188
H23   H     H_    0.300246 0.281645 0.336113 0.102421
H24   H     H_    0.250962 0.469593 0.170657 0.178822
H25   H     H_    0.455340 0.912847 0.201162 0.199283
O34   O     O_3   0.267037 0.801033 0.839296 -0.570208
C64   C     C_3   0.151852 0.684523 0.868217 -0.134235
H26   H     H_    0.183610 0.630632 0.907344 0.153065
H27   H     H_    0.084428 0.609370 0.826355 0.081809
H28   H     H_    0.090019 0.720873 0.897127 0.144675
H29   H     H_    0.417090 0.878494 0.330603 0.169147
O35   O     O_3   0.600315 0.114358 0.321633 -0.571252
C65   C     C_3   0.559173 0.215298 0.316605 -0.072744
H30   H     H_    0.480881 0.187304 0.273378 0.136213
H31   H     H_    0.646711 0.321536 0.309294 0.140000
H32   H     H_    0.509267 0.215972 0.367074 0.099386
O36   O     O_3   0.626216 0.178093 0.178254 -0.552530
C66   C     C_3   0.681407 0.314379 0.152669 -0.115853
H33   H     H_    0.735403 0.327469 0.101747 0.130399
H34   H     H_    0.753632 0.392352 0.191944 0.092357
H35   H     H_    0.595755 0.335415 0.142493 0.144085
O37   O     O_3   0.060124 0.182276 0.176474 -0.549013
C67   C     C_3   0.097182 0.083400 0.196419 -0.075751
H36   H     H_    0.158232 0.073691 0.153130 0.165123
H37   H     H_    0.006155 0.978803 0.204376 0.133017
H38   H     H_    0.163829 0.119672 0.244761 0.081803
H39   H     H_    0.033998 0.177788 0.319039 0.181723
O38   O     O_3   0.110971 0.743862 0.293777 -0.539009
C68   C     C_3   0.166531 0.888490 0.301863 -0.079795
H40   H     H_    0.089112 0.919556 0.315791 0.085968
H41   H     H_    0.221585 0.940937 0.252810 0.135817
H42   H     H_    0.242286 0.926331 0.346649 0.135886
O39   O     O_3   0.058939 0.732191 0.149144 -0.537799
C69   C     C_3   0.041054 0.618337 0.107545 -0.101009
H43   H     H_    0.947705 0.576676 0.072643 0.090403
H44   H     H_    0.036684 0.534352 0.141530 0.112411
H45   H     H_    0.130090 0.653733 0.071943 0.146058
H46   H     H_    0.607632 0.581211 0.205469 0.151255
H47   H     H_    0.651274 0.550468 0.330087 0.124423
H48   H     H_    0.515660 0.590900 0.792192 0.162814
O40   O     O_3   0.431819 0.515547 0.663222 -0.576113
C70   C     C_3   0.527034 0.570909 0.608159 -0.121077
H49   H     H_    0.613604 0.672265 0.622784 0.093851
H50   H     H_    0.479236 0.577127 0.557369 0.133052
H51   H     H_    0.566670 0.499433 0.597947 0.138836
H52   H     H_    0.285577 0.379588 0.851440 0.172769
H53   H     H_    0.316462 0.318094 0.733338 0.160170
H54   H     H_    0.056046 0.308974 0.894568 0.122413
O41   O     O_3   0.107944 0.185226 0.630801 -0.540972
C71   C     C_3   0.225590 0.176024 0.618855 -0.061126
H55   H     H_    0.201719 0.104181 0.573070 0.166120
H56   H     H_    0.252074 0.131016 0.664708 0.126091
H57   H     H_    0.312122 0.278803 0.604735 0.158456
H58   H     H_    0.569983 0.142842 0.840614 0.187980

loop_
_geom_bond_atom_site_label_1
_geom_bond_atom_site_label_2
_ccdc_geom_bond_type
Cr5   O8    S    
C65   H32   S    
C7    H52   S    
C49   O6    A    
C55   O34   S    
C62   H18   S    
C41   C42   A    
C14   C18   A    
C58   H4    S    
C66   H35   S    
C31   H29   S    
C52   O13   A    
O34   C64   S    
C2    H48   S    
C61   H16   S    
C67   H36   S    
C27   O33   S    
C58   H6    S    
C65   H30   S    
C39   C53   S    
Cr1   O24   S    
C40   C46   A    
C5    C47   S    
C70   H50   S    
C33   C39   A    
C1    O12   A    
Cr6   O18   S    
C28   C29   A    
C37   O37   S    
C17   H10   S    
C66   H34   S    
C5    C11   A    
C62   H19   S    
Cr3   O4    S    
C6    H54   S    
C38   C39   A    
O30   C60   S    
C15   C16   A    
O32   C62   S    
C12   O22   A    
C48   C56   S    
C32   C45   S    
C68   H42   S    
C47   O7    A    
Cr3   O5    S    
C30   H25   S    
C33   O35   S    
O40   C70   S    
Cr5   O15   S    
C16   C17   A    
C71   H56   S    
C68   H40   S    
Cr6   O11   S    
C53   O24   A    
C34   C46   S    
C4    C12   S    
C29   C30   A    
C9    C10   A    
Cr5   O16   S    
C38   H39   S    
C21   O30   S    
C71   H57   S    
C3    O40   S    
C64   H28   S    
C35   O36   S    
Cr5   O9    S    
C23   O1    A    
C13   C14   A    
C60   H13   S    
C24   O31   S    
Cr1   O5    S    
C61   H15   S    
C67   H37   S    
C44   C46   A    
Cr1   O1    S    
C69   H45   S    
Cr2   O2    S    
C13   C19   A    
Cr6   O10   S    
Cr6   O17   S    
C7    C8    A    
C66   H33   S    
C54   O27   S    
C43   H46   S    
C62   H20   S    
C6    C11   A    
C8    C9    A    
C1    O20   A    
Cr4   O14   S    
C59   H9    S    
Cr1   O25   S    
C12   O21   A    
C35   C36   A    
C69   H43   S    
Cr1   O12   S    
C19   C23   S    
C43   C44   A    
Cr3   O23   S    
C47   O8    A    
C37   C38   A    
C50   O14   A    
Cr4   O19   S    
C57   H2    S    
C31   C32   A    
C10   C19   A    
C60   H12   S    
C55   C56   A    
C59   H8    S    
C17   C18   A    
O33   C63   S    
C40   O38   S    
C34   O26   A    
C24   C25   A    
C53   O4    A    
O41   C71   S    
C5    C14   A    
O35   C65   S    
C2    C56   A    
C22   C49   S    
C40   C41   A    
Cr6   O19   S    
C13   C15   A    
C45   O3    A    
C1    C26   S    
C60   H14   S    
C22   C24   A    
C9    O41   S    
C42   C43   A    
C48   O10   A    
C48   O9    A    
C63   H22   S    
C3    C4    A    
O27   C57   S    
C50   O15   A    
O39   C69   S    
C67   H38   S    
C36   C50   S    
C8    H53   S    
C57   H3    S    
C64   H26   S    
C29   C51   S    
C65   H31   S    
C54   C55   A    
C70   H49   S    
C45   O2    A    
O31   C61   S    
C4    C54   A    
C27   C32   A    
C20   H11   S    
C70   H51   S    
C15   O29   S    
O37   C67   S    
Cr2   O26   S    
O36   C66   S    
C58   H5    S    
C25   O32   S    
C6    C7    A    
C28   H24   S    
Cr4   O13   S    
C16   O28   S    
Cr3   O22   S    
O29   C59   S    
C63   H23   S    
Cr2   O20   S    
C2    C3    A    
C25   C26   A    
C51   O16   A    
C23   O23   A    
C52   O18   A    
Cr2   O21   S    
Cr3   O3    S    
C57   H1    S    
C30   C31   A    
C20   C26   A    
Cr4   O7    S    
C69   H44   S    
C59   H7    S    
C33   C35   A    
C49   O11   A    
C34   O25   A    
C68   H41   S    
O28   C58   S    
C51   O17   A    
C10   C11   A    
C71   H55   S    
Cr2   O5    S    
C20   C21   A    
Cr4   O6    S    
C36   C37   A    
C44   H47   S    
C27   C28   A    
O38   C68   S    
Cr5   O19   S    
C64   H27   S    
C63   H21   S    
C21   C22   A    
C61   H17   S    
C42   C52   S    
C41   O39   S    
C18   H58   S    
