data_mof_unit_61015.cif
_audit_creation_date              2012-12-10T18:14:24-0500
_audit_creation_method            fapswitch 2.2
_symmetry_space_group_name_H-M    P1
_symmetry_Int_Tables_number       1
_space_group_crystal_system       triclinic
_cell_length_a                    42.310166
_cell_length_b                    29.205615
_cell_length_c                    30.593379
_cell_angle_alpha                 90.003597
_cell_angle_beta                  136.346053
_cell_angle_gamma                 89.997297
_cell_volume                      26096.1888481

loop_
_atom_site_label
_atom_site_type_symbol
_atom_type_description
_atom_site_fract_x
_atom_site_fract_y
_atom_site_fract_z
_atom_type_partial_charge
C1    C     C_R   0.586687 0.500000 0.587106 0.907153
C2    C     C_1   0.999393 0.999918 0.334296 -0.035119
C3    C     C_3   0.526224 0.543500 0.249041 -0.046295
C4    C     C_3   0.009244 0.948981 0.231805 -0.056813
C5    C     C_3   0.037460 0.033883 0.259880 -0.040301
C6    C     C_1   0.500191 0.499945 0.120780 -0.214741
C7    C     C_1   0.000230 0.999404 0.120835 -0.219618
C8    C     C_3   0.498234 0.499999 0.287113 0.245867
C9    C     C_3   0.999415 0.999795 0.288247 0.276787
C10   C     C_3   0.500897 0.499863 0.205670 0.234635
C11   C     C_3   0.001339 0.998594 0.206160 0.290314
C12   C     C_1   0.499107 0.499997 0.372160 -0.202435
C13   C     C_1   0.999587 0.999983 0.372611 -0.194740
C14   C     C_1   0.637269 0.500000 0.637586 -0.222883
C15   C     C_1   0.137269 1.000000 0.637585 -0.222848
C16   C     C_1   0.679407 0.500000 0.679643 0.003471
C17   C     C_1   0.179407 1.000000 0.679642 0.003587
C18   C     C_1   0.729142 0.500000 0.729290 0.006080
C19   C     C_1   0.229142 1.000000 0.729289 0.006302
C20   C     C_1   0.771279 0.500000 0.771362 0.005888
C21   C     C_R   0.086687 1.000000 0.587105 0.906628
C22   C     C_1   0.271279 1.000000 0.771361 0.006147
C23   C     C_1   0.821014 0.500000 0.821035 0.004102
C24   C     C_1   0.321014 1.000000 0.821034 0.004364
C25   C     C_R   0.500020 0.499999 0.417709 0.951795
C26   C     C_R   0.999891 0.999998 0.417573 0.949921
C27   C     C_1   0.863152 0.500000 0.863142 -0.214554
C28   C     C_1   0.363152 0.000000 0.863142 -0.214276
C29   C     C_1   0.499973 0.500003 0.636033 -0.221864
C30   C     C_1   0.999973 0.000003 0.636033 -0.221585
C31   C     C_1   0.499975 0.500004 0.677208 0.015870
C32   C     C_3   0.450141 0.503250 0.169988 -0.512306
C33   C     C_1   0.999975 0.000003 0.677208 0.016026
C34   C     C_1   0.499978 0.500003 0.726214 0.003178
C35   C     C_1   0.999978 0.000003 0.726214 0.003386
C36   C     C_1   0.499981 0.500002 0.767390 0.003182
C37   C     C_1   0.999981 0.000002 0.767390 0.003400
C38   C     C_1   0.499987 0.500001 0.816398 0.015658
C39   C     C_1   0.999987 0.000001 0.816398 0.015871
C40   C     C_1   0.499995 0.500001 0.857579 -0.220970
C41   C     C_1   0.999995 0.000001 0.857579 -0.220861
C42   C     C_1   0.362676 0.500000 0.362978 -0.221371
C43   C     C_3   0.953221 0.014505 0.173386 -0.579331
C44   C     C_1   0.862676 0.000000 0.362982 -0.219777
C45   C     C_1   0.320540 0.500000 0.320785 0.004805
C46   C     C_1   0.820540 0.000000 0.320788 0.005269
C47   C     C_1   0.270809 0.500000 0.270998 0.007027
C48   C     C_1   0.770809 0.000001 0.271002 0.007014
C49   C     C_R   0.413255 0.500000 0.413641 0.909327
C50   C     C_R   0.913255 1.000000 0.413643 0.911065
C51   C     C_1   0.228674 0.500000 0.228824 0.006535
C52   C     C_1   0.728674 0.000000 0.228827 0.006431
C53   C     C_1   0.178942 0.500000 0.179052 0.004539
C54   C     C_3   0.447550 0.501372 0.218240 0.255132
C55   C     C_1   0.678942 0.000000 0.179053 0.004442
C56   C     C_1   0.136806 0.500000 0.136884 -0.214250
C57   C     C_1   0.636806 0.000000 0.136885 -0.214251
C58   C     C_R   0.500031 0.586641 0.994576 0.907917
C59   C     C_R   0.500031 0.413359 0.994578 0.907091
C60   C     C_R   0.000031 0.086641 0.994574 0.907261
C61   C     C_R   0.000031 0.913359 0.994580 0.907006
C62   C     C_R   0.500046 0.500019 0.075996 0.954750
C63   C     C_R   0.000049 0.000128 0.076007 0.954001
C64   C     C_R   0.500014 0.500000 0.907485 0.892506
C65   C     C_3   0.951027 0.014674 0.222048 0.264593
C66   C     C_R   0.000014 1.000000 0.907485 0.892782
C67   C     C_R   0.000015 0.413724 0.999132 0.897564
C68   C     C_R   0.000015 0.586276 0.999135 0.897466
C69   C     C_R   0.500015 0.913724 0.999132 0.897444
C70   C     C_R   0.500015 0.086276 0.999135 0.897523
C71   C     C_R   0.913735 0.500000 0.913734 0.897634
C72   C     C_R   0.413735 1.000000 0.913734 0.897643
C73   C     C_R   0.086227 0.500000 0.086268 0.897749
C74   C     C_R   0.586227 1.000000 0.086268 0.897689
C75   C     C_1   0.500042 0.637229 0.995416 -0.222832
C76   C     C_1   0.500576 0.499879 0.159282 -0.114919
C77   C     C_1   0.500042 0.362772 0.995421 -0.223353
C78   C     C_1   0.000042 0.137229 0.995414 -0.223327
C79   C     C_1   0.000043 0.862772 0.995425 -0.224773
C80   C     C_R   0.499971 0.500001 0.586146 0.891917
C81   C     C_R   0.999972 0.000001 0.586146 0.891540
C82   C     C_1   0.500044 0.679368 0.996160 0.003973
C83   C     C_1   0.500045 0.320633 0.996167 0.003848
C84   C     C_1   0.000044 0.179368 0.996157 0.003507
C85   C     C_1   0.000045 0.820633 0.996172 0.002490
C86   C     C_1   0.500042 0.729106 0.997041 0.006343
C87   C     C_1   0.000758 0.998832 0.159482 -0.108466
C88   C     C_1   0.500043 0.270894 0.997050 0.006431
C89   C     C_1   0.000042 0.229106 0.997038 0.006038
C90   C     C_1   0.000043 0.770894 0.997054 0.005243
C91   C     C_1   0.000038 0.271245 0.997747 0.005918
C92   C     C_1   0.000039 0.728756 0.997762 0.005300
C93   C     C_1   0.500038 0.771245 0.997749 0.006077
C94   C     C_1   0.500039 0.228756 0.997759 0.006234
C95   C     C_1   0.000031 0.320986 0.998485 0.004319
C96   C     C_1   0.000032 0.679014 0.998498 0.003876
C97   C     C_1   0.500032 0.820986 0.998486 0.004380
C98   C     C_1   0.498425 0.499992 0.333368 -0.075575
C99   C     C_1   0.500032 0.179014 0.998496 0.004558
C100  C     C_1   0.000025 0.363130 0.998943 -0.214355
C101  C     C_1   0.000025 0.636871 0.998952 -0.214677
C102  C     C_1   0.500025 0.863129 0.998943 -0.214311
C103  C     C_1   0.500025 0.136871 0.998951 -0.214158
C104  C     C_3   0.525643 0.542398 0.298869 -0.438419
C105  C     C_3   0.524330 0.456804 0.297094 -0.445840
C106  C     C_3   0.037442 0.032780 0.310207 -0.452338
C107  C     C_3   0.012393 0.951035 0.285249 -0.463463
C108  C     C_3   0.519996 0.453352 0.242807 -0.047945
H1    H     H_    0.561018 0.541069 0.347808 0.181830
H2    H     H_    0.506128 0.574067 0.218579 0.158617
H3    H     H_    0.979022 0.927493 0.192742 0.133591
H4    H     H_    0.026566 0.068830 0.238665 0.148684
H5    H     H_    0.434450 0.535347 0.141506 0.166246
H6    H     H_    0.429583 0.474994 0.134738 0.185546
H7    H     H_    0.945670 0.049187 0.152465 0.173760
H8    H     H_    0.926339 0.991667 0.132589 0.176162
H9    H     H_    0.597142 0.531709 0.320640 0.189140
H10   H     H_    0.575384 0.542450 0.248388 0.200065
H11   H     H_    0.588765 0.461909 0.294806 0.194507
H12   H     H_    0.561044 0.459100 0.343487 0.192955
H13   H     H_    0.557941 0.431216 0.227646 0.194195
H14   H     H_    0.097344 0.995621 0.313374 0.231920
H15   H     H_    0.084058 0.027538 0.255523 0.200490
H16   H     H_    0.044480 0.920797 0.215370 0.190437
H17   H     H_    0.053922 0.894889 0.272374 0.187340
H18   H     H_    0.388742 0.539787 0.166983 0.200940
H19   H     H_    0.435803 0.571871 0.209100 0.166357
H20   H     H_    0.435642 0.430572 0.206854 0.170032
H21   H     H_    0.420861 0.457621 0.238872 0.198148
H22   H     H_    0.960115 0.085575 0.232707 0.167047
H23   H     H_    0.071301 0.021170 0.356713 0.189015
H24   H     H_    0.905869 0.068999 0.183482 0.180929
H25   H     H_    0.883301 0.994302 0.160215 0.180089
H26   H     H_    0.919398 0.950569 0.190864 0.167619
H27   H     H_    0.047784 0.942615 0.331675 0.190780
H28   H     H_    0.510936 0.425061 0.299220 0.162009
H29   H     H_    0.510804 0.574733 0.296943 0.168016
H30   H     H_    0.989911 0.924434 0.277455 0.162479
H31   H     H_    0.032773 0.067923 0.318767 0.165140
H32   H     H_    0.494210 0.426197 0.209940 0.153176
N1    N     N_3   0.572951 0.550684 0.279078 -0.461362
N2    N     N_3   0.562999 0.437620 0.265973 -0.457531
N3    N     N_3   0.084093 0.026950 0.289704 -0.455449
N4    N     N_3   0.050169 0.927177 0.254248 -0.467739
N5    N     N_3   0.423172 0.541902 0.210691 -0.446935
N6    N     N_3   0.421337 0.460484 0.205291 -0.457685
N7    N     N_3   0.939283 0.060842 0.226458 -0.440396
N8    N     N_3   0.915596 0.982471 0.202080 -0.441744
O1    O     O_R   0.563110 0.535630 0.563620 -0.597470
O2    O     O_R   0.500010 0.063160 0.964010 -0.593294
O3    O     O_R   0.000000 0.436830 0.034310 -0.594432
O4    O     O_R   1.000000 0.563170 0.034310 -0.594668
O5    O     O_R   0.500000 0.936830 0.034310 -0.594236
O6    O     O_R   0.500000 0.063170 0.034310 -0.594220
O7    O     O_R   0.936840 0.500000 0.901700 -0.593314
O8    O     O_R   0.436840 1.000000 0.901700 -0.593364
O9    O     O_R   0.936840 0.500000 0.972000 -0.594470
O10   O     O_R   0.436840 1.000000 0.972000 -0.594272
O11   O     O_R   0.063130 0.500000 0.028000 -0.593084
O12   O     O_R   0.563110 0.464370 0.563620 -0.597247
O13   O     O_R   0.563130 1.000000 0.028000 -0.593417
O14   O     O_R   0.063120 0.500000 0.098300 -0.594404
O15   O     O_R   0.563120 0.000000 0.098300 -0.594122
O16   O     O_R   0.499970 0.535640 0.438200 -0.611066
O17   O     O_R   0.499970 0.464360 0.438200 -0.616906
O18   O     O_R   0.999970 0.035640 0.438200 -0.611068
O19   O     O_R   0.999970 0.964360 0.438200 -0.615542
O20   O     O_R   0.436830 0.535630 0.437320 -0.596242
O21   O     O_R   0.436830 0.464370 0.437320 -0.597589
O22   O     O_R   0.936830 0.035630 0.437320 -0.596240
O23   O     O_R   0.063110 0.035630 0.563620 -0.597301
O24   O     O_R   0.936830 0.964370 0.437320 -0.597074
O25   O     O_R   0.499970 0.535630 0.562740 -0.592200
O26   O     O_R   0.499970 0.464370 0.562740 -0.591929
O27   O     O_R   0.999970 0.035630 0.562740 -0.592227
O28   O     O_R   0.999970 0.964370 0.562740 -0.592229
O29   O     O_R   0.535670 0.563060 0.029670 -0.596748
O30   O     O_R   0.535670 0.436940 0.029670 -0.597278
O31   O     O_R   0.035670 0.063060 0.029670 -0.596769
O32   O     O_R   0.035670 0.936940 0.029670 -0.596904
O33   O     O_R   0.464380 0.563080 0.958370 -0.597167
O34   O     O_R   0.063110 0.964370 0.563620 -0.597762
O35   O     O_R   0.464380 0.436920 0.958370 -0.596847
O36   O     O_R   0.964380 0.063080 0.958370 -0.597326
O37   O     O_R   0.964380 0.936920 0.958370 -0.597147
O38   O     O_R   0.535670 0.500000 0.091080 -0.616505
O39   O     O_R   0.035670 1.000000 0.091080 -0.614737
O40   O     O_R   0.464370 0.500000 0.019780 -0.611306
O41   O     O_R   0.964370 1.000000 0.019780 -0.612525
O42   O     O_R   0.535670 0.500000 0.966540 -0.592944
O43   O     O_R   0.035670 1.000000 0.966540 -0.592794
O44   O     O_R   0.464380 0.500000 0.895240 -0.593093
O45   O     O_R   0.964380 1.000000 0.895240 -0.593016
O46   O     O_R   0.000010 0.436840 0.964010 -0.593132
O47   O     O_R   0.000010 0.563160 0.964010 -0.593093
O48   O     O_R   0.500010 0.936840 0.964010 -0.593371
Zn1   Zn    Zn3+2 0.499970 0.547590 0.500630 0.968846
Zn2   Zn    Zn3+2 0.499990 1.000000 0.953050 0.969791
Zn3   Zn    Zn3+2 0.999980 0.500000 0.046950 0.965415
Zn4   Zn    Zn3+2 0.499980 0.000000 0.046950 0.966647
Zn5   Zn    Zn3+2 0.499970 0.452410 0.500630 0.965516
Zn6   Zn    Zn3+2 0.999970 0.047590 0.500630 0.970313
Zn7   Zn    Zn3+2 0.999970 0.952410 0.500630 0.966750
Zn8   Zn    Zn3+2 0.547630 0.500000 0.040770 0.963979
Zn9   Zn    Zn3+2 0.047630 0.000000 0.040770 0.965057
Zn10  Zn    Zn3+2 0.452420 0.500000 0.945550 0.966452
Zn11  Zn    Zn3+2 0.952420 1.000000 0.945550 0.964733
Zn12  Zn    Zn3+2 0.999990 0.500000 0.953050 0.970305

loop_
_geom_bond_atom_site_label_1
_geom_bond_atom_site_label_2
_ccdc_geom_bond_type
C3    C104  S    
C60   O36   A    
C99   C103  T    
O31   Zn9   S    
O45   Zn11  S    
O30   Zn8   S    
O37   Zn11  S    
C10   C108  S    
C70   O2    A    
H10   N1    S    
O42   Zn8   S    
C8    C105  S    
C59   C77   S    
C108  N2    S    
O11   Zn12  S    
C39   C41   T    
O5    Zn4   S    
C69   C102  S    
O16   Zn1   S    
C60   O31   A    
O40   Zn10  S    
O36   Zn11  S    
O13   Zn2   S    
C59   O30   A    
C58   O33   A    
C72   O8    A    
C81   O27   A    
C35   C37   T    
C61   C79   S    
C80   O25   A    
C5    C11   S    
O18   Zn6   S    
C74   O15   A    
C43   H8    S    
C5    N3    S    
C77   C83   T    
C3    H2    S    
C92   C96   S    
C72   O10   A    
C104  H29   S    
C18   C20   T    
O43   Zn9   S    
C2    C13   T    
C8    C98   S    
H11   N2    S    
C107  H27   S    
C43   H7    S    
C10   C76   S    
C7    C87   T    
O47   Zn12  S    
C11   C87   S    
C3    N1    S    
O10   Zn4   S    
C105  H12   S    
C11   C43   S    
C23   C27   T    
C32   H5    S    
C65   N7    S    
C67   O46   A    
C60   C78   S    
C12   C98   T    
C97   C102  T    
C52   C55   S    
C54   N6    S    
C83   C88   S    
C96   C101  T    
O28   Zn7   S    
C28   C72   S    
H14   N3    S    
C61   O32   A    
C32   C54   S    
C64   O44   A    
H18   N5    S    
C44   C46   T    
C58   C75   S    
C49   O21   A    
C46   C48   S    
C5    C106  S    
C45   C47   S    
C106  H23   S    
C71   O9    A    
C105  C108  S    
C88   C94   T    
C26   O19   A    
C31   C34   S    
O20   Zn1   S    
O25   Zn1   S    
O34   Zn7   S    
C81   O28   A    
O3    Zn3   S    
C19   C22   T    
C68   C101  S    
C49   O20   A    
O48   Zn2   S    
O7    Zn12  S    
C8    C54   S    
O12   Zn5   S    
C108  H32   S    
O23   Zn6   S    
C95   C100  T    
C17   C19   S    
C47   C51   T    
C25   O17   A    
C9    C106  S    
C82   C86   S    
C67   O3    A    
O46   Zn12  S    
O26   Zn5   S    
C69   O5    A    
O4    Zn3   S    
C51   C53   S    
C42   C45   T    
C57   C74   S    
O24   Zn7   S    
H9    N1    S    
C73   O14   A    
C68   O4    A    
C86   C93   T    
C10   C32   S    
C21   O34   A    
O6    Zn4   S    
C90   C92   T    
C20   C23   S    
C48   C52   T    
C43   C65   S    
C71   O7    A    
C66   O43   A    
O39   Zn9   S    
C61   O37   A    
O29   Zn8   S    
O38   Zn8   S    
C50   O22   A    
H25   N8    S    
C65   N8    S    
C59   O35   A    
C8    C104  S    
C7    C63   S    
H21   N6    S    
C67   C100  S    
H19   N5    S    
C54   N5    S    
C16   C18   S    
C4    H3    S    
O15   Zn4   S    
O19   Zn7   S    
C55   C57   T    
C4    C11   S    
C14   C16   T    
C13   C26   S    
C89   C91   T    
C84   C89   S    
O32   Zn9   S    
C93   C97   S    
C79   C85   T    
C66   O45   A    
C27   C71   S    
C105  H28   S    
C62   O40   A    
C53   C56   T    
C44   C50   S    
C15   C17   T    
C26   O18   A    
C56   C73   S    
C30   C33   T    
H22   N7    S    
C70   O6    A    
H24   N7    S    
O44   Zn10  S    
H13   N2    S    
C1    O12   A    
O8    Zn2   S    
C24   C28   T    
O27   Zn6   S    
O17   Zn5   S    
C1    O1    A    
C25   O16   A    
C4    N4    S    
C74   O13   A    
C64   O42   A    
C85   C90   S    
C75   C82   T    
C6    C76   T    
C41   C66   S    
C5    H4    S    
C9    C107  S    
H26   N8    S    
C73   O11   A    
C63   O39   A    
C40   C64   S    
C62   O38   A    
C12   C25   S    
C32   H6    S    
C6    C62   S    
C107  H30   S    
C36   C38   S    
O33   Zn10  S    
C63   O41   A    
C68   O47   A    
C80   O26   A    
C37   C39   S    
C3    C10   S    
C21   O23   A    
C38   C40   T    
H20   N6    S    
C106  H31   S    
C104  H1    S    
C29   C80   S    
C94   C99   S    
O41   Zn11  S    
O14   Zn3   S    
C33   C35   S    
C34   C36   T    
C4    C107  S    
C58   O29   A    
C22   C24   S    
C69   O48   A    
C9    C65   S    
O22   Zn6   S    
C42   C49   S    
O21   Zn5   S    
C78   C84   T    
C15   C21   S    
C91   C95   S    
C29   C31   T    
H15   N3    S    
O35   Zn10  S    
H16   N4    S    
C50   O24   A    
C1    C14   S    
H17   N4    S    
O9    Zn3   S    
C2    C9    S    
O2    Zn2   S    
C30   C81   S    
O1    Zn1   S    
C70   C103  S    
