data_mof_unit_14242.cif
_audit_creation_date              2012-12-11T16:47:41-0500
_audit_creation_method            fapswitch 2.2
_symmetry_space_group_name_H-M    P1
_symmetry_Int_Tables_number       1
_space_group_crystal_system       triclinic
_cell_length_a                    26.163587
_cell_length_b                    7.209379
_cell_length_c                    23.897419
_cell_angle_alpha                 89.999883
_cell_angle_beta                  101.64025
_cell_angle_gamma                 90.000296
_cell_volume                      4414.90340891

loop_
_atom_site_label
_atom_site_type_symbol
_atom_type_description
_atom_site_fract_x
_atom_site_fract_y
_atom_site_fract_z
_atom_type_partial_charge
O1    O     O_R   0.797620 0.601060 0.203310 -0.538554
O2    O     O_R   0.202380 0.398940 0.796690 -0.538834
O3    O     O_R   0.702380 0.101060 0.296690 -0.538553
O4    O     O_R   0.297620 0.898940 0.703310 -0.538838
O5    O     O_R   0.692070 0.267810 0.186600 -0.530169
O6    O     O_R   0.307930 0.732190 0.813400 -0.530051
O7    O     O_R   0.807930 0.767810 0.313400 -0.530168
O8    O     O_R   0.192070 0.232190 0.686600 -0.530051
C1    C     C_R   0.673878 0.439724 0.171494 0.700259
C2    C     C_R   0.326121 0.560275 0.828507 0.700417
C3    C     C_R   0.826122 0.939725 0.328506 0.700261
C4    C     C_R   0.173879 0.060275 0.671493 0.700416
O9    O     O_R   0.796590 0.271120 0.196480 -0.541676
O10   O     O_R   0.203410 0.728880 0.803520 -0.541616
O11   O     O_R   0.703410 0.771120 0.303520 -0.541677
O12   O     O_R   0.296590 0.228880 0.696480 -0.541616
O13   O     O_R   0.807640 0.104280 0.306650 -0.531241
O14   O     O_R   0.192360 0.895720 0.693350 -0.531207
O15   O     O_R   0.692360 0.604280 0.193350 -0.531240
O16   O     O_R   0.307640 0.395720 0.806650 -0.531205
C5    C     C_R   0.812309 0.439964 0.184362 0.704260
C6    C     C_R   0.187715 0.560054 0.815671 0.703626
C7    C     C_R   0.687691 0.939963 0.315638 0.704261
C8    C     C_R   0.312285 0.060055 0.684329 0.703610
O17   O     O_3   0.753500 0.435660 0.286130 -0.373970
O18   O     O_3   0.246500 0.564340 0.713870 -0.374154
O19   O     O_3   0.746500 0.935660 0.213870 -0.373972
O20   O     O_3   0.253500 0.064340 0.786130 -0.374151
V1    V     V_3+5 0.749350 0.159470 0.243300 1.418839
V2    V     V_3+5 0.250650 0.840530 0.756700 1.416254
V3    V     V_3+5 0.750650 0.659470 0.256700 1.418840
V4    V     V_3+5 0.249350 0.340530 0.743300 1.416254
C9    C     C_R   0.374411 0.881379 0.636662 -0.162996
C10   C     C_R   0.625564 0.119324 0.363135 -0.156572
C11   C     C_R   0.125611 0.381346 0.863363 -0.162869
C12   C     C_R   0.874432 0.619333 0.136861 -0.156572
H1    H     H_    0.366350 0.756275 0.658425 0.141527
H2    H     H_    0.633850 0.244386 0.341493 0.142688
H3    H     H_    0.133690 0.256222 0.841620 0.141551
H4    H     H_    0.866142 0.744399 0.158499 0.142689
C13   C     C_R   0.410532 0.872097 0.600890 -0.226950
C14   C     C_R   0.589476 0.129292 0.398968 -0.210785
C15   C     C_R   0.089491 0.372057 0.899137 -0.226729
C16   C     C_R   0.910521 0.629303 0.101028 -0.210818
H5    H     H_    0.429527 0.740918 0.596496 0.169910
H6    H     H_    0.570769 0.260898 0.403553 0.172219
H7    H     H_    0.070516 0.240853 0.903553 0.170009
H8    H     H_    0.929224 0.760913 0.096439 0.172231
C17   C     C_R   0.422831 0.030152 0.571829 -0.003425
C18   C     C_R   0.576838 0.971214 0.427784 -0.013507
C19   C     C_R   0.077168 0.530138 0.928171 -0.003599
C20   C     C_R   0.923163 0.471221 0.072218 -0.013510
C21   C     C_R   0.396896 0.198676 0.577904 0.479135
C22   C     C_R   0.602306 0.802130 0.421021 0.473576
C23   C     C_R   0.103078 0.698687 0.922062 0.479011
C24   C     C_R   0.897699 0.302132 0.078985 0.473583
C25   C     C_R   0.361911 0.208282 0.615810 -0.252392
C26   C     C_R   0.637569 0.792034 0.383771 -0.240718
C27   C     C_R   0.138065 0.708299 0.884164 -0.252169
C28   C     C_R   0.862435 0.292034 0.116234 -0.240731
H9    H     H_    0.343905 0.339842 0.621973 0.136073
H10   H     H_    0.655842 0.660058 0.378575 0.142011
H11   H     H_    0.156055 0.839889 0.877994 0.136111
H12   H     H_    0.844165 0.160053 0.121434 0.142005
C29   C     C_R   0.349945 0.049911 0.645114 -0.103072
C30   C     C_R   0.649864 0.950333 0.354645 -0.111754
C31   C     C_R   0.150054 0.549906 0.854885 -0.103220
C32   C     C_R   0.850136 0.450336 0.145355 -0.111747
C33   C     C_R   0.502718 0.146495 0.538869 -0.086503
C34   C     C_R   0.497038 0.854638 0.460823 -0.087209
C35   C     C_R   0.997274 0.646464 0.961121 -0.086525
C36   C     C_R   0.002971 0.354675 0.039193 -0.087223
H13   H     H_    0.506189 0.258681 0.569533 0.138960
H14   H     H_    0.493620 0.742285 0.430222 0.142157
H15   H     H_    0.993796 0.758622 0.930446 0.138988
H16   H     H_    0.006396 0.242348 0.069804 0.142115
C37   C     C_R   0.539835 0.131464 0.504288 -0.185875
C38   C     C_R   0.459906 0.869729 0.495378 -0.179986
C39   C     C_R   0.960159 0.631439 0.995703 -0.185870
C40   C     C_R   0.040103 0.369762 0.004638 -0.180006
H17   H     H_    0.570860 0.232831 0.508801 0.127814
H18   H     H_    0.428929 0.768230 0.490895 0.127212
H19   H     H_    0.929127 0.732781 0.991181 0.127789
H20   H     H_    0.071088 0.268292 0.009132 0.127148
C41   C     C_R   0.537543 0.985183 0.464965 0.100682
C42   C     C_R   0.462142 0.016164 0.534645 0.110820
C43   C     C_R   0.962459 0.485190 0.035039 0.100714
C44   C     C_R   0.037859 0.516161 0.965357 0.110771
C45   C     C_3   0.963887 0.906268 0.520067 0.368930
C46   C     C_3   0.036120 0.093729 0.479929 0.368967
C47   C     C_3   0.536113 0.406266 0.979932 0.368932
C48   C     C_3   0.463881 0.593731 0.020071 0.368968
C49   C     C_3   0.987704 0.093175 0.543325 0.369562
C50   C     C_3   0.012302 0.906822 0.456672 0.369786
C51   C     C_3   0.512296 0.593173 0.956675 0.369560
C52   C     C_3   0.487697 0.406824 0.043328 0.369787
H21   H     H_    0.966572 0.312493 0.467708 0.162775
H22   H     H_    0.033436 0.687505 0.532288 0.162732
H23   H     H_    0.533430 0.812493 0.032290 0.162775
H24   H     H_    0.466562 0.187505 0.967712 0.162732
C53   C     C_1   0.128141 0.050097 0.625519 -0.175809
C54   C     C_1   0.871862 0.949902 0.374479 -0.175349
C55   C     C_1   0.371859 0.550098 0.874481 -0.175809
C56   C     C_1   0.628138 0.449901 0.125521 -0.175350
C57   C     C_3   0.018512 0.827314 0.517891 -0.415025
C58   C     C_3   0.981495 0.172684 0.482106 -0.414940
C59   C     C_3   0.481487 0.327314 0.982110 -0.415023
C60   C     C_3   0.518506 0.672684 0.017893 -0.414938
C61   C     C_3   0.042529 0.017367 0.541336 -0.036053
C62   C     C_3   0.957477 0.982629 0.458660 -0.036125
C63   C     C_3   0.457471 0.517368 0.958664 -0.036054
C64   C     C_3   0.542523 0.482629 0.041340 -0.036127
C65   C     C_1   0.089663 0.037421 0.587449 0.075007
C66   C     C_1   0.910342 0.962577 0.412547 0.075180
C67   C     C_1   0.410337 0.537422 0.912551 0.075007
C68   C     C_1   0.589658 0.462575 0.087452 0.075181
O21   O     O_3   0.407428 0.353877 0.547850 -0.564777
C69   C     C_3   0.361003 0.419824 0.512729 -0.283712
H25   H     H_    0.339132 0.509245 0.537606 0.143886
H26   H     H_    0.335651 0.305503 0.491341 0.136345
H27   H     H_    0.371468 0.506314 0.478388 0.161537
O22   O     O_3   0.592475 0.645051 0.450240 -0.566416
C70   C     C_3   0.630916 0.632590 0.500773 -0.278660
H28   H     H_    0.630827 0.757547 0.528172 0.142152
H29   H     H_    0.670344 0.610769 0.491084 0.138568
H30   H     H_    0.622137 0.511260 0.525687 0.158533
O23   O     O_3   0.092544 0.853935 0.952084 -0.564819
C71   C     C_3   0.138930 0.919133 0.987455 -0.283521
H31   H     H_    0.161128 0.007836 0.962730 0.143757
H32   H     H_    0.163995 0.804398 0.009033 0.136359
H33   H     H_    0.128398 0.006147 0.021645 0.161465
O24   O     O_3   0.907535 0.145052 0.049770 -0.566411
C72   C     C_3   0.869089 0.132550 0.999242 -0.278642
H34   H     H_    0.869162 0.257510 0.971840 0.142146
H35   H     H_    0.829666 0.110679 0.008939 0.138564
H36   H     H_    0.877875 0.011234 0.974327 0.158532
O25   O     O_3   0.978007 0.188381 0.591637 -0.554516
C73   C     C_3   0.924899 0.238977 0.583332 0.092447
H37   H     H_    0.897907 0.132421 0.560287 0.154659
H38   H     H_    0.918224 0.369276 0.558227 0.146247
C74   C     C_3   0.910865 0.267038 0.641507 -0.742638
H39   H     H_    0.936235 0.375146 0.665875 0.231567
H40   H     H_    0.869373 0.309332 0.636191 0.178133
H41   H     H_    0.916652 0.135836 0.666284 0.223775
O26   O     O_3   0.022003 0.811616 0.408361 -0.554453
C75   C     C_3   0.075110 0.761013 0.416671 0.091256
H42   H     H_    0.081782 0.630713 0.441776 0.146216
H43   H     H_    0.102103 0.867566 0.439719 0.154580
C76   C     C_3   0.089151 0.732950 0.358500 -0.740522
H44   H     H_    0.083368 0.864152 0.333722 0.224108
H45   H     H_    0.130643 0.690652 0.363820 0.178396
H46   H     H_    0.063782 0.624844 0.334129 0.231608
O27   O     O_3   0.521994 0.688377 0.908362 -0.554516
C77   C     C_3   0.575101 0.738972 0.916666 0.092448
H47   H     H_    0.602094 0.632414 0.939711 0.154658
H48   H     H_    0.581778 0.869270 0.941771 0.146246
C78   C     C_3   0.589135 0.767035 0.858491 -0.742643
H49   H     H_    0.563766 0.875142 0.834124 0.231567
H50   H     H_    0.630627 0.809330 0.863806 0.178133
H51   H     H_    0.583348 0.635833 0.833713 0.223774
O28   O     O_3   0.477996 0.311620 0.091639 -0.554452
C79   C     C_3   0.424888 0.261019 0.083330 0.091250
H52   H     H_    0.418215 0.130719 0.058224 0.146216
H53   H     H_    0.397897 0.367573 0.060281 0.154580
C80   C     C_3   0.410848 0.232956 0.141501 -0.740510
H54   H     H_    0.416631 0.364158 0.166279 0.224111
H55   H     H_    0.369356 0.190659 0.136181 0.178392
H56   H     H_    0.436216 0.124850 0.165872 0.231610
O29   O     O_3   0.923056 0.810567 0.538033 -0.555035
C81   C     C_3   0.938286 0.759611 0.596035 0.094959
H57   H     H_    0.962560 0.865932 0.622772 0.155426
H58   H     H_    0.961234 0.629224 0.599639 0.146630
C82   C     C_3   0.889443 0.731554 0.620429 -0.747189
H59   H     H_    0.864290 0.623459 0.595772 0.229321
H60   H     H_    0.900326 0.689262 0.665941 0.180959
H61   H     H_    0.866877 0.862756 0.617700 0.222582
O30   O     O_3   0.076954 0.189430 0.461969 -0.555136
C83   C     C_3   0.061730 0.240379 0.403965 0.094117
H62   H     H_    0.038781 0.370763 0.400357 0.146721
H63   H     H_    0.037460 0.134054 0.377227 0.155635
C84   C     C_3   0.110578 0.268442 0.379581 -0.745674
H64   H     H_    0.133145 0.137242 0.382313 0.222733
H65   H     H_    0.099701 0.310737 0.334069 0.181661
H66   H     H_    0.135728 0.376537 0.404242 0.229084
O31   O     O_3   0.576943 0.310561 0.961967 -0.555035
C85   C     C_3   0.561712 0.259605 0.903965 0.094958
H67   H     H_    0.537439 0.365925 0.877228 0.155425
H68   H     H_    0.538765 0.129217 0.900361 0.146632
C86   C     C_3   0.610556 0.231550 0.879571 -0.747189
H69   H     H_    0.635709 0.123455 0.904227 0.229320
H70   H     H_    0.599673 0.189259 0.834059 0.180958
H71   H     H_    0.633122 0.362752 0.882301 0.222581
O32   O     O_3   0.423048 0.689436 0.038031 -0.555135
C87   C     C_3   0.438272 0.740386 0.096034 0.094120
H72   H     H_    0.461221 0.870771 0.099642 0.146723
H73   H     H_    0.462542 0.634061 0.122773 0.155635
C88   C     C_3   0.389424 0.768445 0.120419 -0.745677
H74   H     H_    0.366857 0.637243 0.117686 0.222730
H75   H     H_    0.400301 0.810738 0.165931 0.181667
H76   H     H_    0.364274 0.876540 0.095759 0.229082

loop_
_geom_bond_atom_site_label_1
_geom_bond_atom_site_label_2
_ccdc_geom_bond_type
C26   H10   S    
C87   H73   S    
C50   C57   S    
O1    C5    A    
C78   H49   S    
C46   C50   S    
C23   C27   A    
C34   C38   A    
C53   C65   T    
O29   C81   S    
C33   C37   A    
C10   C14   A    
C48   C52   S    
C36   H16   S    
O15   V3    S    
C71   H31   S    
C10   C30   A    
C39   C43   A    
O28   C79   S    
C34   H14   S    
C9    C29   A    
C70   H28   S    
C82   H59   S    
O7    C3    A    
H23   C60   S    
C52   C64   S    
C80   H54   S    
H22   C57   S    
C7    C30   S    
O9    V1    S    
C2    C55   S    
C79   H52   S    
C76   H45   S    
C22   C26   A    
O4    C8    A    
C21   O21   S    
C70   H29   S    
C87   C88   S    
O19   V1    S    
C81   H57   S    
C79   C80   S    
O1    V3    S    
C36   C40   A    
O13   V1    S    
C52   O28   S    
O2    V4    S    
C14   H6    S    
C58   C62   S    
O3    V1    S    
C69   H25   S    
C18   C41   S    
C27   C31   A    
C56   C68   T    
O3    C7    A    
C1    O15   A    
C86   H71   S    
C2    O16   A    
O24   C72   S    
C39   H19   S    
O2    C6    A    
C72   H36   S    
C33   H13   S    
O14   V2    S    
C11   C31   A    
C11   C15   A    
C62   C66   S    
C77   H48   S    
C61   C65   S    
C38   C42   A    
C50   O26   S    
O11   C7    A    
C87   H72   S    
C47   O31   S    
C46   O30   S    
C37   C41   A    
O12   C8    A    
C86   H69   S    
O10   V2    S    
C13   C17   A    
C26   C30   A    
O26   C75   S    
C75   H43   S    
C84   H65   S    
O7    V3    S    
C40   H20   S    
O8    V4    S    
C47   C59   S    
C12   H4    S    
C49   O25   S    
C46   C58   S    
C77   C78   S    
C48   O32   S    
C73   H37   S    
C74   H41   S    
C21   C25   A    
O18   V4    S    
C70   H30   S    
C84   H64   S    
C45   C62   S    
C50   C62   S    
C9    H1    S    
C35   C39   A    
C60   C64   S    
C51   O27   S    
C69   H27   S    
C47   C64   S    
C78   H50   S    
C88   H76   S    
C11   H3    S    
O5    C1    A    
C55   C67   T    
C54   C66   T    
C49   C58   S    
C75   C76   S    
C38   H18   S    
C37   H17   S    
O8    C4    A    
O5    V1    S    
C4    O14   A    
O9    C5    A    
C18   C22   A    
C88   H75   S    
O11   V3    S    
C16   H8    S    
C77   H47   S    
C24   O24   S    
C82   H60   S    
C73   H38   S    
C8    C29   S    
C14   C18   A    
H21   C58   S    
O6    V2    S    
C52   C59   S    
C23   O23   S    
O32   C87   S    
C80   H56   S    
C74   H39   S    
C5    C32   S    
C72   H34   S    
C76   H46   S    
C85   H68   S    
O23   C71   S    
C71   H33   S    
C64   C68   S    
C36   C43   A    
O17   V3    S    
C75   H42   S    
O16   V4    S    
C82   H61   S    
C57   C61   S    
C3    O13   A    
H24   C59   S    
C84   H66   S    
C10   H2    S    
C59   C63   S    
C17   C42   S    
C20   C43   S    
C25   C29   A    
C73   C74   S    
C71   H32   S    
C19   C44   S    
O6    C2    A    
C83   H63   S    
C12   C32   A    
C48   C63   S    
C25   H9    S    
C16   C20   A    
C78   H51   S    
O12   V4    S    
O25   C73   S    
C27   H11   S    
C28   H12   S    
C9    C13   A    
O10   C6    A    
C85   C86   S    
C74   H40   S    
O22   C70   S    
C45   O29   S    
C4    C53   S    
C40   C44   A    
C79   H53   S    
C51   C63   S    
C76   H44   S    
C35   H15   S    
C34   C41   A    
C15   C19   A    
O31   C85   S    
C81   H58   S    
C1    C56   S    
C17   C21   A    
O20   V2    S    
C3    C54   S    
C19   C23   A    
C45   C49   S    
C88   H74   S    
C69   H26   S    
C6    C31   S    
C83   C84   S    
C12   C16   A    
C51   C60   S    
C47   C51   S    
C35   C44   A    
C24   C28   A    
C22   O22   S    
C28   C32   A    
C80   H55   S    
O30   C83   S    
C45   C57   S    
C72   H35   S    
C13   H5    S    
C63   C67   S    
C46   C61   S    
C86   H70   S    
C85   H67   S    
O21   C69   S    
C48   C60   S    
C15   H7    S    
O4    V2    S    
C33   C42   A    
C20   C24   A    
C49   C61   S    
C83   H62   S    
O27   C77   S    
C81   C82   S    
