data_mof_unit_65761.cif
_audit_creation_date              2012-12-10T17:29:00-0500
_audit_creation_method            fapswitch 2.2
_symmetry_space_group_name_H-M    P1
_symmetry_Int_Tables_number       1
_space_group_crystal_system       triclinic
_cell_length_a                    18.865493
_cell_length_b                    18.694575
_cell_length_c                    18.714391
_cell_angle_alpha                 109.394663
_cell_angle_beta                  109.883618
_cell_angle_gamma                 109.666606
_cell_volume                      5047.20983043

loop_
_atom_site_label
_atom_site_type_symbol
_atom_type_description
_atom_site_fract_x
_atom_site_fract_y
_atom_site_fract_z
_atom_type_partial_charge
C1    C     C_R   0.620583 0.500965 0.620359 0.791592
C2    C     C_R   0.379428 0.499044 0.379636 0.790883
C3    C     C_3   0.324093 0.227198 0.481310 -0.031266
C4    C     C_3   0.680868 0.777094 0.529542 0.012806
C5    C     C_3   0.315449 0.311350 0.503155 -0.011935
C6    C     C_3   0.684760 0.690084 0.497920 0.026389
C7    C     C_3   0.190593 0.191556 0.502595 0.057822
C8    C     C_3   0.809064 0.812305 0.500671 0.115198
C9    C     C_3   0.149659 0.220947 0.434409 0.289548
C10   C     C_3   0.849758 0.776039 0.560774 0.310899
C11   C     C_3   0.245126 0.153422 0.472027 -0.018709
C12   C     C_3   0.759980 0.852396 0.539833 -0.078550
C13   C     C_3   0.777014 0.595181 0.747850 -0.033032
C14   C     C_3   0.222932 0.404872 0.252242 -0.032813
C15   C     C_3   0.845674 0.597256 0.825172 0.048772
C16   C     C_3   0.154272 0.402740 0.174867 0.047355
C17   C     C_3   0.655512 0.473105 0.747105 0.000697
C18   C     C_3   0.344418 0.526699 0.252738 0.000345
C19   C     C_3   0.714413 0.434366 0.648004 -0.455883
C20   C     C_3   0.285750 0.565786 0.351973 -0.456840
C21   C     C_3   0.690164 0.502844 0.690796 0.058994
C22   C     C_3   0.309845 0.497156 0.309184 0.058536
C23   C     C_R   0.383352 0.380124 0.502739 0.794693
C24   C     C_R   0.617231 0.620101 0.497876 0.792477
C25   C     C_3   0.812230 0.502684 0.813083 0.051446
C26   C     C_3   0.187751 0.497282 0.186893 0.051810
C27   C     C_3   0.727814 0.474181 0.819459 -0.448051
C28   C     C_3   0.272131 0.525703 0.180453 -0.448475
C29   C     C_3   0.786572 0.434456 0.719280 -0.077127
C30   C     C_3   0.213423 0.565527 0.280694 -0.076637
C31   C     C_3   0.998207 0.309820 0.810899 0.069519
C32   C     C_3   0.002285 0.689928 0.189982 0.081327
C33   C     C_R   0.002996 0.122668 0.620415 0.736880
C34   C     C_R   0.997271 0.877701 0.379563 0.819465
C35   C     C_R   0.120177 0.120775 0.500559 0.814163
C36   C     C_R   0.879859 0.881316 0.501419 0.785111
C37   C     C_R   0.001632 0.620409 0.121037 0.809601
C38   C     C_R   0.999079 0.379538 0.879766 0.805786
C39   C     C_R   0.880302 0.501644 0.881707 0.804785
C40   C     C_R   0.119693 0.498337 0.118275 0.803957
C41   C     C_3   0.971246 0.246893 0.655034 -0.081168
C42   C     C_3   0.017993 0.746600 0.341967 -0.109449
C43   C     C_3   0.935551 0.144319 0.713947 -0.108913
C44   C     C_3   0.072394 0.854735 0.294929 -0.090308
C45   C     C_3   0.092598 0.326068 0.845130 -0.489039
C46   C     C_3   0.909938 0.678920 0.151718 -0.485764
C47   C     C_3   0.936508 0.214810 0.788428 0.014503
C48   C     C_3   0.070539 0.785208 0.218810 -0.032150
C49   C     C_3   0.969610 0.316587 0.726841 -0.415292
C50   C     C_3   0.021511 0.677676 0.271117 -0.407404
C51   C     C_3   0.002821 0.190978 0.690477 0.137529
C52   C     C_3   0.996917 0.808827 0.309701 0.118878
C53   C     C_3   0.096271 0.256538 0.775226 0.038638
C54   C     C_3   0.905788 0.748586 0.221184 0.027084
C55   C     C_3   0.319830 0.349036 0.593321 -0.335396
C56   C     C_3   0.673266 0.658192 0.404596 -0.408752
C57   C     C_3   0.256072 0.276171 0.599992 0.296632
C58   C     C_3   0.739230 0.733142 0.401801 0.304810
C59   C     C_3   0.225454 0.285376 0.431290 -0.499749
C60   C     C_3   0.774847 0.708768 0.562290 -0.558776
Cu1   Cu    Cu3+1 0.499950 0.562450 0.562440 0.916458
Cu2   Cu    Cu3+1 0.500050 0.437550 0.437560 0.918620
Cu3   Cu    Cu3+1 0.062480 0.999960 0.562430 0.967373
Cu4   Cu    Cu3+1 0.937520 0.000040 0.437570 0.959259
Cu5   Cu    Cu3+1 0.062470 0.562430 0.999950 0.934982
Cu6   Cu    Cu3+1 0.937530 0.437570 0.000050 0.933080
H1    H     H_    0.116304 0.325884 0.908252 0.156711
H2    H     H_    0.892469 0.682396 0.090368 0.156669
H3    H     H_    0.318695 0.202032 0.415552 0.147003
H4    H     H_    0.688113 0.798084 0.596043 0.124154
H5    H     H_    0.201851 0.105051 0.401008 0.121239
H6    H     H_    0.804800 0.899414 0.611164 0.080075
H7    H     H_    0.906461 0.617776 0.821699 0.132803
H8    H     H_    0.093493 0.382283 0.178359 0.132896
H9    H     H_    0.601157 0.403300 0.701619 0.120687
H10   H     H_    0.398879 0.596467 0.298128 0.125077
H11   H     H_    0.702451 0.406603 0.809793 0.165942
H12   H     H_    0.297535 0.593291 0.190142 0.166955
H13   H     H_    0.902876 0.307415 0.701280 0.149925
H14   H     H_    0.086868 0.684025 0.299975 0.149156
H15   H     H_    0.140006 0.291721 0.755951 0.167288
H16   H     H_    0.857565 0.712335 0.235840 0.155362
H17   H     H_    0.013752 0.384107 0.743359 0.198580
H18   H     H_    0.973375 0.609793 0.250118 0.199762
H19   H     H_    0.869550 0.105007 0.653587 0.106722
H20   H     H_    0.134692 0.885038 0.357317 0.146286
H21   H     H_    0.963752 0.211494 0.849526 0.173160
H22   H     H_    0.048896 0.793594 0.160346 0.161035
H23   H     H_    0.388266 0.383273 0.648217 0.147012
H24   H     H_    0.604653 0.632795 0.354980 0.156742
H25   H     H_    0.222124 0.345840 0.439854 0.174658
H26   H     H_    0.775827 0.646253 0.545868 0.170825
O1    O     O_R   0.591120 0.552750 0.643890 -0.560653
O2    O     O_R   0.408880 0.447250 0.356110 -0.560195
O3    O     O_R   0.947240 0.538460 0.091150 -0.611054
O4    O     O_R   0.052760 0.461540 0.908850 -0.608776
O5    O     O_R   0.961590 0.552710 0.908800 -0.593777
O6    O     O_R   0.038410 0.447290 0.091200 -0.594511
O7    O     O_R   0.856080 0.447270 0.908890 -0.597567
O8    O     O_R   0.143920 0.552730 0.091110 -0.596799
O9    O     O_R   0.591210 0.447270 0.538420 -0.609412
O10   O     O_R   0.408790 0.552730 0.461580 -0.609184
O11   O     O_R   0.408810 0.461590 0.552740 -0.587531
O12   O     O_R   0.591190 0.538410 0.447260 -0.585186
O13   O     O_R   0.408900 0.356100 0.447280 -0.605765
O14   O     O_R   0.591100 0.643900 0.552720 -0.608964
O15   O     O_R   0.052750 0.091090 0.643890 -0.545876
O16   O     O_R   0.947250 0.908910 0.356110 -0.534536
O17   O     O_R   0.947230 0.091150 0.538450 -0.630267
O18   O     O_R   0.052770 0.908850 0.461550 -0.611858
O19   O     O_R   0.143910 0.091120 0.552710 -0.574224
O20   O     O_R   0.856090 0.908880 0.447290 -0.568510
O21   O     O_R   0.038380 0.091180 0.447270 -0.573921
O22   O     O_R   0.961620 0.908820 0.552730 -0.552236
O23   O     O_R   0.052740 0.643910 0.091070 -0.551791
O24   O     O_R   0.947260 0.356090 0.908930 -0.551978
N1    N     N_3   0.409274 0.245124 0.544112 -0.608316
H27   H     H_    0.458316 0.283622 0.536949 0.219283
H28   H     H_    0.424778 0.280164 0.608889 0.233976
N2    N     N_3   0.596440 0.763345 0.469776 -0.587507
H29   H     H_    0.585871 0.811451 0.504614 0.209806
H30   H     H_    0.544658 0.703762 0.450761 0.206985
N3    N     N_3   0.268509 0.101923 0.510647 -0.547067
H31   H     H_    0.322278 0.141154 0.574297 0.277564
H32   H     H_    0.286105 0.064272 0.472719 0.210615
N4    N     N_3   0.733931 0.903951 0.503183 -0.534814
H33   H     H_    0.702482 0.927838 0.532636 0.207382
H34   H     H_    0.790067 0.961398 0.525136 0.215460
H35   H     H_    0.219860 0.255640 0.365927 0.146133
H36   H     H_    0.783871 0.733580 0.629444 0.155563
N5    N     N_3   0.084098 0.144075 0.344925 -0.563101
H37   H     H_    0.048358 0.163067 0.306682 0.214806
H38   H     H_    0.113158 0.120891 0.311639 0.192260
N6    N     N_3   0.916885 0.849166 0.651972 -0.563561
H39   H     H_    0.951103 0.826924 0.687018 0.215560
H40   H     H_    0.889007 0.871070 0.687505 0.183706
N7    N     N_3   0.766536 0.672368 0.777583 -0.607410
H41   H     H_    0.721466 0.663115 0.798577 0.260957
H42   H     H_    0.744084 0.683811 0.725522 0.220918
N8    N     N_3   0.233304 0.327609 0.222611 -0.606709
H43   H     H_    0.278312 0.336701 0.201536 0.261220
H44   H     H_    0.255813 0.316317 0.274773 0.221335
H45   H     H_    0.804722 0.600588 0.704556 0.103637
H46   H     H_    0.195269 0.399635 0.295603 0.102861
N9    N     N_3   0.870277 0.662387 0.912898 -0.608540
H47   H     H_    0.815168 0.657677 0.916703 0.222389
H48   H     H_    0.906367 0.725540 0.924404 0.235128
N10   N     N_3   0.129625 0.337537 0.087151 -0.606193
H49   H     H_    0.184707 0.342185 0.083324 0.223172
H50   H     H_    0.093519 0.274413 0.075701 0.237282
N11   N     N_3   0.135120 0.212054 0.812427 -0.544813
H51   H     H_    0.109422 0.195064 0.849583 0.256782
H52   H     H_    0.202089 0.256524 0.856032 0.196688
N12   N     N_3   0.873397 0.798361 0.186745 -0.552149
H53   H     H_    0.889496 0.803508 0.139856 0.211496
H54   H     H_    0.805034 0.763262 0.153578 0.203958
N13   N     N_3   0.618264 0.522950 0.783070 -0.577406
H55   H     H_    0.665727 0.577866 0.845209 0.210934
H56   H     H_    0.572148 0.483069 0.792331 0.202381
N14   N     N_3   0.381450 0.476637 0.216663 -0.576778
H57   H     H_    0.333862 0.421682 0.154594 0.210560
H58   H     H_    0.427477 0.516346 0.207196 0.203407
H59   H     H_    0.742764 0.516851 0.886539 0.172634
H60   H     H_    0.257123 0.483020 0.113349 0.172645
H61   H     H_    0.655723 0.367023 0.605900 0.167898
H62   H     H_    0.344464 0.633112 0.393855 0.165607
H63   H     H_    0.735995 0.448906 0.603465 0.199926
H64   H     H_    0.264388 0.551507 0.396737 0.200693
N15   N     N_3   0.860493 0.448990 0.704211 -0.608452
H65   H     H_    0.888975 0.510318 0.709343 0.219001
H66   H     H_    0.908051 0.446171 0.750341 0.220891
N16   N     N_3   0.139526 0.550818 0.295830 -0.608807
H67   H     H_    0.111573 0.489730 0.291312 0.218895
H68   H     H_    0.091557 0.552887 0.249327 0.220979
H69   H     H_    0.758951 0.367723 0.711697 0.165252
H70   H     H_    0.240862 0.632236 0.288202 0.165766
H71   H     H_    0.903097 0.202519 0.597696 0.151686
H72   H     H_    0.083710 0.786320 0.402897 0.155703
N17   N     N_3   0.026926 0.290473 0.626242 -0.614166
H73   H     H_    0.015491 0.243046 0.568130 0.222407
H74   H     H_    0.005968 0.330135 0.608091 0.228605
N18   N     N_3   0.953682 0.702049 0.362366 -0.603039
H75   H     H_    0.960529 0.748848 0.417852 0.252077
H76   H     H_    0.970023 0.660708 0.381756 0.230155
H77   H     H_    0.137918 0.392575 0.860445 0.186169
H78   H     H_    0.860161 0.612226 0.131800 0.181658
N19   N     N_3   0.952280 0.083193 0.740204 -0.587807
H79   H     H_    0.906215 0.056193 0.756646 0.199852
H80   H     H_    0.939873 0.030027 0.685759 0.233126
N20   N     N_3   0.072127 0.927493 0.280974 -0.573688
H81   H     H_    0.025374 0.904135 0.216805 0.231543
H82   H     H_    0.132139 0.963212 0.287096 0.192101
N21   N     N_3   0.847131 0.197099 0.764266 -0.584044
H83   H     H_    0.812092 0.137219 0.759535 0.207395
H84   H     H_    0.815133 0.190032 0.702381 0.207300
N22   N     N_3   0.158464 0.797437 0.244698 -0.580890
H85   H     H_    0.198872 0.858818 0.255311 0.211671
H86   H     H_    0.185424 0.798230 0.304039 0.207590
H87   H     H_    0.303466 0.402023 0.601115 0.179364
H88   H     H_    0.683436 0.600923 0.386165 0.181855
N23   N     N_3   0.308554 0.256232 0.660533 -0.593545
H89   H     H_    0.270406 0.219393 0.678481 0.248729
H90   H     H_    0.357330 0.314540 0.719959 0.209632
N24   N     N_3   0.691831 0.762103 0.347748 -0.537511
H91   H     H_    0.660173 0.715525 0.281025 0.187915
H92   H     H_    0.641814 0.764606 0.358521 0.273263
N25   N     N_3   0.210831 0.310175 0.640120 -0.617450
H93   H     H_    0.191911 0.349087 0.618809 0.255586
H94   H     H_    0.156571 0.258802 0.629671 0.204404
N26   N     N_3   0.783252 0.699216 0.359986 -0.613461
H95   H     H_    0.817861 0.744822 0.346690 0.226120
H96   H     H_    0.736553 0.641903 0.298995 0.206742
N27   N     N_3   0.106464 0.267312 0.463425 -0.622016
H97   H     H_    0.087983 0.293652 0.423829 0.206297
H98   H     H_    0.048170 0.223214 0.454280 0.238648
N28   N     N_3   0.892226 0.732723 0.524876 -0.557414
H99   H     H_    0.846285 0.668298 0.473193 0.231564
H100  H     H_    0.933826 0.725523 0.572082 0.203725

loop_
_geom_bond_atom_site_label_1
_geom_bond_atom_site_label_2
_ccdc_geom_bond_type
C1    C21   S    
N4    H33   S    
Cu1   O11   S    
N23   H90   S    
N15   H65   S    
N8    H43   S    
C33   O15   A    
C3    C11   S    
C10   N28   S    
C4    H4    S    
N9    H47   S    
C30   N16   S    
C50   H18   S    
N3    H31   S    
Cu2   O13   S    
C20   C30   S    
N27   H97   S    
C42   N18   S    
C7    C11   S    
N7    H42   S    
N20   H81   S    
Cu6   O24   S    
C16   H8    S    
C41   H71   S    
C3    H3    S    
N28   H100  S    
N1    H28   S    
C40   O6    A    
C58   N24   S    
C11   H5    S    
C39   O5    A    
C12   N4    S    
C2    O10   A    
C58   N26   S    
C23   O13   A    
C26   C40   S    
C47   N21   S    
C37   O3    A    
C53   H15   S    
C8    C36   S    
C9    N5    S    
C30   H70   S    
N18   H75   S    
C3    N1    S    
C44   N20   S    
C43   C51   S    
Cu3   O22   S    
N26   H95   S    
Cu5   O4    S    
C23   O11   A    
N2    H30   S    
N21   H84   S    
C36   O20   A    
C53   N11   S    
C18   H10   S    
N11   H51   S    
C48   H22   S    
C4    C12   S    
C28   H12   S    
N12   H54   S    
C3    C5    S    
Cu2   O9    S    
C27   H59   S    
C44   C52   S    
N11   H52   S    
C12   H6    S    
C36   O22   A    
N13   H56   S    
C31   C47   S    
C48   N22   S    
C35   O19   A    
N13   H55   S    
N24   H91   S    
Cu5   O23   S    
N24   H92   S    
C19   H63   S    
C31   C49   S    
C44   H20   S    
Cu3   O15   S    
C41   C49   S    
C26   C28   S    
N9    H48   S    
C52   C54   S    
Cu4   O16   S    
Cu2   O12   S    
N27   H98   S    
C25   C29   S    
C20   H64   S    
C14   H46   S    
C5    C59   S    
N25   H93   S    
C17   C27   S    
C6    C60   S    
C2    O2    A    
C18   C28   S    
N28   H99   S    
C4    C6    S    
C60   H36   S    
C15   N9    S    
N6    H40   S    
C27   H11   S    
Cu3   Cu4   S    
C1    O1    A    
C17   C21   S    
C49   H13   S    
C51   C53   S    
C43   H19   S    
Cu6   O7    S    
C10   C60   S    
C5    C55   S    
C46   H2    S    
C9    N27   S    
C38   O24   A    
C39   O7    A    
C5    C23   S    
C13   C15   S    
C43   N19   S    
C8    C12   S    
C6    C24   S    
C46   C54   S    
C13   C21   S    
C59   H25   S    
C32   C37   S    
N10   H49   S    
Cu1   O14   S    
C32   C50   S    
N12   H53   S    
N6    H39   S    
Cu6   O6    S    
C42   C50   S    
N22   H86   S    
C15   H7    S    
C14   N8    S    
C26   C30   S    
N26   H96   S    
C55   C57   S    
C14   C22   S    
C34   O18   A    
C14   C16   S    
C24   O14   A    
Cu5   Cu6   S    
C20   C22   S    
C38   O4    A    
N5    H37   S    
C19   C29   S    
C1    O9    A    
C54   H16   S    
C17   N13   S    
N16   H67   S    
C28   H60   S    
N8    H44   S    
C17   H9    S    
N15   H66   S    
C7    C9    S    
C42   C52   S    
C59   H35   S    
N4    H34   S    
Cu4   O21   S    
C56   H24   S    
C19   C21   S    
C18   C22   S    
C32   C46   S    
N20   H82   S    
C41   N17   S    
N14   H58   S    
C11   N3    S    
C10   N6    S    
Cu5   O8    S    
N10   H50   S    
N22   H85   S    
N5    H38   S    
C16   C26   S    
C50   H14   S    
C40   O8    A    
C13   N7    S    
C29   H69   S    
C45   H1    S    
C37   O23   A    
C41   C51   S    
C33   C51   S    
C20   H62   S    
N7    H41   S    
C57   N25   S    
C34   C52   S    
C31   C38   S    
C29   N15   S    
C16   N10   S    
C34   O16   A    
N14   H57   S    
C49   H17   S    
Cu3   O18   S    
Cu2   O2    S    
Cu1   O10   S    
Cu5   O5    S    
N19   H79   S    
C55   H23   S    
C18   N14   S    
C2    C22   S    
C6    C56   S    
C24   O12   A    
C45   H77   S    
Cu4   O17   S    
C32   C48   S    
C42   H72   S    
C7    C35   S    
N16   H68   S    
C56   C58   S    
C35   O21   A    
C33   O17   A    
Cu1   O1    S    
C13   H45   S    
Cu3   O19   S    
Cu1   Cu2   S    
N18   H76   S    
N19   H80   S    
Cu4   O20   S    
N3    H32   S    
C45   C53   S    
N17   H73   S    
C8    C58   S    
N23   H89   S    
C46   H78   S    
C15   C25   S    
C8    C10   S    
N21   H83   S    
C31   C45   S    
C57   N23   S    
N25   H94   S    
N2    H29   S    
C4    N2    S    
N17   H74   S    
C19   H61   S    
C9    C59   S    
C54   N12   S    
N1    H27   S    
C60   H26   S    
C43   C47   S    
C7    C57   S    
C25   C39   S    
C44   C48   S    
C55   H87   S    
Cu6   O3    S    
C56   H88   S    
C25   C27   S    
C47   H21   S    
