data_mof_unit_40729.cif
_audit_creation_date              2012-12-10T19:44:26-0500
_audit_creation_method            fapswitch 2.2
_symmetry_space_group_name_H-M    P1
_symmetry_Int_Tables_number       1
_space_group_crystal_system       triclinic
_cell_length_a                    10.782942
_cell_length_b                    12.3932
_cell_length_c                    13.287543
_cell_angle_alpha                 117.442569
_cell_angle_beta                  75.217212
_cell_angle_gamma                 101.110754
_cell_volume                      1517.86069002

loop_
_atom_site_label
_atom_site_type_symbol
_atom_type_description
_atom_site_fract_x
_atom_site_fract_y
_atom_site_fract_z
_atom_type_partial_charge
C1    C     C_R   0.515960 0.854795 0.286505 0.783427
C2    C     C_R   0.615470 0.836455 0.794677 -0.071995
C3    C     C_R   0.035964 0.955491 0.566716 -0.246416
C4    C     C_R   0.129681 0.995738 0.493822 -0.076102
C5    C     C_R   0.094097 0.036975 0.423007 -0.001118
C6    C     C_R   0.964295 0.041339 0.430498 -0.247591
C7    C     C_R   0.870652 0.001948 0.503976 -0.075730
C8    C     C_R   0.906296 0.958644 0.573186 -0.000222
C9    C     C_R   0.198770 0.190890 0.347653 -0.172841
C10   C     C_R   0.292019 0.225756 0.270780 -0.151707
C11   C     C_R   0.374824 0.141686 0.182718 -0.108523
C12   C     C_R   0.736873 0.001147 0.501965 0.783096
C13   C     C_R   0.363916 0.022357 0.170880 -0.119438
C14   C     C_R   0.271291 0.987353 0.248048 -0.094731
C15   C     C_R   0.189097 0.071996 0.338003 0.132173
C16   C     C_R   0.312582 0.288432 0.020398 -0.213647
C17   C     C_R   0.457293 0.227131 0.836000 -0.046249
C18   C     C_R   0.639078 0.805422 0.089804 -0.234800
C19   C     C_R   0.688453 0.719052 0.979137 0.323004
C20   C     C_R   0.635045 0.597891 0.942810 -0.274021
C21   C     C_R   0.530457 0.561289 0.013472 0.049757
C22   C     C_R   0.477689 0.651544 0.122518 0.079172
C23   C     C_R   0.482126 0.144815 0.713392 0.784524
C24   C     C_R   0.475920 0.438176 0.979427 0.094293
C25   C     C_R   0.368288 0.408888 0.053209 0.163830
C26   C     C_R   0.313565 0.500619 0.156594 -0.251429
C27   C     C_R   0.365176 0.620456 0.189292 -0.183224
C28   C     C_R   0.521833 0.343366 0.872596 -0.259321
C29   C     C_R   0.356324 0.197875 0.911644 -0.214374
C30   C     C_R   0.538697 0.771364 0.163049 -0.166616
C31   C     C_R   0.708687 0.340943 0.323418 -0.316498
C32   C     C_R   0.308161 0.751055 0.626676 0.078711
C33   C     C_R   0.242958 0.639652 0.616751 -0.270479
C34   C     C_R   0.263269 0.998278 0.497352 0.772984
C35   C     C_R   0.306201 0.533942 0.549207 -0.186231
C36   C     C_R   0.439455 0.539868 0.505150 -0.005023
C37   C     C_R   0.492922 0.650390 0.497754 0.291929
C38   C     C_R   0.517277 0.438200 0.457043 -0.039435
C39   C     C_R   0.632615 0.439732 0.377583 0.135899
C40   C     C_R   0.673197 0.541795 0.355029 -0.282713
C41   C     C_R   0.606953 0.646369 0.416462 -0.175668
C42   C     C_R   0.493834 0.341765 0.492811 0.307660
C43   C     C_R   0.676022 0.243830 0.353212 0.038411
C44   C     C_R   0.635759 0.960495 0.820162 -0.121813
C45   C     C_R   0.732972 0.001300 0.749919 -0.111673
C46   C     C_R   0.810816 0.917898 0.653776 0.121013
C47   C     C_R   0.791824 0.793835 0.630264 -0.143116
C48   C     C_R   0.693722 0.753281 0.700038 -0.103089
Cu1   Cu    Cu3+1 0.529370 0.098270 0.475420 0.924970
Cu2   Cu    Cu3+1 0.470630 0.901730 0.524580 0.924477
H1    H     H_    0.539547 0.804823 0.848525 0.120815
H2    H     H_    0.447152 0.168905 0.123480 0.133630
H3    H     H_    0.427700 0.957171 0.102302 0.123454
H4    H     H_    0.264349 0.894870 0.238517 0.090950
H5    H     H_    0.306127 0.107373 0.884122 0.146164
H6    H     H_    0.228716 0.480026 0.211512 0.138516
H7    H     H_    0.230871 0.265629 0.076486 0.138064
H8    H     H_    0.603577 0.357567 0.812495 0.141210
H9    H     H_    0.683110 0.898121 0.122475 0.157078
H10   H     H_    0.677782 0.534877 0.857987 0.117725
H11   H     H_    0.575207 0.024826 0.893544 0.119588
H12   H     H_    0.314399 0.688851 0.267132 0.162571
H13   H     H_    0.734440 0.167278 0.310384 0.123311
H14   H     H_    0.760284 0.542913 0.292772 0.152724
H15   H     H_    0.794661 0.339777 0.259402 0.139399
H16   H     H_    0.257173 0.832544 0.673604 0.117835
H17   H     H_    0.247421 0.448681 0.523395 0.134077
H18   H     H_    0.141735 0.634393 0.654745 0.140478
H19   H     H_    0.645387 0.720186 0.394159 0.201072
H20   H     H_    0.746015 0.097210 0.768935 0.101024
H21   H     H_    0.850361 0.728232 0.556032 0.125599
H22   H     H_    0.678022 0.657265 0.680428 0.126063
H23   H     H_    0.063796 0.924689 0.621499 0.146572
H24   H     H_    0.936113 0.071409 0.375344 0.148166
H25   H     H_    0.135322 0.256772 0.415732 0.115298
H26   H     H_    0.300408 0.318090 0.279751 0.136788
N1    N     N_R   0.573890 0.246290 0.438210 -0.189893
N2    N     N_R   0.426890 0.754320 0.561170 -0.201462
O1    O     O_R   0.536940 0.972510 0.318130 -0.575033
O2    O     O_R   0.487330 0.806530 0.359650 -0.589698
O3    O     O_R   0.705160 0.082990 0.479250 -0.586537
O4    O     O_R   0.655550 0.917010 0.520760 -0.587178
O5    O     O_R   0.512670 0.193470 0.640350 -0.588520
O6    O     O_R   0.463060 0.027490 0.681870 -0.579571
O7    O     O_R   0.344450 0.082990 0.479240 -0.591121
O8    O     O_R   0.294840 0.917010 0.520750 -0.595758
N3    N     N_2   0.792922 0.749834 0.902709 -0.426564
H27   H     H_    0.842065 0.678107 0.836812 0.239564
C49   C     C_3   0.870993 0.864675 0.946340 -0.703137
H28   H     H_    0.948900 0.870145 0.875274 0.220346
H29   H     H_    0.915457 0.871641 0.016139 0.221571
H30   H     H_    0.811836 0.942252 0.978330 0.232317
C50   C     C_3   0.396801 0.356854 0.603961 -0.324116
C51   C     C_3   0.443502 0.459707 0.710563 -0.845628
H31   H     H_    0.543868 0.449102 0.708888 0.249394
H32   H     H_    0.440611 0.550287 0.714024 0.248993
H33   H     H_    0.380551 0.457265 0.790040 0.249798
H34   H     H_    0.298873 0.367792 0.604415 0.150844
H35   H     H_    0.371169 0.275323 0.616883 0.249720

loop_
_geom_bond_atom_site_label_1
_geom_bond_atom_site_label_2
_ccdc_geom_bond_type
N3    H27   S    
C50   C51   S    
C42   C50   S    
C17   C29   A    
C35   C36   A    
Cu2   O6    S    
C7    C8    A    
C45   C46   A    
C26   C27   A    
C17   C23   S    
C23   O5    A    
C41   H19   S    
C36   C37   A    
C38   C42   A    
C19   N3    S    
C38   C39   A    
C18   C19   A    
C34   O8    A    
Cu1   O3    S    
C11   H2    S    
C10   H26   S    
C19   C20   A    
C2    C44   A    
C18   C30   A    
C49   H29   S    
C9    C10   A    
C50   H35   S    
C21   C22   A    
C37   C41   A    
C48   H22   S    
Cu2   N2    S    
C6    H24   S    
C13   H3    S    
C7    C12   S    
C4    C34   S    
C23   O6    A    
C43   H13   S    
Cu1   O7    S    
C24   C25   A    
C3    C8    A    
C2    H1    S    
C39   C40   A    
C29   H5    S    
C51   H33   S    
C2    C48   A    
C16   C29   A    
Cu1   O1    S    
C26   H6    S    
C34   O7    A    
C27   H12   S    
C47   C48   A    
C35   H17   S    
C12   O4    A    
C49   H30   S    
C51   H32   S    
C47   H21   S    
C31   C43   A    
C40   C41   A    
C14   H4    S    
C22   C27   A    
N3    C49   S    
C1    O1    A    
C20   H10   S    
C3    C4    A    
C44   C45   A    
Cu2   O4    S    
C32   H16   S    
C16   C25   A    
C31   H15   S    
C46   C47   A    
C22   C30   A    
C45   H20   S    
C17   C28   A    
C24   C28   A    
C4    C5    A    
Cu2   O2    S    
C6    C7    A    
C28   H8    S    
C44   H11   S    
C43   N1    A    
C37   N2    A    
C40   H14   S    
C32   C33   A    
Cu1   O5    S    
C36   C38   A    
C25   C26   A    
C11   C13   A    
C5    C6    A    
C1    C30   S    
C33   C35   A    
Cu1   N1    S    
C12   O3    A    
C16   H7    S    
C9    C15   A    
C51   H31   S    
C3    H23   S    
C8    C46   S    
C5    C15   S    
C10   C11   A    
Cu2   O8    S    
C32   N2    A    
C18   H9    S    
C20   C21   A    
C42   N1    A    
Cu1   Cu2   S    
C21   C24   A    
C31   C39   A    
C1    O2    A    
C14   C15   A    
C9    H25   S    
C49   H28   S    
C13   C14   A    
C50   H34   S    
C33   H18   S    
