data_mof_unit_40582.cif
_audit_creation_date              2013-03-05T16:06:16-0500
_audit_creation_method            fapswitch 2.2
_symmetry_space_group_name_H-M    P1
_symmetry_Int_Tables_number       1
_space_group_crystal_system       triclinic
_cell_length_a                    10.817336
_cell_length_b                    9.674489
_cell_length_c                    27.809965
_cell_angle_alpha                 89.995915
_cell_angle_beta                  95.129001
_cell_angle_gamma                 90.006724
_cell_volume                      2898.72063834

loop_
_atom_site_label
_atom_site_type_symbol
_atom_site_description
_atom_site_fract_x
_atom_site_fract_y
_atom_site_fract_z
_atom_type_partial_charge
O1    O     O_R   0.319640 0.618740 0.500000 -0.588026
O2    O     O_R   0.680360 0.381260 0.500000 -0.588382
O3    O     O_R   0.680360 0.618740 0.500000 -0.587990
O4    O     O_R   0.319640 0.381260 0.500000 -0.588314
C1    C     C_R   0.262489 0.499994 0.499815 0.777982
C2    C     C_R   0.737511 0.500003 0.500186 0.777948
O5    O     O_R   0.500020 0.618770 0.430260 -0.584321
O6    O     O_R   0.499980 0.381230 0.569740 -0.584787
O7    O     O_R   0.499980 0.618770 0.569740 -0.584556
O8    O     O_R   0.500020 0.381230 0.430260 -0.584972
C3    C     C_R   0.499060 0.499994 0.407593 0.786925
C4    C     C_R   0.500956 0.499994 0.592409 0.786908
Cu1   Cu    Cu3+1 0.500000 0.640660 0.500000 0.933717
Cu2   Cu    Cu3+1 0.500000 0.359340 0.500000 0.933111
C5    C     C_R   0.382261 0.513317 0.174208 0.538229
C6    C     C_R   0.618023 0.511971 0.825777 0.538361
O9    O     O_2   0.277217 0.524316 0.196564 -0.540951
O10   O     O_2   0.723164 0.521641 0.803419 -0.540636
N1    N     N_R   0.492437 0.500092 0.201963 -0.469840
N2    N     N_R   0.507711 0.500277 0.798024 -0.470074
C7    C     C_R   0.602390 0.487642 0.181999 0.532399
C8    C     C_R   0.397620 0.489334 0.817970 0.532516
C9    C     C_R   0.501045 0.374910 0.278916 -0.107029
C10   C     C_R   0.509879 0.625225 0.721393 -0.107609
C11   C     C_R   0.502847 0.374730 0.329126 -0.215454
C12   C     C_R   0.507617 0.625379 0.671179 -0.215248
C13   C     C_R   0.488861 0.625107 0.328701 -0.215635
C14   C     C_R   0.500860 0.374619 0.671013 -0.215157
C15   C     C_R   0.486560 0.624880 0.278484 -0.106755
C16   C     C_R   0.502790 0.374858 0.721226 -0.107246
C17   C     C_R   0.492892 0.499902 0.253516 0.371164
C18   C     C_R   0.507257 0.500077 0.746483 0.372375
C19   C     C_R   0.493331 0.502068 0.101855 -0.083173
C20   C     C_R   0.506824 0.502167 0.898122 -0.083155
C21   C     C_R   0.379097 0.514606 0.123007 -0.038142
C22   C     C_R   0.621196 0.513202 0.876978 -0.038309
C23   C     C_R   0.267623 0.529125 0.092208 0.171653
C24   C     C_R   0.732811 0.526273 0.907783 0.171922
C25   C     C_R   0.605130 0.488708 0.131817 -0.009787
C26   C     C_R   0.394882 0.490364 0.868152 -0.009918
C27   C     C_R   0.497065 0.499953 0.354530 -0.033614
C28   C     C_R   0.503004 0.499992 0.645475 -0.033640
H1    H     H_    0.484171 0.723167 0.347206 0.159458
H2    H     H_    0.497405 0.276395 0.652268 0.160783
H3    H     H_    0.480465 0.721781 0.258925 0.134317
H4    H     H_    0.500707 0.277851 0.740568 0.134138
C29   C     C_R   0.387672 0.498407 0.969632 0.065092
C30   C     C_R   0.612433 0.496885 0.030342 0.065068
C31   C     C_R   0.615614 0.507144 0.979424 -0.002367
C32   C     C_R   0.384601 0.508603 0.020555 -0.002324
C33   C     C_R   0.503497 0.502657 0.949186 0.068905
C34   C     C_R   0.496662 0.502602 0.050791 0.068924
C35   C     C_R   0.278397 0.482058 0.938314 -0.212493
C36   C     C_R   0.721522 0.479043 0.061650 -0.212721
C37   C     C_R   0.282162 0.478619 0.888677 -0.143541
C38   C     C_R   0.717715 0.475525 0.111284 -0.143484
O11   O     O_2   0.290872 0.478035 0.789124 -0.533293
O12   O     O_2   0.709032 0.474956 0.210830 -0.533664
C39   C     C_R   0.272561 0.526568 0.042105 -0.197840
C40   C     C_R   0.727841 0.523710 0.957885 -0.197739
H5    H     H_    0.509405 0.723581 0.652571 0.159961
H6    H     H_    0.509185 0.276689 0.347976 0.161257
H7    H     H_    0.513104 0.722288 0.740858 0.133759
H8    H     H_    0.506019 0.278032 0.259686 0.134894
H9    H     H_    0.195478 0.466406 0.866352 0.188476
H10   H     H_    0.804260 0.462130 0.133600 0.188362
H11   H     H_    0.188096 0.467341 0.951019 0.134741
H12   H     H_    0.811660 0.463190 0.048935 0.135046
H13   H     H_    0.186508 0.543513 0.020323 0.137004
H14   H     H_    0.814063 0.539529 0.979677 0.136935
C41   C     C_R   0.063885 0.374387 0.499847 -0.178877
C42   C     C_R   0.936116 0.625596 0.500151 -0.178814
C43   C     C_R   0.936052 0.374393 0.500009 -0.178871
C44   C     C_R   0.063948 0.625590 0.499999 -0.178792
H15   H     H_    0.111832 0.276122 0.499759 0.154204
H16   H     H_    0.888172 0.723861 0.500228 0.154117
H17   H     H_    0.888053 0.276130 0.499976 0.154213
H18   H     H_    0.111944 0.723852 0.500044 0.154125
C45   C     C_R   0.871593 0.499999 0.500155 -0.012154
C46   C     C_R   0.128408 0.499988 0.499847 -0.012160
C47   C     C_R   0.418904 0.074173 0.468440 0.233133
C48   C     C_R   0.581183 0.925840 0.531527 0.233939
C49   C     C_R   0.581106 0.074177 0.531556 0.233426
C50   C     C_R   0.418794 0.925836 0.468482 0.234353
N3    N     N_R   0.500000 0.852070 0.500000 -0.189711
N4    N     N_R   0.500000 0.147930 0.500000 -0.189911
C51   C     C_3   0.326570 0.145945 0.432275 -0.772664
H19   H     H_    0.326366 0.257788 0.432526 0.273697
H20   H     H_    0.344989 0.117143 0.394973 0.198680
H21   H     H_    0.230480 0.116176 0.438821 0.195584
C52   C     C_3   0.674049 0.854096 0.567489 -0.774014
H22   H     H_    0.673590 0.742245 0.567505 0.273479
H23   H     H_    0.769975 0.883191 0.560460 0.195842
H24   H     H_    0.656914 0.883675 0.604848 0.197626
C53   C     C_3   0.673598 0.145950 0.567661 -0.773131
H25   H     H_    0.673586 0.257797 0.567498 0.273641
H26   H     H_    0.655587 0.116863 0.604981 0.198223
H27   H     H_    0.769643 0.116445 0.560961 0.195740
C54   C     C_3   0.325731 0.854093 0.432596 -0.774544
H28   H     H_    0.326449 0.742242 0.432472 0.273387
H29   H     H_    0.229870 0.882886 0.439809 0.195985
H30   H     H_    0.342373 0.884003 0.395218 0.197202
C55   C     C_3   0.141229 0.547993 0.110680 -0.749063
H31   H     H_    0.066073 0.559364 0.080997 0.187262
H32   H     H_    0.117494 0.456149 0.131947 0.258962
H33   H     H_    0.140282 0.643215 0.132916 0.259561
C56   C     C_3   0.859389 0.543605 0.889319 -0.749345
H34   H     H_    0.934651 0.554046 0.919006 0.186847
H35   H     H_    0.882197 0.451492 0.868016 0.259081
H36   H     H_    0.861299 0.638823 0.867119 0.259599

loop_
_geom_bond_atom_site_label_1
_geom_bond_atom_site_label_2
_geom_bond_distance
_ccdc_geom_bond_type
C41   H15   1.083107 S    
C51   H19   1.082054 S    
C13   C15   1.394533 A    
C53   H25   1.082069 S    
C42   H16   1.083075 S    
O3    C2    1.304366 A    
N1    C17   1.433256 S    
C8    O11   1.350272 S    
C53   H27   1.109195 S    
C19   C34   1.423787 A    
C30   C36   1.413056 A    
C20   C33   1.423766 A    
C19   C25   1.411884 A    
C31   C40   1.410043 A    
O1    C1    1.304317 A    
C32   C39   1.410025 A    
N1    C7    1.362175 A    
C12   H5    1.082814 S    
C10   C12   1.394486 A    
C42   C45   1.401214 A    
C36   H12   1.077495 S    
C14   C28   1.406747 A    
C24   C56   1.514006 S    
O7    Cu1   1.950999 S    
C4    C28   1.473954 S    
C5    N1    1.366770 A    
C25   C38   1.396393 A    
C31   C33   1.413357 A    
C32   C34   1.413355 A    
C56   H34   1.111053 S    
C47   N4    1.382514 A    
O3    Cu1   1.962531 S    
C6    N2    1.366644 A    
C29   C35   1.413067 A    
C49   C53   1.520414 S    
C44   C46   1.401251 A    
Cu1   Cu2   2.721627 S    
C56   H35   1.110077 S    
O2    C2    1.304295 A    
O2    Cu2   1.962481 S    
C5    C21   1.421320 A    
C41   C46   1.401239 A    
C37   H9    1.083771 S    
C29   C32   1.422972 A    
C35   C37   1.385035 A    
C36   C38   1.385035 A    
C50   N3    1.382607 A    
Cu2   N4    2.045285 S    
C42   C44   1.383194 A    
O8    Cu2   1.950999 S    
C11   C27   1.406688 A    
C52   H22   1.082108 S    
C23   C55   1.514000 S    
C29   C33   1.422027 A    
C14   H2    1.082941 S    
C48   C52   1.520371 S    
C15   H3    1.082853 S    
C9    C17   1.399196 A    
O5    C3    1.310280 A    
C10   C18   1.398915 A    
C52   H23   1.109217 S    
C13   C27   1.406554 A    
C54   H28   1.082136 S    
C7    C25   1.398572 A    
C40   H14   1.076818 S    
O6    C4    1.310194 A    
C26   C37   1.396386 A    
C8    C26   1.398551 A    
C49   N4    1.382541 A    
C43   C45   1.401275 A    
C55   H32   1.110074 S    
C23   C39   1.399385 A    
C1    C46   1.450483 S    
C47   C51   1.520431 S    
C39   H13   1.076820 S    
C24   C40   1.399390 A    
C9    H8    1.082842 S    
C54   H29   1.109236 S    
N2    C8    1.362055 A    
C10   H7    1.082927 S    
C51   H20   1.109286 S    
C56   H36   1.110134 S    
C20   C26   1.411928 A    
O1    Cu1   1.962481 S    
C47   C50   1.435086 A    
C12   C28   1.406661 A    
C41   C43   1.383230 A    
N2    C18   1.432921 S    
C5    O9    1.347356 S    
C30   C31   1.422963 A    
O6    Cu2   1.951029 S    
C21   C23   1.422233 A    
C50   C54   1.520350 S    
C16   H4    1.082908 S    
O4    C1    1.304345 A    
C53   H26   1.109241 S    
C48   N3    1.382585 A    
C22   C24   1.422220 A    
C7    O12   1.350300 S    
C15   C17   1.399071 A    
C6    C22   1.421306 A    
C52   H24   1.109128 S    
C16   C18   1.399037 A    
C2    C45   1.450482 S    
C38   H10   1.083756 S    
C14   C16   1.394710 A    
C19   C21   1.420460 A    
C3    C27   1.473888 S    
C55   H33   1.110142 S    
C20   C22   1.420502 A    
C11   H6    1.082901 S    
C9    C11   1.394732 A    
O4    Cu2   1.962531 S    
C35   H11   1.077480 S    
O7    C4    1.310223 A    
O8    C3    1.310106 A    
C13   H1    1.082653 S    
O5    Cu1   1.951029 S    
C54   H30   1.109055 S    
C6    O10   1.347326 S    
C48   C49   1.435087 A    
C44   H18   1.083070 S    
C51   H21   1.109172 S    
Cu1   N3    2.045284 S    
C55   H31   1.111053 S    
C43   H17   1.083102 S    
C30   C34   1.422022 A    
