data_mof_unit_29150.cif
_audit_creation_date              2012-12-10T17:22:07-0500
_audit_creation_method            fapswitch 2.2
_symmetry_space_group_name_H-M    P1
_symmetry_Int_Tables_number       1
_space_group_crystal_system       triclinic
_cell_length_a                    10.124786
_cell_length_b                    10.829067
_cell_length_c                    15.760407
_cell_angle_alpha                 89.972001
_cell_angle_beta                  81.663663
_cell_angle_gamma                 95.311408
_cell_volume                      1702.23347893

loop_
_atom_site_label
_atom_site_type_symbol
_atom_type_description
_atom_site_fract_x
_atom_site_fract_y
_atom_site_fract_z
_atom_type_partial_charge
C1    C     C_R   0.556092 0.732594 0.492118 0.939408
C2    C     C_3   0.427702 0.629259 0.056261 -0.030146
C3    C     C_3   0.491660 0.511002 0.083935 -0.028918
C4    C     C_3   0.416491 0.387570 0.055666 0.296254
C5    C     C_3   0.418846 0.389810 0.957188 -0.508736
C6    C     C_1   0.495383 0.506803 0.175049 0.097211
C7    C     C_1   0.499798 0.507350 0.825485 -0.028153
C8    C     C_1   0.501910 0.503179 0.750160 -0.185717
C9    C     C_2   0.587780 0.864468 0.480258 -0.352084
C10   C     C_2   0.487204 0.933944 0.475191 -0.137905
C11   C     C_2   0.411818 0.135518 0.497828 -0.359512
C12   C     C_R   0.500577 0.500060 0.661575 0.902915
C13   C     C_2   0.511868 0.066003 0.472706 -0.135002
C14   C     C_2   0.927462 0.510531 0.506849 -0.113913
C15   C     C_2   0.072678 0.489899 0.492798 -0.109792
C16   C     C_R   0.443824 0.267406 0.503317 0.941587
C17   C     C_R   0.499380 0.500222 0.338462 0.899254
C18   C     C_3   0.421919 0.628654 0.956145 0.345083
C19   C     C_3   0.640317 0.518287 0.938214 -0.494198
C20   C     C_3   0.640067 0.513212 0.036220 0.156746
C21   C     C_1   0.498010 0.503272 0.249959 -0.051603
C22   C     C_3   0.494453 0.512810 0.917484 0.167643
H1    H     H_    0.497392 0.709214 0.069917 0.223257
H2    H     H_    0.477198 0.311244 0.069568 0.095607
H3    H     H_    0.615018 0.105842 0.455544 0.192610
H4    H     H_    0.383823 0.894085 0.478688 0.192363
H5    H     H_    0.308959 0.095215 0.515078 0.155535
H6    H     H_    0.690875 0.904790 0.476901 0.157766
H7    H     H_    0.108565 0.421953 0.446537 0.173124
H8    H     H_    0.891688 0.578834 0.552853 0.163126
H9    H     H_    0.120057 0.614882 0.577967 0.167256
H10   H     H_    0.879815 0.384734 0.422284 0.173593
H11   H     H_    0.690033 0.437687 0.908964 0.175990
H12   H     H_    0.701878 0.601309 0.908238 0.238898
H13   H     H_    0.678466 0.423648 0.050963 0.101819
H14   H     H_    0.317068 0.375113 0.938822 0.237864
H15   H     H_    0.471123 0.309723 0.929397 0.170176
N1    N     N_2   0.842720 0.448890 0.465540 -0.187201
N2    N     N_2   0.157250 0.551040 0.534500 -0.194909
O1    O     O_R   0.431050 0.692470 0.506940 -0.616143
O2    O     O_R   0.651130 0.659650 0.484820 -0.605464
O3    O     O_R   0.389910 0.516410 0.633920 -0.606401
O4    O     O_R   0.609990 0.483590 0.611800 -0.611966
O5    O     O_R   0.348870 0.340350 0.515180 -0.610489
O6    O     O_R   0.568950 0.307530 0.493060 -0.615422
O7    O     O_R   0.390010 0.516410 0.388200 -0.603263
O8    O     O_R   0.610090 0.483590 0.366080 -0.588845
Zn1   Zn    Zn3+2 0.353060 0.521920 0.514770 0.962082
Zn2   Zn    Zn3+2 0.646940 0.478080 0.485230 0.974992
C23   C     C_3   0.276068 0.623372 0.934080 -0.765175
H16   H     H_    0.210835 0.543713 0.964521 0.267856
H17   H     H_    0.227886 0.708466 0.955089 0.261018
H18   H     H_    0.275465 0.617230 0.863815 0.230968
C24   C     C_3   0.296694 0.657994 0.113382 -0.738644
H19   H     H_    0.211622 0.588870 0.107392 0.315523
H20   H     H_    0.310433 0.663017 0.181914 0.248592
H21   H     H_    0.268994 0.750395 0.095578 0.238578
C25   C     C_3   0.493209 0.752789 0.915444 -0.872288
H22   H     H_    0.440134 0.832351 0.942793 0.251304
H23   H     H_    0.597905 0.769827 0.927953 0.266405
H24   H     H_    0.493959 0.754943 0.844908 0.242390
S1    S     S_3+6 0.764110 0.628415 0.068868 0.024166
O9    O     O_2   0.733899 0.758333 0.051266 -0.277384
O10   O     O_2   0.772916 0.614578 0.162709 -0.281846
O11   O     O_3   0.914282 0.606303 0.012781 -0.520272
H25   H     H_    0.933419 0.522857 0.030607 0.372754
S2    S     S_3+6 0.251626 0.336882 0.113624 0.003715
O12   O     O_2   0.141545 0.369897 0.065756 -0.335436
O13   O     O_2   0.242224 0.198063 0.122923 -0.268405
O14   O     O_3   0.227045 0.397415 0.212283 -0.575564
H26   H     H_    0.137227 0.360565 0.238548 0.385364

loop_
_geom_bond_atom_site_label_1
_geom_bond_atom_site_label_2
_ccdc_geom_bond_type
C16   O6    A    
C4    S2    S    
C23   H17   S    
C19   H12   S    
S1    O9    D    
H10   N1    S    
C2    C18   S    
C7    C22   S    
C17   O8    A    
C9    C10   D    
C16   O5    A    
S1    O10   D    
C19   C20   S    
C1    O1    A    
C11   H5    S    
C8    C12   S    
S2    O14   S    
C13   H3    S    
C24   H21   S    
C10   H4    S    
C25   H24   S    
C18   C22   S    
C2    C3    S    
C3    C20   S    
O8    Zn2   S    
N1    Zn2   S    
O3    Zn1   S    
C6    C21   T    
C11   C13   D    
C15   N2    D    
O14   H26   S    
C14   H8    S    
C4    C5    S    
O2    Zn2   S    
H9    N2    S    
O6    Zn2   S    
C15   H7    S    
C12   O4    A    
C24   H20   S    
C20   S1    S    
C4    H2    S    
O7    Zn1   S    
C23   H18   S    
C14   N1    D    
C5    H15   S    
C25   H23   S    
S2    O12   D    
C5    H14   S    
O5    Zn1   S    
C7    C8    T    
C19   C22   S    
C1    C9    S    
C17   O7    A    
C18   C23   S    
O11   H25   S    
C2    C24   S    
C3    C6    S    
C1    O2    A    
C2    H1    S    
O1    Zn1   S    
C24   H19   S    
O4    Zn2   S    
C12   O3    A    
S1    O11   S    
C23   H16   S    
C25   H22   S    
C14   C15   S    
C20   H13   S    
C18   C25   S    
C11   C16   S    
C17   C21   S    
C5    C22   S    
C3    C4    S    
C9    H6    S    
C19   H11   S    
N2    Zn1   S    
S2    O13   D    
C10   C13   S    
