data_mof_unit_7501.cif
_audit_creation_date              2012-12-10T17:29:12-0500
_audit_creation_method            fapswitch 2.2
_symmetry_space_group_name_H-M    P1
_symmetry_Int_Tables_number       1
_space_group_crystal_system       triclinic
_cell_length_a                    11.991382
_cell_length_b                    12.835178
_cell_length_c                    13.002438
_cell_angle_alpha                 86.923203
_cell_angle_beta                  113.096329
_cell_angle_gamma                 94.722691
_cell_volume                      1834.07140103

loop_
_atom_site_label
_atom_site_type_symbol
_atom_type_description
_atom_site_fract_x
_atom_site_fract_y
_atom_site_fract_z
_atom_type_partial_charge
C1    C     C_R   0.476507 0.299440 0.499633 0.874910
C2    C     C_R   0.613665 0.516504 0.829445 -0.131767
C3    C     C_R   0.541089 0.813269 0.501761 -0.238697
C4    C     C_R   0.567347 0.502088 0.708792 0.904708
C5    C     C_R   0.459269 0.187990 0.497322 -0.043094
C6    C     C_R   0.337954 0.032409 0.416202 -0.188491
C7    C     C_R   0.346565 0.138795 0.433691 -0.203993
C8    C     C_R   0.560829 0.131219 0.551177 -0.211141
C9    C     C_R   0.553581 0.025545 0.534103 0.039070
C10   C     C_R   0.442712 0.975676 0.461820 0.069154
C11   C     C_R   0.439194 0.869744 0.440377 0.313677
C12   C     C_R   0.572923 0.550464 0.991505 -0.144675
C13   C     C_R   0.652221 0.864264 0.571548 0.345158
C14   C     C_R   0.657012 0.970313 0.587080 -0.223465
C15   C     C_R   0.011777 0.601502 0.397623 -0.249869
C16   C     C_R   0.523963 0.700871 0.501051 0.971093
C17   C     C_R   0.131103 0.590855 0.406958 0.034210
C18   C     C_R   0.157197 0.456784 0.545531 -0.048804
C19   C     C_R   0.037210 0.464039 0.538309 0.083397
C20   C     C_R   0.963715 0.537618 0.463443 0.099366
C21   C     C_R   0.843717 0.544820 0.456272 -0.001032
C22   C     C_R   0.868805 0.408969 0.592798 0.028337
C23   C     C_R   0.545641 0.566262 0.877318 0.002962
C24   C     C_R   0.988876 0.399653 0.603570 -0.321818
C25   C     C_R   0.434042 0.506248 0.290833 0.880536
C26   C     C_R   0.287372 0.631929 0.006509 -0.217610
C27   C     C_R   0.398876 0.530621 0.172134 -0.077858
C28   C     C_R   0.722703 0.473288 0.898313 -0.425532
C29   C     C_R   0.764292 0.478475 0.014811 0.509073
C30   C     C_R   0.690798 0.518552 0.062146 0.417274
C31   C     C_3   0.257823 0.721644 0.784419 -0.443201
C32   C     C_3   0.254639 0.760389 0.669270 -0.329928
C33   C     C_3   0.143093 0.821725 0.605636 -0.844595
C34   C     C_R   0.479159 0.562342 0.028759 0.079712
C35   C     C_R   0.376125 0.618263 0.962783 0.132754
C36   C     C_R   0.364678 0.657420 0.855367 0.059401
C37   C     C_R   0.450189 0.629667 0.814075 -0.155112
C38   C     C_R   0.481150 0.510787 0.126115 -0.254612
C39   C     C_R   0.300546 0.590540 0.111900 -0.161698
H1    H     H_    0.236273 0.607806 0.147356 0.169243
H2    H     H_    0.167567 0.639996 0.355773 0.171907
H3    H     H_    0.214974 0.400813 0.602950 0.134825
H4    H     H_    0.208971 0.676139 0.961541 0.143619
H5    H     H_    0.549795 0.456395 0.169530 0.202036
H6    H     H_    0.776021 0.436509 0.861516 0.171888
H7    H     H_    0.444364 0.658402 0.732887 0.158956
H8    H     H_    0.772496 0.772882 0.575750 0.345115
H9    H     H_    0.058631 0.771432 0.591431 0.259725
H10   H     H_    0.143896 0.891298 0.653236 0.263687
H11   H     H_    0.143657 0.848471 0.523153 0.255254
H12   H     H_    0.249588 0.996056 0.366773 0.150220
H13   H     H_    0.337425 0.811934 0.679823 0.226240
H14   H     H_    0.250936 0.692589 0.618280 0.242149
H15   H     H_    0.172316 0.672887 0.770612 0.212294
H16   H     H_    0.259480 0.791149 0.832629 0.208734
H17   H     H_    0.703078 0.592628 0.192074 0.316291
H18   H     H_    0.916994 0.419562 0.038394 0.318817
H19   H     H_    0.301288 0.867190 0.297594 0.324443
H20   H     H_    0.741699 0.009313 0.641945 0.172608
H21   H     H_    0.266997 0.183181 0.393590 0.161993
H22   H     H_    0.646865 0.170304 0.603536 0.139535
H23   H     H_    0.786483 0.601798 0.400133 0.121557
H24   H     H_    0.831938 0.359115 0.643216 0.123048
H25   H     H_    0.957577 0.658881 0.339199 0.159517
H26   H     H_    0.043181 0.342415 0.662137 0.147289
N1    N     N_R   0.798200 0.480260 0.519790 -0.100117
N2    N     N_R   0.201820 0.519740 0.480210 -0.113855
O1    O     O_R   0.579910 0.341070 0.505280 -0.617824
O2    O     O_3   0.740846 0.532974 0.176100 -0.749176
O3    O     O_3   0.875989 0.444575 0.084574 -0.720812
O4    O     O_3   0.338040 0.818610 0.361769 -0.779215
O5    O     O_R   0.388440 0.353740 0.492580 -0.617369
O6    O     O_R   0.643280 0.490550 0.663120 -0.611009
O7    O     O_R   0.451810 0.503220 0.650420 -0.632778
O8    O     O_R   0.611560 0.646260 0.507420 -0.638477
O9    O     O_R   0.420090 0.658930 0.494720 -0.585571
O10   O     O_R   0.548190 0.496780 0.349580 -0.609151
O11   O     O_R   0.356720 0.509450 0.336880 -0.605607
O12   O     O_3   0.755160 0.812366 0.630538 -0.753515
Zn1   Zn    Zn3+2 0.627850 0.491540 0.508480 0.951540
Zn2   Zn    Zn3+2 0.372150 0.508460 0.491520 0.954147

loop_
_geom_bond_atom_site_label_1
_geom_bond_atom_site_label_2
_ccdc_geom_bond_type
O1    Zn1   S    
C13   O12   S    
C21   N1    A    
C16   O8    A    
C32   H14   S    
C19   C20   A    
H8    O12   S    
C14   H20   S    
C12   C23   A    
C25   O10   A    
C36   C37   A    
C18   C19   A    
C18   H3    S    
C11   O4    S    
C26   C39   A    
C27   C38   A    
C33   H10   S    
C1    O1    A    
C34   C35   A    
C32   H13   S    
C22   H24   S    
C22   N1    A    
C35   C36   A    
C27   C39   A    
C8    C9    A    
C15   H25   S    
H18   O3    S    
C9    C10   A    
C4    O7    A    
O5    Zn2   S    
C3    C13   A    
C8    H22   S    
C34   C38   A    
C13   C14   A    
C26   H4    S    
C15   C20   A    
C28   H6    S    
C17   N2    A    
C1    O5    A    
C25   O11   A    
C39   H1    S    
C5    C7    A    
C33   H11   S    
C23   C37   A    
C2    C4    S    
C9    C14   A    
C38   H5    S    
C29   C30   A    
C31   C32   S    
C21   H23   S    
C4    O6    A    
C24   H26   S    
N2    Zn2   S    
C6    H12   S    
C1    C5    S    
O7    Zn2   S    
C12   C34   A    
C7    H21   S    
C30   O2    S    
C29   O3    S    
O8    Zn1   S    
O10   Zn1   S    
C15   C17   A    
C28   C29   A    
C12   C30   A    
C16   O9    A    
O9    Zn2   S    
C6    C10   A    
C5    C8    A    
C6    C7    A    
C25   C27   S    
N1    Zn1   S    
C32   C33   S    
C19   C24   A    
C18   N2    A    
O11   Zn2   S    
O6    Zn1   S    
C22   C24   A    
C31   H15   S    
H19   O4    S    
C17   H2    S    
C3    C11   A    
C10   C11   A    
C26   C35   A    
C20   C21   A    
H17   O2    S    
C2    C23   A    
C33   H9    S    
C31   C36   S    
C2    C28   A    
C31   H16   S    
C37   H7    S    
C3    C16   S    
