data_mof_unit_58995.cif
_audit_creation_date              2012-12-10T19:46:25-0500
_audit_creation_method            fapswitch 2.2
_symmetry_space_group_name_H-M    P1
_symmetry_Int_Tables_number       1
_space_group_crystal_system       triclinic
_cell_length_a                    10.974033
_cell_length_b                    10.938678
_cell_length_c                    10.43686
_cell_angle_alpha                 92.572939
_cell_angle_beta                  91.391373
_cell_angle_gamma                 90.184165
_cell_volume                      1251.21175695

loop_
_atom_site_label
_atom_site_type_symbol
_atom_type_description
_atom_site_fract_x
_atom_site_fract_y
_atom_site_fract_z
_atom_type_partial_charge
C1    C     C_R   0.498897 0.261338 0.497314 0.915166
C2    C     C_R   0.501109 0.738661 0.502686 0.915133
C3    C     C_R   0.872647 0.489233 0.504999 -0.162509
C4    C     C_R   0.127351 0.510763 0.495000 -0.162520
C5    C     C_R   0.940857 0.529109 0.616450 -0.038726
C6    C     C_R   0.059141 0.470887 0.383548 -0.038704
C7    C     C_R   0.506562 0.162331 0.049868 0.543151
C8    C     C_R   0.493410 0.837781 0.950169 0.543114
C9    C     C_R   0.476748 0.132834 0.174575 0.325427
C10   C     C_R   0.523244 0.867240 0.825457 0.325402
C11   C     C_R   0.569762 0.104843 0.263703 -0.042571
C12   C     C_R   0.430241 0.895156 0.736288 -0.042571
C13   C     C_R   0.691233 0.101548 0.224710 -0.089918
C14   C     C_R   0.308756 0.898396 0.775237 -0.090066
C15   C     C_R   0.719597 0.126334 0.098644 0.450450
C16   C     C_R   0.280369 0.873642 0.901305 0.450438
C17   C     C_R   0.627469 0.157903 0.011740 -0.336006
C18   C     C_R   0.372489 0.842161 0.988256 -0.335976
C19   C     C_R   0.543676 0.929200 0.396738 0.622644
C20   C     C_R   0.456345 0.070799 0.603264 0.622668
C21   C     C_R   0.503527 0.872338 0.506139 -0.263131
C22   C     C_R   0.496489 0.127661 0.493861 -0.263095
C23   C     C_R   0.261411 0.505804 0.498374 0.890341
C24   C     C_R   0.738589 0.494194 0.501626 0.890318
C25   C     C_R   0.461498 0.944499 0.611540 -0.091409
C26   C     C_R   0.538518 0.055500 0.388458 -0.091420
C27   C     C_1   0.500027 0.499989 0.071974 0.152126
C28   C     C_1   0.499972 0.500012 0.928026 0.152138
C29   C     C_R   0.187856 0.562203 0.066842 -0.231387
C30   C     C_R   0.812165 0.437767 0.933154 -0.231385
C31   C     C_R   0.146567 0.570053 0.192553 0.432766
C32   C     C_R   0.853447 0.429927 0.807442 0.432767
C33   C     C_R   0.113014 0.462599 0.253529 -0.005404
C34   C     C_R   0.886984 0.537388 0.746469 -0.005399
C35   C     C_R   0.119268 0.349216 0.184571 -0.131183
C36   C     C_R   0.880714 0.650769 0.815430 -0.131181
C37   C     C_R   0.154991 0.343735 0.056547 0.513185
C38   C     C_R   0.844992 0.656240 0.943454 0.513107
C39   C     C_R   0.191783 0.449645 0.999146 -0.235489
C40   C     C_R   0.808222 0.550322 0.000853 -0.235621
C41   C     C_R   0.933355 0.452892 0.392074 0.358697
C42   C     C_R   0.066642 0.547099 0.607927 0.358704
Cu1   Cu    Cu3+1 0.500000 0.500000 0.625300 1.079079
Cu2   Cu    Cu3+1 0.500000 0.500000 0.374700 1.079093
H1    H     H_    0.222085 0.444550 0.901272 0.241179
H2    H     H_    0.777925 0.555409 0.098728 0.241171
H3    H     H_    0.762948 0.074735 0.290772 0.218573
H4    H     H_    0.237047 0.925145 0.709137 0.218559
H5    H     H_    0.214762 0.643700 0.020317 0.224498
H6    H     H_    0.785277 0.356265 0.979679 0.224509
H7    H     H_    0.091000 0.266225 0.228490 0.245097
H8    H     H_    0.908972 0.733765 0.771513 0.245095
H9    H     H_    0.649157 0.176834 0.913913 0.243897
H10   H     H_    0.350784 0.823263 0.086087 0.243916
N1    N     N_1   0.500010 0.499990 0.186410 -0.129642
N2    N     N_1   0.499990 0.500010 0.813590 -0.129641
O1    O     O_R   0.499990 0.319650 0.605810 -0.505644
O2    O     O_R   0.500010 0.680350 0.394190 -0.505644
O3    O     O_R   0.499990 0.319640 0.394190 -0.595059
O4    O     O_R   0.500010 0.680360 0.605810 -0.595073
O5    O     O_R   0.319640 0.500010 0.605810 -0.530891
O6    O     O_R   0.680360 0.499990 0.394190 -0.530900
O7    O     O_R   0.319650 0.500010 0.394190 -0.597972
O8    O     O_R   0.680350 0.499990 0.605810 -0.598001
Cl1   Cl    Cl    0.870084 0.113017 0.048296 -0.342245
Cl2   Cl    Cl    0.129859 0.886907 0.951598 -0.342321
F1    F     F_    0.588871 0.861622 0.296169 -0.575303
F2    F     F_    0.411156 0.138373 0.703831 -0.575353
Cl3   Cl    Cl    0.135162 0.716081 0.269501 -0.507311
Cl4   Cl    Cl    0.864865 0.283903 0.730486 -0.507256
Cl5   Cl    Cl    0.147384 0.206158 0.964020 -0.300102
Cl6   Cl    Cl    0.852578 0.793813 0.035988 -0.300099
Cl7   Cl    Cl    0.854011 0.374062 0.263069 -0.665418
Cl8   Cl    Cl    0.145985 0.625911 0.736944 -0.665382
F3    F     F_    0.418253 0.191005 0.963756 -0.564232
F4    F     F_    0.581714 0.809207 0.036326 -0.564139
Cl9   Cl    Cl    0.322665 0.121099 0.215244 -0.514620
Cl10  Cl    Cl    0.677335 0.879023 0.784828 -0.514492

loop_
_geom_bond_atom_site_label_1
_geom_bond_atom_site_label_2
_ccdc_geom_bond_type
C38   C40   A    
C5    C42   A    
C10   Cl10  S    
C37   Cl5   S    
C29   H5    S    
C40   H2    S    
C19   C21   A    
C1    O3    A    
C2    O4    A    
C20   C25   A    
Cu2   O3    S    
C15   Cl1   S    
C8    F4    S    
C7    C9    A    
C19   C26   A    
Cu2   O2    S    
C7    C17   A    
C6    C41   A    
C31   C33   A    
C19   F1    S    
C36   H8    S    
C39   H1    S    
C32   Cl4   S    
C23   O7    A    
C30   H6    S    
C1    C22   S    
C24   O8    A    
C3    C24   S    
Cu1   O8    S    
Cu2   O7    S    
C28   N2    T    
C37   C39   A    
C38   Cl6   S    
C42   Cl8   S    
C4    C6    A    
C13   H3    S    
C4    C23   S    
Cu1   O1    S    
C7    F3    S    
C11   C26   S    
Cu2   O6    S    
C8    C18   A    
C32   C34   A    
Cu1   Cu2   S    
C1    O1    A    
C23   O5    A    
C5    C34   S    
C29   C39   A    
C2    C21   S    
C30   C40   A    
C9    Cl9   S    
C9    C11   A    
C10   C12   A    
Cu1   O4    S    
C8    C10   A    
C20   C22   A    
C13   C15   A    
C35   H7    S    
C14   C16   A    
C16   Cl2   S    
C17   H9    S    
Cu1   O5    S    
C15   C17   A    
C21   C25   A    
C3    C41   A    
C24   O6    A    
C35   C37   A    
C20   F2    S    
C12   C14   A    
C3    C5    A    
C14   H4    S    
C2    O2    A    
C27   N1    T    
C6    C33   S    
C12   C25   S    
C36   C38   A    
C29   C31   A    
C30   C32   A    
C11   C13   A    
Cu2   N1    S    
C4    C42   A    
C33   C35   A    
C34   C36   A    
C18   H10   S    
C41   Cl7   S    
Cu1   N2    S    
C31   Cl3   S    
C16   C18   A    
C22   C26   A    
C27   C28   S    
