data_mof_unit_34295.cif
_audit_creation_date              2012-12-11T14:55:58-0500
_audit_creation_method            fapswitch 2.2
_symmetry_space_group_name_H-M    P1
_symmetry_Int_Tables_number       1
_space_group_crystal_system       triclinic
_cell_length_a                    28.021047
_cell_length_b                    17.245118
_cell_length_c                    18.032998
_cell_angle_alpha                 90.113937
_cell_angle_beta                  138.127312
_cell_angle_gamma                 89.930824
_cell_volume                      5816.40065641

loop_
_atom_site_label
_atom_site_type_symbol
_atom_type_description
_atom_site_fract_x
_atom_site_fract_y
_atom_site_fract_z
_atom_type_partial_charge
C1    C     C_R   0.666491 0.923967 0.817171 -0.072282
C2    C     C_3   0.289224 0.700076 0.018787 -0.402327
C3    C     C_3   0.660902 0.761066 0.963362 -0.267492
C4    C     C_3   0.205609 0.790613 0.931367 -0.294304
C5    C     C_3   0.839899 0.250474 0.047429 -0.266348
C6    C     C_3   0.794322 0.788976 0.067129 -0.297308
C7    C     C_3   0.160714 0.250054 0.951874 -0.264184
C8    C     C_3   0.267897 0.762148 0.050826 0.698033
C9    C     C_3   0.785607 0.278112 0.925869 0.686014
C10   C     C_3   0.730822 0.760515 0.947753 0.698879
C11   C     C_3   0.214474 0.277726 0.073431 0.685896
C12   C     C_3   0.758870 0.272388 0.037972 0.699360
C13   C     C_3   0.235341 0.349558 0.050863 -0.396814
C14   C     C_3   0.275970 0.787161 0.916581 0.690185
C15   C     C_3   0.242397 0.272132 0.962913 0.697793
C16   C     C_3   0.725377 0.788637 0.084733 0.690122
C17   C     C_3   0.317158 0.821025 0.070165 -0.003648
C18   C     C_3   0.727397 0.230519 0.896115 -0.014351
C19   C     C_3   0.683118 0.821075 0.930056 -0.002457
C20   C     C_3   0.272987 0.230211 0.103868 -0.014967
C21   C     C_3   0.817689 0.320799 0.069567 0.001297
C22   C     C_3   0.227304 0.728972 0.898836 -0.012405
C23   C     C_3   0.183326 0.320460 0.930734 -0.000967
C24   C     C_3   0.709530 0.699995 0.981134 -0.400451
C25   C     C_3   0.772655 0.728856 0.101026 -0.006464
C26   C     C_3   0.973399 0.857494 0.824715 0.156710
C27   C     C_3   0.052398 0.840398 0.932039 -0.254044
C28   C     C_3   0.101213 0.900817 0.953064 -1.022114
C29   C     C_3   0.155296 0.063268 0.409410 0.170520
C30   C     C_3   0.085320 0.021159 0.345753 -0.257525
C31   C     C_3   0.029674 0.034663 0.220873 -1.038880
C32   C     C_3   0.004222 0.834917 0.125486 0.178193
C33   C     C_3   0.954021 0.772808 0.035202 -0.375140
C34   C     C_3   0.876503 0.799687 0.949026 -0.858212
C35   C     C_3   0.255287 0.850188 0.949873 -0.400562
C36   C     C_3   0.854688 0.064866 0.591002 0.180063
C37   C     C_3   0.924904 0.035498 0.638394 -0.288286
C38   C     C_3   0.989771 0.066577 0.755433 -1.040588
C39   C     C_3   0.471754 0.354428 0.829171 0.141613
C40   C     C_3   0.551697 0.340782 0.935376 -0.232377
C41   C     C_3   0.597343 0.403353 0.951702 -1.019638
C42   C     C_3   0.646764 0.551980 0.433898 0.166849
C43   C     C_3   0.585770 0.516331 0.408739 -0.274470
C44   C     C_3   0.512960 0.535775 0.291272 -1.059764
C45   C     C_3   0.528100 0.353298 0.170429 0.139961
C46   C     C_3   0.780327 0.201880 0.016087 -0.404651
C47   C     C_3   0.448081 0.339576 0.064600 -0.230681
C48   C     C_3   0.402691 0.402864 0.047950 -1.016970
C49   C     C_3   0.352478 0.552441 0.563419 0.166403
C50   C     C_3   0.412884 0.515536 0.587870 -0.274034
C51   C     C_3   0.486044 0.534292 0.705394 -1.060843
C52   C     C_3   0.306222 0.696596 0.201367 0.183433
C53   C     C_3   0.263703 0.622229 0.166366 -0.271110
C54   C     C_3   0.312655 0.555679 0.245885 -1.029707
C55   C     C_3   0.747057 0.312995 0.763859 0.168732
C56   C     C_3   0.745729 0.279969 0.683565 -0.223159
C57   C     C_3   0.746115 0.850119 0.050246 -0.402738
C58   C     C_3   0.691479 0.322031 0.572161 -1.043883
C59   C     C_3   0.688967 0.694051 0.794562 0.179604
C60   C     C_3   0.729282 0.618266 0.826883 -0.277684
C61   C     C_3   0.678358 0.553574 0.744500 -1.025599
C62   C     C_3   0.252138 0.312114 0.235051 0.170004
C63   C     C_3   0.253306 0.277933 0.314587 -0.223959
C64   C     C_3   0.307170 0.319581 0.426522 -1.043777
C65   C     C_3   0.770326 0.211839 0.166370 0.179403
C66   C     C_3   0.713578 0.147992 0.106815 -0.282070
C67   C     C_3   0.744862 0.073483 0.174863 -1.023086
C68   C     C_3   0.220603 0.201539 0.983896 -0.400669
C69   C     C_3   0.222153 0.834015 0.747788 0.155593
C70   C     C_3   0.214087 0.813395 0.656414 -0.208632
C71   C     C_3   0.149693 0.853893 0.547426 -1.038752
C72   C     C_3   0.229840 0.212841 0.832525 0.179325
C73   C     C_3   0.285160 0.147742 0.888965 -0.283424
C74   C     C_3   0.251977 0.074237 0.818320 -1.020450
C75   C     C_3   0.780968 0.836939 0.254248 0.153781
C76   C     C_3   0.790076 0.817298 0.346865 -0.202825
C77   C     C_3   0.855412 0.857498 0.455518 -1.047379
C78   C     C_R   0.715083 0.755797 0.615931 0.057727
C79   C     C_R   0.390303 0.142807 0.647213 0.072378
C80   C     C_R   0.284409 0.754759 0.378940 0.049298
C81   C     C_R   0.312223 0.101953 0.197995 -0.140360
C82   C     C_R   0.611600 0.143439 0.355593 0.071465
C83   C     C_R   0.212260 0.255167 0.606900 0.042414
C84   C     C_R   0.888665 0.645447 0.644459 0.079020
C85   C     C_R   0.787038 0.254900 0.389560 0.042491
C86   C     C_R   0.115172 0.651267 0.362032 0.083759
C87   C     C_R   0.396960 0.244125 0.748940 0.582633
C88   C     C_R   0.735397 0.625465 0.592658 0.583393
C89   C     C_R   0.603419 0.243492 0.251391 0.581552
C90   C     C_R   0.263945 0.625554 0.404307 0.587642
C91   C     C_R   0.896440 0.748571 0.745423 0.573558
C92   C     C_R   0.334150 0.924170 0.183111 -0.078472
C93   C     C_R   0.230832 0.126209 0.577838 0.569415
C94   C     C_R   0.105488 0.752243 0.256448 0.589480
C95   C     C_R   0.769702 0.126182 0.420613 0.572063
C96   C     C_R   0.427544 0.204478 0.723704 -0.367326
C97   C     C_R   0.693365 0.678261 0.583303 -0.367576
C98   C     C_R   0.573524 0.204121 0.277775 -0.367219
C99   C     C_R   0.306347 0.677592 0.413675 -0.368988
C100  C     C_R   0.926383 0.707533 0.720142 -0.372342
C101  C     C_R   0.187739 0.179493 0.564560 -0.372808
C102  C     C_R   0.079735 0.715969 0.291145 -0.387782
C103  C     C_R   0.687766 0.101951 0.802145 -0.139682
C104  C     C_R   0.811437 0.179081 0.430183 -0.377271
C105  C     C_R   0.334575 0.107586 0.621076 -0.230664
C106  C     C_R   0.785609 0.775960 0.681293 -0.235418
C107  C     C_R   0.667954 0.108764 0.382762 -0.228243
C108  C     C_R   0.213478 0.774627 0.310824 -0.200738
C109  C     C_R   0.833566 0.610334 0.620465 -0.225337
C110  C     C_R   0.284688 0.272532 0.680944 -0.225447
C111  C     C_R   0.167364 0.613591 0.380594 -0.229495
C112  C     C_R   0.714873 0.272311 0.317258 -0.222777
C113  C     C_R   0.299644 0.148961 0.635694 -0.034178
C114  C     C_R   0.166749 0.423381 0.817311 -0.071291
C115  C     C_R   0.829446 0.723932 0.694266 -0.009226
C116  C     C_R   0.701417 0.149195 0.364978 -0.032486
C117  C     C_R   0.170596 0.724931 0.302788 -0.027542
C118  C     C_R   0.801378 0.650744 0.640878 -0.043450
C119  C     C_R   0.328577 0.220650 0.693450 -0.016629
C120  C     C_R   0.198494 0.652038 0.357174 -0.043092
C121  C     C_R   0.671691 0.220360 0.306182 -0.017166
C122  C     C_R   0.361393 0.069586 0.493690 -0.154446
C123  C     C_R   0.674486 0.895466 0.594579 -0.140941
C124  C     C_R   0.639254 0.069846 0.507353 -0.155533
C125  C     C_R   0.812474 0.601061 0.196520 -0.142165
C126  C     C_R   0.325301 0.895074 0.404000 -0.141462
C127  C     C_R   0.860674 0.570352 0.492671 -0.146524
C128  C     C_R   0.173908 0.395471 0.591848 -0.143069
C129  C     C_R   0.140976 0.572245 0.509850 -0.150721
C130  C     C_R   0.825797 0.395221 0.406691 -0.145252
C131  C     C_R   0.408749 0.802990 0.495346 -0.157997
C132  C     C_R   0.556699 0.164155 0.419288 -0.128921
C133  C     C_R   0.591039 0.803269 0.503067 -0.157752
C134  C     C_R   0.443828 0.163959 0.581499 -0.127428
C135  C     C_R   0.909639 0.303455 0.498270 -0.148534
C136  C     C_R   0.834238 0.423832 0.183046 -0.069702
C137  C     C_R   0.058662 0.666986 0.423277 -0.124451
C138  C     C_R   0.090156 0.303526 0.500700 -0.148201
C139  C     C_R   0.942921 0.664979 0.579897 -0.124438
C140  C     C_R   0.604423 0.193754 0.713687 -0.174202
C141  C     C_R   0.419005 0.832842 0.274027 -0.153579
C142  C     C_R   0.395676 0.193666 0.286488 -0.172727
C143  C     C_R   0.581227 0.833399 0.726400 -0.153122
C144  C     C_R   0.104320 0.693238 0.714999 -0.175246
C145  C     C_R   0.918207 0.331418 0.274044 -0.154249
C146  C     C_R   0.895680 0.693145 0.285010 -0.170616
C147  C     C_R   0.187479 0.601064 0.803590 -0.139840
C148  C     C_R   0.082458 0.331483 0.726514 -0.157966
C149  C     C_R   0.638844 0.865792 0.829208 0.096799
C150  C     C_R   0.324953 0.177417 0.193991 0.107062
C151  C     C_R   0.361776 0.865612 0.171281 0.097866
C152  C     C_R   0.675137 0.177497 0.806228 0.107390
C153  C     C_R   0.139725 0.364085 0.829174 0.094576
C154  C     C_R   0.825147 0.676187 0.191337 0.114549
C155  C     C_R   0.861504 0.364448 0.171425 0.092819
C156  C     C_R   0.174776 0.676229 0.808709 0.114525
C157  C     C_R   0.399108 0.125107 0.578251 0.105717
C158  C     C_3   0.765137 0.349896 0.949421 -0.397066
C159  C     C_R   0.662041 0.816501 0.569767 0.115555
C160  C     C_R   0.602001 0.125547 0.423405 0.106671
C161  C     C_R   0.337554 0.815873 0.427183 0.110602
C162  C     C_R   0.897741 0.626650 0.576105 0.093954
C163  C     C_R   0.160620 0.316682 0.564633 0.104418
C164  C     C_R   0.105217 0.630331 0.428783 0.097346
C165  C     C_R   0.838882 0.316417 0.432946 0.105541
C166  C     C_3   0.705596 0.301037 0.918379 -0.291294
C167  C     C_3   0.339313 0.759462 0.038049 -0.265935
C168  C     C_3   0.295195 0.300791 0.082571 -0.290964
H1    H     H_    0.715105 0.956296 0.882848 0.092053
H2    H     H_    0.448934 0.781905 0.292566 0.097745
H3    H     H_    0.273669 0.922807 0.340316 0.093123
H4    H     H_    0.821284 0.530353 0.467885 0.100410
H5    H     H_    0.225905 0.422665 0.654534 0.091658
H6    H     H_    0.180844 0.532798 0.535029 0.100573
H7    H     H_    0.773806 0.422338 0.343555 0.092189
H8    H     H_    0.434577 0.747830 0.516114 0.084948
H9    H     H_    0.520513 0.210670 0.364153 0.096610
H10   H     H_    0.565239 0.747996 0.481626 0.084857
H11   H     H_    0.480161 0.210425 0.636801 0.097223
H12   H     H_    0.935605 0.248417 0.519163 0.085845
H13   H     H_    0.420540 0.250303 0.314688 0.091396
H14   H     H_    0.022853 0.714203 0.370336 0.098006
H15   H     H_    0.064571 0.248296 0.480363 0.084984
H16   H     H_    0.978817 0.711963 0.634162 0.100177
H17   H     H_    0.327970 0.717698 0.280060 0.135627
H18   H     H_    0.353825 0.684671 0.221047 0.079754
H19   H     H_    0.223991 0.633038 0.165135 0.214005
H20   H     H_    0.234193 0.605143 0.081261 0.195306
H21   H     H_    0.349265 0.540293 0.241986 0.262832
H22   H     H_    0.279930 0.504102 0.222080 0.267275
H23   H     H_    0.344751 0.572052 0.332348 0.269867
H24   H     H_    0.550532 0.783305 0.707718 0.097345
H25   H     H_    0.759791 0.375923 0.776353 0.120832
H26   H     H_    0.692699 0.305500 0.725352 0.087196
H27   H     H_    0.799662 0.285609 0.720635 0.207806
H28   H     H_    0.731645 0.217364 0.669513 0.199934
H29   H     H_    0.637007 0.317188 0.533232 0.261665
H30   H     H_    0.691017 0.295683 0.515372 0.272158
H31   H     H_    0.706158 0.384197 0.584073 0.297368
H32   H     H_    0.666941 0.715070 0.715642 0.136033
H33   H     H_    0.641823 0.683888 0.776509 0.082070
H34   H     H_    0.769444 0.627589 0.828816 0.209926
H35   H     H_    0.079999 0.750137 0.687388 0.087907
H36   H     H_    0.758044 0.600139 0.911171 0.196412
H37   H     H_    0.640562 0.540014 0.746473 0.263570
H38   H     H_    0.709401 0.500584 0.766984 0.265959
H39   H     H_    0.647625 0.570975 0.659057 0.267865
H40   H     H_    0.239258 0.374954 0.223406 0.121398
H41   H     H_    0.306606 0.305233 0.273765 0.086954
H42   H     H_    0.199249 0.282862 0.277237 0.207769
H43   H     H_    0.267674 0.215453 0.327934 0.200021
H44   H     H_    0.361745 0.315519 0.465681 0.262133
H45   H     H_    0.307587 0.292315 0.482756 0.272197
H46   H     H_    0.947641 0.279893 0.292798 0.101275
H47   H     H_    0.292135 0.381548 0.415320 0.296062
H48   H     H_    0.784144 0.231551 0.238947 0.144380
H49   H     H_    0.821357 0.189685 0.201487 0.083200
H50   H     H_    0.669444 0.168497 0.092137 0.210852
H51   H     H_    0.690636 0.135189 0.024755 0.200446
H52   H     H_    0.787292 0.050542 0.186815 0.252703
H53   H     H_    0.702062 0.029154 0.130265 0.278720
H54   H     H_    0.767787 0.084254 0.257193 0.282592
H55   H     H_    0.230783 0.897538 0.763463 0.124115
H56   H     H_    0.171488 0.818277 0.717868 0.087108
H57   H     H_    0.920263 0.749899 0.312156 0.086434
H58   H     H_    0.263225 0.830766 0.682853 0.209981
H59   H     H_    0.207246 0.749609 0.642703 0.202510
H60   H     H_    0.099741 0.836387 0.518428 0.256715
H61   H     H_    0.145309 0.837194 0.483017 0.274567
H62   H     H_    0.155997 0.917826 0.558569 0.293864
H63   H     H_    0.216072 0.233699 0.760399 0.143725
H64   H     H_    0.178552 0.191500 0.797179 0.085444
H65   H     H_    0.329266 0.167523 0.903265 0.210909
H66   H     H_    0.308495 0.133958 0.971033 0.200643
H67   H     H_    0.209847 0.051710 0.807247 0.253786
H68   H     H_    0.052476 0.280556 0.707707 0.103088
H69   H     H_    0.293903 0.029157 0.860429 0.277106
H70   H     H_    0.228212 0.086101 0.735654 0.283434
H71   H     H_    0.772737 0.900454 0.238660 0.125159
H72   H     H_    0.831070 0.820461 0.282840 0.086693
H73   H     H_    0.741599 0.835693 0.321823 0.210197
H74   H     H_    0.796319 0.753516 0.360356 0.201653
H75   H     H_    0.904822 0.838188 0.483887 0.257836
H76   H     H_    0.860006 0.842531 0.520526 0.268952
H77   H     H_    0.850109 0.921385 0.444045 0.292527
H78   H     H_    0.803903 0.834731 0.711012 0.161788
H79   H     H_    0.649974 0.319805 0.865504 0.146008
H80   H     H_    0.310890 0.054770 0.572888 0.158018
H81   H     H_    0.194899 0.832542 0.277246 0.170130
H82   H     H_    0.692940 0.057051 0.433136 0.160626
H83   H     H_    0.304818 0.329493 0.718242 0.160311
H84   H     H_    0.808717 0.557935 0.571228 0.158952
H85   H     H_    0.694596 0.329340 0.280528 0.159069
H86   H     H_    0.191220 0.560540 0.428199 0.159945
H87   H     H_    0.394670 0.749031 0.082276 0.150282
H88   H     H_    0.350877 0.319693 0.136013 0.145630
H89   H     H_    0.260585 0.074532 0.144771 0.108495
H90   H     H_    0.605702 0.752004 0.920360 0.150756
H91   H     H_    0.150231 0.800354 0.887148 0.154300
H92   H     H_    0.895654 0.231862 0.100596 0.146859
H93   H     H_    0.849452 0.798430 0.109995 0.136770
H94   H     H_    0.104881 0.231380 0.898065 0.148864
H95   H     H_    0.760750 0.410631 0.924690 0.156248
H96   H     H_    0.302095 0.638275 0.044513 0.152882
H97   H     H_    0.239566 0.410281 0.075698 0.157030
H98   H     H_    0.695510 0.638238 0.955183 0.152077
H99   H     H_    0.242966 0.911866 0.923611 0.150419
H100  H     H_    0.285705 0.956613 0.117290 0.097331
H101  H     H_    0.785862 0.140642 0.040533 0.150552
H102  H     H_    0.759512 0.911799 0.076729 0.148577
H103  H     H_    0.215213 0.140334 0.959222 0.151933
H104  H     H_    0.641413 0.659559 0.541581 0.132944
H105  H     H_    0.477397 0.223805 0.757697 0.128731
H106  H     H_    0.358690 0.658882 0.457037 0.132312
H107  H     H_    0.523420 0.222932 0.243359 0.129139
H108  H     H_    0.133342 0.162255 0.512662 0.140056
H109  H     H_    0.975940 0.726269 0.752877 0.128023
H110  H     H_    0.865013 0.161840 0.478195 0.139545
H111  H     H_    0.739383 0.074556 0.855187 0.104047
H112  H     H_    0.035658 0.740944 0.269868 0.128372
H113  H     H_    0.962614 0.918672 0.827874 0.142230
H114  H     H_    0.960862 0.853600 0.749984 0.075705
H115  H     H_    0.061582 0.840679 0.003597 0.230410
H116  H     H_    0.066826 0.782077 0.927332 0.193300
H117  H     H_    0.090381 0.905214 0.880151 0.261532
H118  H     H_    0.157967 0.883971 0.026962 0.294697
H119  H     H_    0.092563 0.958398 0.969223 0.269969
H120  H     H_    0.180008 0.036122 0.388273 0.113781
H121  H     H_    0.142989 0.124766 0.380260 0.090793
H122  H     H_    0.215214 0.455813 0.883245 0.100103
H123  H     H_    0.095705 0.957945 0.362507 0.211843
H124  H     H_    0.063692 0.042325 0.374489 0.191555
H125  H     H_    0.015808 0.097198 0.201547 0.271881
H126  H     H_    0.980376 0.001488 0.176896 0.260063
H127  H     H_    0.050543 0.015028 0.190464 0.275398
H128  H     H_    0.990769 0.890777 0.082753 0.152645
H129  H     H_    0.995085 0.845237 0.174961 0.087627
H130  H     H_    0.968778 0.760799 0.993775 0.252301
H131  H     H_    0.958687 0.717856 0.072096 0.195588
H132  H     H_    0.861973 0.815063 0.990019 0.266750
H133  H     H_    0.760858 0.573642 0.143469 0.104775
H134  H     H_    0.840918 0.752346 0.888470 0.284015
H135  H     H_    0.868558 0.851290 0.904056 0.255615
H136  H     H_    0.842692 0.029542 0.627073 0.103573
H137  H     H_    0.861174 0.125749 0.618956 0.096700
H138  H     H_    0.925588 0.971165 0.640568 0.192418
H139  H     H_    0.929198 0.053528 0.584479 0.200574
H140  H     H_    0.992525 0.130709 0.753608 0.269212
H141  H     H_    0.039384 0.041574 0.788926 0.273405
H142  H     H_    0.986551 0.050762 0.811251 0.268376
H143  H     H_    0.458662 0.414461 0.831869 0.130901
H144  H     H_    0.785997 0.456410 0.116898 0.099963
H145  H     H_    0.458351 0.352027 0.753488 0.086465
H146  H     H_    0.562293 0.341365 0.008301 0.240320
H147  H     H_    0.567755 0.283172 0.932000 0.194968
H148  H     H_    0.587937 0.404140 0.880075 0.266248
H149  H     H_    0.654768 0.391520 0.028570 0.304140
H150  H     H_    0.584366 0.461172 0.960323 0.260936
H151  H     H_    0.654808 0.515888 0.392773 0.106702
H152  H     H_    0.631342 0.610762 0.395489 0.095767
H153  H     H_    0.592249 0.452339 0.417825 0.196661
H154  H     H_    0.587338 0.538081 0.468489 0.200814
H155  H     H_    0.239102 0.573690 0.856623 0.104773
H156  H     H_    0.503055 0.599220 0.283021 0.270673
H157  H     H_    0.470306 0.505461 0.273409 0.271015
H158  H     H_    0.510753 0.517083 0.229870 0.272393
H159  H     H_    0.541221 0.413168 0.167479 0.131017
H160  H     H_    0.541720 0.351358 0.246319 0.085897
H161  H     H_    0.437274 0.339128 0.991471 0.240989
H162  H     H_    0.431994 0.282374 0.068710 0.195236
H163  H     H_    0.411987 0.404401 0.119458 0.266050
H164  H     H_    0.345232 0.391214 0.971018 0.304268
H165  H     H_    0.415960 0.460288 0.039171 0.260411
H166  H     H_    0.579894 0.250551 0.685111 0.091837
H167  H     H_    0.344527 0.517278 0.605132 0.107434
H168  H     H_    0.368446 0.611448 0.601640 0.095741
H169  H     H_    0.405615 0.451625 0.578237 0.197029
H170  H     H_    0.411369 0.536729 0.528063 0.200520
H171  H     H_    0.496709 0.597570 0.714225 0.270699
H172  H     H_    0.528211 0.503128 0.722666 0.270803
H173  H     H_    0.488259 0.516062 0.766873 0.272394
H174  H     H_    0.322080 0.029351 0.468710 0.099455
H175  H     H_    0.726217 0.923056 0.658405 0.087258
H176  H     H_    0.678767 0.029745 0.532706 0.100213
N1    N     N_R   0.625380 0.928280 0.709340 -0.043151
N2    N     N_R   0.613900 0.929750 0.547530 -0.037437
N3    N     N_R   0.613900 0.070250 0.547530 -0.040383
N4    N     N_R   0.386100 0.929750 0.452470 -0.038191
N5    N     N_R   0.886100 0.570250 0.452470 -0.039676
N6    N     N_R   0.113900 0.429750 0.547530 -0.037541
N7    N     N_R   0.113900 0.570250 0.547530 -0.039457
N8    N     N_R   0.886100 0.429750 0.452470 -0.037950
N9    N     N_R   0.437800 0.869550 0.507970 -0.037884
N10   N     N_R   0.562200 0.130450 0.492030 -0.042027
N11   N     N_R   0.562200 0.869550 0.492030 -0.037678
N12   N     N_R   0.374620 0.071720 0.290660 -0.042529
N13   N     N_R   0.437800 0.130450 0.507970 -0.042061
N14   N     N_R   0.937800 0.369550 0.507970 -0.038325
N15   N     N_R   0.062200 0.630450 0.492030 -0.042709
N16   N     N_R   0.062200 0.369550 0.492030 -0.038293
N17   N     N_R   0.937800 0.630450 0.507970 -0.042546
N18   N     N_R   0.573690 0.128980 0.653840 -0.036549
N19   N     N_R   0.426310 0.871020 0.346160 -0.043245
N20   N     N_R   0.426310 0.128980 0.346160 -0.036551
N21   N     N_R   0.573690 0.871020 0.653840 -0.043364
N22   N     N_R   0.073690 0.628980 0.653840 -0.036365
N23   N     N_R   0.374620 0.928280 0.290660 -0.043064
N24   N     N_R   0.926310 0.371020 0.346160 -0.043869
N25   N     N_R   0.926310 0.628980 0.346160 -0.036867
N26   N     N_R   0.073690 0.371020 0.653840 -0.043825
N27   N     N_R   0.625380 0.071720 0.709340 -0.042624
N28   N     N_R   0.125380 0.428280 0.709340 -0.045239
N29   N     N_R   0.874620 0.571720 0.290660 -0.042532
N30   N     N_R   0.874620 0.428280 0.290660 -0.044972
N31   N     N_R   0.125380 0.571720 0.709340 -0.042470
N32   N     N_R   0.386100 0.070250 0.452470 -0.040131
Ni1   Ni    Ni4+2 0.616560 0.000000 0.627280 0.218894
Ni2   Ni    Ni4+2 0.383440 0.000000 0.372720 0.219893
Ni3   Ni    Ni4+2 0.116560 0.500000 0.627280 0.220651
Ni4   Ni    Ni4+2 0.883440 0.500000 0.372720 0.220731
Ni5   Ni    Ni4+2 0.497990 0.870580 0.500000 0.201282
Ni6   Ni    Ni4+2 0.502010 0.129420 0.500000 0.205789
Ni7   Ni    Ni4+2 0.997990 0.370580 0.500000 0.201956
Ni8   Ni    Ni4+2 0.002010 0.629420 0.500000 0.205882
O1    O     O_3   0.929344 0.810982 0.819292 -0.689501
O2    O     O_3   0.800828 0.274627 0.866923 -0.670896
O3    O     O_3   0.736665 0.751150 0.876728 -0.681091
O4    O     O_3   0.198541 0.274175 0.131381 -0.670340
O5    O     O_3   0.742239 0.276109 0.095256 -0.684491
O6    O     O_3   0.281977 0.794326 0.845848 -0.668894
O7    O     O_3   0.259641 0.275808 0.906501 -0.684876
O8    O     O_3   0.720406 0.797416 0.156623 -0.668926
O9    O     O_3   0.203081 0.054701 0.525300 -0.674562
O10   O     O_3   0.077040 0.820398 0.193585 -0.687444
O11   O     O_3   0.797747 0.054823 0.473833 -0.674075
O12   O     O_3   0.430908 0.303875 0.826848 -0.678367
O13   O     O_3   0.711149 0.550716 0.550078 -0.675045
O14   O     O_3   0.568609 0.302320 0.172311 -0.677735
O15   O     O_3   0.287796 0.550932 0.447394 -0.675497
O16   O     O_3   0.260446 0.754649 0.120019 -0.674978

loop_
_geom_bond_atom_site_label_1
_geom_bond_atom_site_label_2
_ccdc_geom_bond_type
C48   H165  S    
C103  N27   A    
C32   O10   S    
C96   H105  S    
C54   H21   S    
C77   H76   S    
C43   H153  S    
C55   O2    S    
C130  N8    A    
C18   C166  S    
C124  N3    A    
C44   H157  S    
N11   Ni5   S    
C128  H5    S    
C26   O1    S    
C67   H52   S    
C72   H63   S    
N29   Ni4   S    
C94   O10   S    
C94   C117  A    
C6    C25   S    
N1    N21   A    
C88   O13   S    
C50   H170  S    
C7    H94   S    
C73   C74   S    
C128  N6    A    
C26   H113  S    
C83   C163  S    
C7    C68   S    
C28   H119  S    
C2    H96   S    
C41   H148  S    
C2    C22   S    
C114  N28   A    
C3    C19   S    
C134  H11   S    
C140  C152  A    
C125  N29   A    
C88   C97   A    
C61   H38   S    
N6    Ni3   S    
C136  H144  S    
C59   C60   S    
C82   C98   A    
C75   H72   S    
C17   C151  S    
C18   C152  S    
C62   H40   S    
C109  C118  A    
C45   C47   S    
C11   C20   S    
C167  H87   S    
C116  C121  A    
N8    Ni4   S    
C84   C100  A    
C93   C101  A    
C34   H135  S    
C51   H172  S    
C5    H92   S    
C36   H137  S    
C129  C164  A    
C135  N14   A    
C75   C76   S    
C105  H80   S    
C79   C157  S    
C66   H51   S    
C56   H27   S    
C82   C160  S    
C146  C154  A    
C115  C118  A    
C24   C25   S    
C73   H66   S    
C103  C152  A    
C60   H34   S    
C29   H120  S    
C23   C153  S    
C148  C153  A    
C127  N5    A    
C63   H42   S    
C89   O14   S    
C39   C40   S    
C16   C25   S    
N17   Ni8   S    
C25   C154  S    
C20   C68   S    
C139  C162  A    
C39   H143  S    
C70   H58   S    
C72   C73   S    
C97   H104  S    
C146  H57   S    
C5    C46   S    
C8    C17   S    
C137  N15   A    
C106  C115  A    
C78   C106  A    
C85   C165  S    
C76   H73   S    
C79   C96   A    
C45   H160  S    
N24   N30   A    
C11   C13   S    
C130  C165  A    
C45   O14   S    
C123  C159  A    
C41   H150  S    
C124  C160  A    
C71   H60   S    
C69   C70   S    
C145  H46   S    
C92   H100  S    
C143  C149  A    
C34   H132  S    
C47   H161  S    
C64   H44   S    
C35   H99   S    
C49   H167  S    
C90   C120  A    
C65   H49   S    
C144  C156  A    
N8    N14   A    
C100  H109  S    
C38   H142  S    
N5    Ni4   S    
C85   C112  A    
C8    O16   S    
C53   C54   S    
C87   C119  A    
C9    C158  S    
C105  C113  A    
C36   C37   S    
C133  H10   S    
C44   H156  S    
C168  H88   S    
C131  H8    S    
C13   C23   S    
C67   H53   S    
C48   H164  S    
C1    N1    A    
N5    N17   A    
C60   H36   S    
C81   N12   A    
C29   O9    S    
C59   H32   S    
C31   H126  S    
C125  H133  S    
C28   H118  S    
C66   C67   S    
C113  C119  A    
C87   C96   A    
C3    C24   S    
C52   H18   S    
C92   C151  A    
C49   O15   S    
C99   H106  S    
N32   Ni2   S    
C21   C155  S    
C58   H31   S    
C114  H122  S    
C93   O9    S    
C64   H45   S    
C12   C46   S    
N14   Ni7   S    
C124  H176  S    
C27   H116  S    
C136  C155  A    
C13   C168  S    
C10   C24   S    
C82   C107  A    
C133  N11   A    
C69   H55   S    
C33   H131  S    
C74   H70   S    
C147  H155  S    
C29   C30   S    
C4    C22   S    
C95   C116  A    
C51   H173  S    
C78   C97   A    
N13   Ni6   S    
C71   H61   S    
C83   C110  A    
C147  N31   A    
C92   N23   A    
C52   O16   S    
C52   C53   S    
N15   Ni8   S    
C59   O3    S    
C70   C71   S    
C30   H123  S    
C146  N25   A    
N21   Ni5   S    
C127  C162  A    
C80   C99   A    
C91   C100  A    
C38   H140  S    
C88   C118  A    
C86   C102  A    
C90   C99   A    
C125  C154  A    
C143  N21   A    
C10   O3    S    
C40   C41   S    
C54   H22   S    
C107  H82   S    
C24   H98   S    
C77   H75   S    
C73   H65   S    
C108  C117  A    
C122  H174  S    
C63   H43   S    
C110  C119  A    
C44   H158  S    
C130  H7    S    
C80   C108  A    
C84   C109  A    
N18   N27   A    
C129  N7    A    
C14   C22   S    
C86   C111  A    
C112  C121  A    
C40   H147  S    
C48   H163  S    
C37   H139  S    
C19   C149  S    
C20   C150  S    
N12   Ni2   S    
N3    N10   A    
C107  C116  A    
C26   H114  S    
C144  N22   A    
C63   C64   S    
C9    C18   S    
C55   H26   S    
C15   O7    S    
C49   C50   S    
C75   O8    S    
C14   O6    S    
N20   Ni6   S    
C74   H67   S    
C3    C16   S    
C61   H37   S    
C39   H145  S    
C140  N18   A    
C55   C56   S    
C58   H29   S    
N27   Ni1   S    
N28   Ni3   S    
C21   C158  S    
C64   H47   S    
C75   H71   S    
C19   C57   S    
C148  N26   A    
C26   C27   S    
C53   H20   S    
C135  H12   S    
C12   O5    S    
C30   C31   S    
C51   H171  S    
N24   Ni7   S    
C56   H28   S    
C101  H108  S    
C1    C149  A    
C138  C163  A    
C132  N10   A    
C126  C161  A    
C72   H64   S    
C95   O11   S    
C4    C8    S    
C141  N19   A    
C42   H152  S    
C4    C35   S    
N6    N16   A    
C6    C57   S    
C43   H154  S    
C18   C46   S    
C123  N2    A    
C31   H127  S    
C32   H128  S    
C70   H59   S    
N19   Ni5   S    
C68   H103  S    
C117  C120  A    
C65   O5    S    
C50   H169  S    
C60   C61   S    
C133  C159  A    
C5    C21   S    
C140  H166  S    
C76   H74   S    
C62   C63   S    
C45   H159  S    
C144  H35   S    
C41   H149  S    
C10   C19   S    
C142  N20   A    
C50   C51   S    
C135  C165  A    
N30   Ni4   S    
C147  C156  A    
C85   C104  A    
C61   H39   S    
N25   N29   A    
C33   H130  S    
C126  N4    A    
C4    H91   S    
N2    Ni1   S    
C129  H6    S    
C86   C164  S    
C42   C43   S    
C29   H121  S    
N2    N11   A    
C84   C162  S    
C158  C166  S    
C131  N9    A    
N19   N23   A    
C2    C8    S    
C102  H112  S    
C13   H97   S    
C6    C10   S    
N26   N28   A    
C34   H134  S    
N31   Ni3   S    
C89   C98   A    
C90   O15   S    
C108  H81   S    
C32   C33   S    
C142  C150  A    
C66   H50   S    
C27   H115  S    
C89   C121  A    
C57   H102  S    
C42   H151  S    
C141  H2    S    
C122  C157  A    
C91   C115  A    
C16   C57   S    
C40   H146  S    
C98   H107  S    
C62   O4    S    
C78   C159  S    
C142  H13   S    
C122  N32   A    
C158  H95   S    
N3    Ni1   S    
C5    C9    S    
C17   C35   S    
C14   C167  S    
C132  C160  A    
C31   H125  S    
N22   Ni8   S    
C109  H84   S    
C103  H111  S    
C43   C44   S    
C42   O13   S    
C138  N16   A    
N25   Ni8   S    
C22   C156  S    
C7    C11   S    
C37   C38   S    
C166  H79   S    
C12   C166  S    
C7    C23   S    
C131  C161  A    
C81   C150  A    
C16   O8    S    
C79   C105  A    
C39   O12   S    
C126  H3    S    
C71   H62   S    
C47   H162  S    
C56   C58   S    
C143  H24   S    
C91   O1    S    
C114  C153  A    
C49   H168  S    
C30   H124  S    
C132  H9    S    
C111  H86   S    
C15   C23   S    
C136  N30   A    
N23   Ni2   S    
C37   H138  S    
C38   H141  S    
N7    N15   A    
N4    N9    A    
C36   H136  S    
C20   C168  S    
C36   O11   S    
N12   N20   A    
C54   H23   S    
C76   C77   S    
C65   H48   S    
N9    Ni5   S    
C17   C167  S    
C134  N13   A    
C104  H110  S    
C14   C35   S    
C93   C113  A    
C137  H14   S    
C127  H4    S    
C12   C21   S    
C128  C163  A    
C111  C120  A    
C148  H68   S    
C139  N17   A    
C67   H54   S    
C69   O6    S    
C138  H15   S    
N4    Ni2   S    
C59   H33   S    
C47   C48   S    
C87   O12   S    
C11   O4    S    
C33   C34   S    
C9    O2    S    
C106  H78   S    
C28   H117  S    
C55   H25   S    
C46   H101  S    
C15   C168  S    
C52   H17   S    
C95   C104  A    
C141  C151  A    
N7    Ni3   S    
C58   H30   S    
N13   N32   A    
N22   N31   A    
C137  C164  A    
C32   H129  S    
C123  H175  S    
C110  H83   S    
C3    H90   S    
N18   Ni6   S    
C81   H89   S    
C69   H56   S    
C74   H69   S    
C53   H19   S    
N26   Ni7   S    
C112  H85   S    
N16   Ni7   S    
N1    Ni1   S    
C15   C68   S    
C1    H1    S    
C62   H41   S    
C6    H93   S    
C77   H77   S    
C80   C161  S    
C139  H16   S    
C145  C155  A    
C145  N24   A    
N10   Ni6   S    
C134  C157  A    
C65   C66   S    
C27   C28   S    
C83   C101  A    
C72   O7    S    
C2    C167  S    
C94   C102  A    
