data_mof_unit_61147.cif
_audit_creation_date              2012-12-10T17:56:26-0500
_audit_creation_method            fapswitch 2.2
_symmetry_space_group_name_H-M    P1
_symmetry_Int_Tables_number       1
_space_group_crystal_system       tetragonal
_cell_length_a                    21.726204
_cell_length_b                    21.726204
_cell_length_c                    29.093705
_cell_angle_alpha                 90.0
_cell_angle_beta                  90.0
_cell_angle_gamma                 90.0
_cell_volume                      13733.0416454

loop_
_atom_site_label
_atom_site_type_symbol
_atom_type_description
_atom_site_fract_x
_atom_site_fract_y
_atom_site_fract_z
_atom_type_partial_charge
C1    C     C_R   0.380382 0.000000 0.000000 0.913522
C2    C     C_R   0.121741 0.000000 0.000000 0.936256
C3    C     C_3   0.122694 0.672634 0.929243 -0.681581
C4    C     C_3   0.672634 0.122694 0.070757 -0.681581
C5    C     C_3   0.122693 0.327365 0.070758 -0.681581
C6    C     C_3   0.327366 0.877306 0.070757 -0.681581
C7    C     C_3   0.877306 0.672634 0.070757 -0.681580
C8    C     C_3   0.827366 0.622693 0.429243 -0.681581
C9    C     C_3   0.377306 0.827366 0.429243 -0.681581
C10   C     C_3   0.172634 0.377307 0.429242 -0.681580
C11   C     C_3   0.622694 0.172635 0.429243 -0.681582
C12   C     C_3   0.172634 0.622693 0.570758 -0.681581
C13   C     C_R   1.000000 0.121741 0.000000 0.936256
C14   C     C_3   0.622693 0.827366 0.570758 -0.681581
C15   C     C_3   0.827366 0.377307 0.570757 -0.681580
C16   C     C_3   0.377306 0.172634 0.570757 -0.681581
C17   C     C_3   0.164850 0.122691 0.938808 -0.759267
C18   C     C_3   0.877309 0.164850 0.938808 -0.759268
C19   C     C_3   0.835150 0.877309 0.938808 -0.759269
C20   C     C_3   0.122691 0.835150 0.938808 -0.759268
C21   C     C_3   0.835150 0.122691 0.061192 -0.759267
C22   C     C_3   0.122691 0.164850 0.061192 -0.759268
C23   C     C_3   0.164850 0.877309 0.061192 -0.759269
C24   C     C_R   0.878259 1.000000 0.000000 0.936256
C25   C     C_3   0.877309 0.835150 0.061192 -0.759270
C26   C     C_3   0.664850 0.622691 0.438808 -0.759269
C27   C     C_3   0.377309 0.664850 0.438808 -0.759268
C28   C     C_3   0.335150 0.377309 0.438808 -0.759268
C29   C     C_3   0.622691 0.335150 0.438808 -0.759268
C30   C     C_3   0.335150 0.622691 0.561192 -0.759268
C31   C     C_3   0.622691 0.664850 0.561192 -0.759269
C32   C     C_3   0.664850 0.377309 0.561192 -0.759269
C33   C     C_3   0.377309 0.335150 0.561192 -0.759268
C34   C     C_R   0.500000 0.378259 0.500000 0.936256
C35   C     C_R   0.621741 0.500000 0.500000 0.936255
C36   C     C_R   0.500000 0.621741 0.500000 0.936256
C37   C     C_R   0.378259 0.500000 0.500000 0.936256
C38   C     C_R   0.500000 0.000000 0.085710 0.861205
C39   C     C_R   0.000000 0.500000 0.085710 0.861205
C40   C     C_R   0.500000 1.000000 0.914290 0.861203
C41   C     C_R   0.000000 0.380382 0.000000 0.913521
C42   C     C_R   1.000000 0.500000 0.914290 0.861203
C43   C     C_R   1.000000 0.500000 0.585710 0.861205
C44   C     C_R   0.500000 0.000000 0.585710 0.861205
C45   C     C_R   0.000000 0.500000 0.414290 0.861203
C46   C     C_R   0.500000 0.000000 0.414290 0.861203
C47   C     C_1   0.500000 0.000000 0.136527 -0.213098
C48   C     C_1   0.000000 0.500000 0.136527 -0.213098
C49   C     C_1   0.500000 1.000000 0.863473 -0.213098
C50   C     C_1   1.000000 0.500000 0.863473 -0.213098
C51   C     C_1   1.000000 0.500000 0.636527 -0.213098
C52   C     C_R   0.619618 0.000000 0.000000 0.913521
C53   C     C_1   0.500000 1.000000 0.636527 -0.213098
C54   C     C_1   0.000000 0.500000 0.363473 -0.213098
C55   C     C_1   0.500000 0.000000 0.363473 -0.213098
C56   C     C_1   0.500000 1.000000 0.178857 -0.000891
C57   C     C_1   0.000000 0.500000 0.178857 -0.000891
C58   C     C_1   0.500000 0.000000 0.821143 -0.000891
C59   C     C_1   1.000000 0.500000 0.821143 -0.000891
C60   C     C_1   1.000000 0.500000 0.678857 -0.000891
C61   C     C_1   0.500000 1.000000 0.678857 -0.000891
C62   C     C_1   0.000000 0.500000 0.321143 -0.000891
C63   C     C_R   0.000000 0.619618 0.000000 0.913521
C64   C     C_1   0.500000 0.000000 0.321143 -0.000891
C65   C     C_1   0.500000 1.000000 0.228834 0.002176
C66   C     C_1   0.000000 0.500000 0.228834 0.002176
C67   C     C_1   0.500000 0.000000 0.771166 0.002176
C68   C     C_1   1.000000 0.500000 0.771166 0.002176
C69   C     C_1   0.000000 0.500000 0.728834 0.002176
C70   C     C_1   0.500000 0.000000 0.728834 0.002176
C71   C     C_1   0.000000 0.500000 0.271166 0.002176
C72   C     C_1   0.500000 0.000000 0.271166 0.002176
C73   C     C_R   0.283856 0.030343 0.964429 0.147677
C74   C     C_R   0.880382 0.500000 0.500000 0.913522
C75   C     C_R   0.969656 0.283856 0.964429 0.147677
C76   C     C_R   0.716144 0.969656 0.964429 0.147677
C77   C     C_R   0.030344 0.716144 0.964429 0.147677
C78   C     C_R   0.716144 0.030344 0.035571 0.147677
C79   C     C_R   0.030344 0.283856 0.035571 0.147677
C80   C     C_R   0.283856 0.969656 0.035571 0.147677
C81   C     C_R   0.969656 0.716144 0.035571 0.147678
C82   C     C_R   0.783856 0.530343 0.464429 0.147677
C83   C     C_R   0.469656 0.783856 0.464429 0.147677
C84   C     C_R   0.216144 0.469656 0.464429 0.147677
C85   C     C_R   0.500000 0.880382 0.500000 0.913521
C86   C     C_R   0.530344 0.216144 0.464429 0.147677
C87   C     C_R   0.216143 0.530343 0.535571 0.147677
C88   C     C_R   0.530344 0.783856 0.535571 0.147677
C89   C     C_R   0.783856 0.469656 0.535571 0.147677
C90   C     C_R   0.469656 0.216143 0.535571 0.147677
C91   C     C_R   0.220085 0.031336 0.964614 0.159365
C92   C     C_R   0.968665 0.220085 0.964614 0.159365
C93   C     C_R   0.779915 0.968664 0.964614 0.159365
C94   C     C_R   0.031336 0.779915 0.964614 0.159365
C95   C     C_R   0.779915 0.031336 0.035386 0.159366
C96   C     C_R   0.119618 0.500000 0.500000 0.913521
C97   C     C_R   0.031335 0.220085 0.035386 0.159365
C98   C     C_R   0.220085 0.968664 0.035386 0.159365
C99   C     C_R   0.968664 0.779915 0.035386 0.159365
C100  C     C_R   0.720085 0.531335 0.464614 0.159366
C101  C     C_R   0.468664 0.720085 0.464614 0.159366
C102  C     C_R   0.279915 0.468664 0.464614 0.159366
C103  C     C_R   0.531336 0.279915 0.464614 0.159365
C104  C     C_R   0.279915 0.531335 0.535386 0.159366
C105  C     C_R   0.531336 0.720085 0.535386 0.159366
C106  C     C_R   0.720085 0.468664 0.535386 0.159366
C107  C     C_R   0.500000 0.119618 0.500000 0.913521
C108  C     C_R   0.468664 0.279915 0.535386 0.159366
C109  C     C_R   0.187970 0.000000 0.000000 -0.274095
C110  C     C_R   0.000000 0.187970 0.000000 -0.274095
C111  C     C_R   0.812030 0.000000 0.000000 -0.274095
C112  C     C_R   0.000000 0.812030 0.000000 -0.274095
C113  C     C_R   0.687970 0.500000 0.500000 -0.274096
C114  C     C_R   0.500000 0.687970 0.500000 -0.274095
C115  C     C_R   0.312030 0.500000 0.500000 -0.274096
C116  C     C_R   0.500000 0.312030 0.500000 -0.274095
C117  C     C_R   0.314989 0.000000 0.000000 -0.251639
C118  C     C_R   0.000000 0.878259 0.000000 0.936256
C119  C     C_R   0.000000 0.314989 0.000000 -0.251639
C120  C     C_R   0.685011 0.000000 0.000000 -0.251639
C121  C     C_R   0.000000 0.685011 0.000000 -0.251640
C122  C     C_R   0.814989 0.500000 0.500000 -0.251639
C123  C     C_R   0.500000 0.814989 0.500000 -0.251639
C124  C     C_R   0.185011 0.500000 0.500000 -0.251639
C125  C     C_R   0.500000 0.185011 0.500000 -0.251639
C126  C     C_3   0.327366 0.122694 0.929243 -0.681582
C127  C     C_3   0.877307 0.327365 0.929242 -0.681581
C128  C     C_3   0.672634 0.877306 0.929242 -0.681581
H1    H     H_    0.353117 0.031921 0.914443 0.209533
H2    H     H_    0.622400 0.867910 0.927715 0.229630
H3    H     H_    0.621906 0.618153 0.458952 0.237273
H4    H     H_    0.464197 0.662261 0.407235 0.243390
H5    H     H_    0.352528 0.654087 0.406435 0.233883
H6    H     H_    0.349541 0.698525 0.458637 0.233949
H7    H     H_    0.381847 0.621905 0.458952 0.237273
H8    H     H_    0.337738 0.464197 0.407235 0.243390
H9    H     H_    0.345913 0.352529 0.406435 0.233883
H10   H     H_    0.301475 0.349541 0.458637 0.233949
H11   H     H_    0.378095 0.381847 0.458952 0.237274
H12   H     H_    0.535803 0.337738 0.407235 0.243390
H13   H     H_    0.690810 0.857015 0.961607 0.226346
H14   H     H_    0.647472 0.345913 0.406436 0.233883
H15   H     H_    0.650459 0.301475 0.458638 0.233950
H16   H     H_    0.618153 0.378095 0.458952 0.237274
H17   H     H_    0.337738 0.535803 0.592765 0.243390
H18   H     H_    0.345913 0.647471 0.593565 0.233883
H19   H     H_    0.301475 0.650459 0.541363 0.233949
H20   H     H_    0.378095 0.618153 0.541048 0.237273
H21   H     H_    0.535803 0.662262 0.592765 0.243390
H22   H     H_    0.647472 0.654087 0.593565 0.233883
H23   H     H_    0.650459 0.698525 0.541362 0.233950
H24   H     H_    0.695112 0.854377 0.899590 0.236847
H25   H     H_    0.618153 0.621905 0.541048 0.237274
H26   H     H_    0.662262 0.464197 0.592765 0.243389
H27   H     H_    0.654087 0.352528 0.593565 0.233883
H28   H     H_    0.698525 0.349541 0.541363 0.233950
H29   H     H_    0.621905 0.381847 0.541048 0.237274
H30   H     H_    0.464197 0.337738 0.592765 0.243390
H31   H     H_    0.352528 0.345913 0.593564 0.233883
H32   H     H_    0.349541 0.301475 0.541362 0.233949
H33   H     H_    0.381847 0.378095 0.541048 0.237274
H34   H     H_    0.031921 0.646883 0.914443 0.209533
H35   H     H_    0.132091 0.622400 0.927715 0.229630
H36   H     H_    0.142985 0.690809 0.961607 0.226346
H37   H     H_    0.145623 0.695112 0.899590 0.236847
H38   H     H_    0.646883 0.031921 0.085557 0.209533
H39   H     H_    0.622400 0.132090 0.072285 0.229630
H40   H     H_    0.690810 0.142985 0.038393 0.226346
H41   H     H_    0.377600 0.132090 0.927715 0.229630
H42   H     H_    0.695112 0.145623 0.100410 0.236847
H43   H     H_    0.031920 0.353117 0.085557 0.209533
H44   H     H_    0.132090 0.377600 0.072285 0.229629
H45   H     H_    0.142985 0.309190 0.038393 0.226346
H46   H     H_    0.145623 0.304888 0.100410 0.236847
H47   H     H_    0.353117 0.968079 0.085557 0.209533
H48   H     H_    0.377600 0.867909 0.072285 0.229630
H49   H     H_    0.309190 0.857015 0.038393 0.226346
H50   H     H_    0.304888 0.854377 0.100410 0.236847
H51   H     H_    0.968079 0.646883 0.085557 0.209533
H52   H     H_    0.309190 0.142985 0.961607 0.226346
H53   H     H_    0.867909 0.622400 0.072285 0.229629
H54   H     H_    0.857015 0.690810 0.038393 0.226345
H55   H     H_    0.854377 0.695112 0.100410 0.236847
H56   H     H_    0.853117 0.531921 0.414443 0.209533
H57   H     H_    0.877600 0.632090 0.427715 0.229629
H58   H     H_    0.809191 0.642985 0.461607 0.226346
H59   H     H_    0.804888 0.645623 0.399590 0.236847
H60   H     H_    0.468079 0.853117 0.414443 0.209533
H61   H     H_    0.367910 0.877600 0.427715 0.229630
H62   H     H_    0.357015 0.809190 0.461607 0.226346
H63   H     H_    0.304888 0.145623 0.899590 0.236847
H64   H     H_    0.354377 0.804888 0.399590 0.236847
H65   H     H_    0.146883 0.468080 0.414443 0.209533
H66   H     H_    0.122400 0.367910 0.427715 0.229629
H67   H     H_    0.190810 0.357015 0.461607 0.226345
H68   H     H_    0.195112 0.354377 0.399590 0.236847
H69   H     H_    0.531921 0.146883 0.414443 0.209533
H70   H     H_    0.632091 0.122400 0.427716 0.229630
H71   H     H_    0.642985 0.190810 0.461607 0.226346
H72   H     H_    0.645623 0.195112 0.399590 0.236847
H73   H     H_    0.146883 0.531920 0.585557 0.209533
H74   H     H_    0.968080 0.353117 0.914443 0.209533
H75   H     H_    0.122400 0.632090 0.572285 0.229630
H76   H     H_    0.190810 0.642985 0.538393 0.226346
H77   H     H_    0.195112 0.645623 0.600410 0.236847
H78   H     H_    0.531921 0.853117 0.585557 0.209533
H79   H     H_    0.632091 0.877600 0.572285 0.229630
H80   H     H_    0.642985 0.809190 0.538393 0.226346
H81   H     H_    0.645623 0.804888 0.600410 0.236847
H82   H     H_    0.853117 0.468079 0.585557 0.209533
H83   H     H_    0.877600 0.367910 0.572285 0.229629
H84   H     H_    0.809190 0.357015 0.538393 0.226346
H85   H     H_    0.867910 0.377600 0.927715 0.229630
H86   H     H_    0.804888 0.354377 0.600410 0.236846
H87   H     H_    0.468079 0.146883 0.585557 0.209533
H88   H     H_    0.367909 0.122400 0.572284 0.229630
H89   H     H_    0.357015 0.190810 0.538392 0.226346
H90   H     H_    0.354376 0.195112 0.600410 0.236847
H91   H     H_    0.162262 0.035803 0.907235 0.243390
H92   H     H_    0.154087 0.147472 0.906435 0.233883
H93   H     H_    0.198525 0.150459 0.958637 0.233949
H94   H     H_    0.121905 0.118153 0.958952 0.237273
H95   H     H_    0.964197 0.162262 0.907235 0.243390
H96   H     H_    0.857015 0.309189 0.961606 0.226346
H97   H     H_    0.852528 0.154087 0.906435 0.233883
H98   H     H_    0.849541 0.198525 0.958637 0.233949
H99   H     H_    0.881847 0.121905 0.958952 0.237274
H100  H     H_    0.837738 0.964197 0.907235 0.243390
H101  H     H_    0.845913 0.852528 0.906435 0.233883
H102  H     H_    0.801475 0.849541 0.958637 0.233949
H103  H     H_    0.878095 0.881847 0.958952 0.237274
H104  H     H_    0.035803 0.837738 0.907235 0.243390
H105  H     H_    0.147472 0.845913 0.906435 0.233883
H106  H     H_    0.150459 0.801475 0.958637 0.233950
H107  H     H_    0.854378 0.304889 0.899589 0.236847
H108  H     H_    0.118153 0.878094 0.958952 0.237274
H109  H     H_    0.837738 0.035803 0.092765 0.243390
H110  H     H_    0.845913 0.147472 0.093565 0.233883
H111  H     H_    0.801475 0.150459 0.041363 0.233949
H112  H     H_    0.878094 0.118153 0.041048 0.237273
H113  H     H_    0.035803 0.162262 0.092765 0.243390
H114  H     H_    0.147471 0.154087 0.093565 0.233883
H115  H     H_    0.150459 0.198525 0.041363 0.233949
H116  H     H_    0.118153 0.121905 0.041048 0.237274
H117  H     H_    0.162262 0.964197 0.092765 0.243390
H118  H     H_    0.646883 0.968079 0.914443 0.209533
H119  H     H_    0.154087 0.852528 0.093565 0.233883
H120  H     H_    0.198525 0.849541 0.041363 0.233949
H121  H     H_    0.121905 0.881847 0.041048 0.237274
H122  H     H_    0.964197 0.837738 0.092765 0.243390
H123  H     H_    0.852528 0.845913 0.093565 0.233883
H124  H     H_    0.849541 0.801475 0.041363 0.233950
H125  H     H_    0.881847 0.878094 0.041048 0.237274
H126  H     H_    0.662261 0.535803 0.407235 0.243390
H127  H     H_    0.654087 0.647471 0.406435 0.233883
H128  H     H_    0.698525 0.650459 0.458637 0.233950
N1    N     N_2   0.316256 0.057000 0.926647 -0.279935
N2    N     N_2   0.443000 0.816256 0.426647 -0.279935
N3    N     N_2   0.183744 0.443000 0.426647 -0.279935
N4    N     N_2   0.557001 0.183744 0.426648 -0.279935
N5    N     N_2   0.183744 0.557000 0.573353 -0.279935
N6    N     N_2   0.557000 0.816256 0.573353 -0.279935
N7    N     N_2   0.816256 0.443000 0.573353 -0.279935
N8    N     N_2   0.442999 0.183744 0.573352 -0.279935
N9    N     N_2   0.189761 0.062665 0.927957 -0.270315
N10   N     N_2   0.937335 0.189761 0.927957 -0.270315
N11   N     N_2   0.810238 0.937335 0.927957 -0.270315
N12   N     N_2   0.943000 0.316256 0.926647 -0.279935
N13   N     N_2   0.062665 0.810238 0.927957 -0.270315
N14   N     N_2   0.810239 0.062665 0.072043 -0.270315
N15   N     N_2   0.062665 0.189761 0.072043 -0.270315
N16   N     N_2   0.189761 0.937335 0.072043 -0.270315
N17   N     N_2   0.937335 0.810238 0.072043 -0.270315
N18   N     N_2   0.689762 0.562665 0.427957 -0.270315
N19   N     N_2   0.437335 0.689762 0.427957 -0.270315
N20   N     N_2   0.310238 0.437335 0.427957 -0.270315
N21   N     N_2   0.562666 0.310238 0.427957 -0.270315
N22   N     N_2   0.310238 0.562665 0.572043 -0.270315
N23   N     N_2   0.683744 0.943000 0.926647 -0.279936
N24   N     N_2   0.562665 0.689761 0.572043 -0.270315
N25   N     N_2   0.689761 0.437335 0.572043 -0.270315
N26   N     N_2   0.437334 0.310238 0.572043 -0.270315
N27   N     N_2   0.057000 0.683744 0.926647 -0.279936
N28   N     N_2   0.683744 0.057000 0.073353 -0.279936
N29   N     N_2   0.057000 0.316256 0.073353 -0.279935
N30   N     N_2   0.316256 0.943000 0.073353 -0.279935
N31   N     N_2   0.943000 0.683744 0.073353 -0.279935
N32   N     N_2   0.816256 0.557000 0.426647 -0.279935
O1    O     O_R   0.408380 0.948270 0.000000 -0.610927
O2    O     O_R   0.551730 0.908380 0.500000 -0.610927
O3    O     O_R   0.091620 0.551730 0.500000 -0.610928
O4    O     O_R   0.448270 0.091620 0.500000 -0.610927
O5    O     O_R   0.091620 0.448270 0.500000 -0.610927
O6    O     O_R   0.448270 0.908380 0.500000 -0.610927
O7    O     O_R   0.908380 0.551730 0.500000 -0.610927
O8    O     O_R   0.551730 0.091620 0.500000 -0.610928
O9    O     O_R   0.499990 0.948270 0.063150 -0.604782
O10   O     O_R   0.051730 0.499990 0.063150 -0.604783
O11   O     O_R   0.500010 0.051730 0.063150 -0.604783
O12   O     O_R   0.051730 0.408380 0.000000 -0.610927
O13   O     O_R   0.948270 0.500010 0.063150 -0.604782
O14   O     O_R   0.500010 0.948270 0.936850 -0.604782
O15   O     O_R   0.948270 0.499990 0.936850 -0.604782
O16   O     O_R   0.499990 0.051730 0.936850 -0.604782
O17   O     O_R   0.051730 0.500010 0.936850 -0.604782
O18   O     O_R   0.999990 0.448270 0.563150 -0.604782
O19   O     O_R   0.551730 0.999990 0.563150 -0.604783
O20   O     O_R   0.000010 0.551730 0.563150 -0.604783
O21   O     O_R   0.448270 0.000010 0.563150 -0.604782
O22   O     O_R   0.000010 0.448270 0.436850 -0.604782
O23   O     O_R   0.591620 0.051730 0.000000 -0.610928
O24   O     O_R   0.448270 0.999990 0.436850 -0.604782
O25   O     O_R   0.999990 0.551730 0.436850 -0.604782
O26   O     O_R   0.551730 0.000010 0.436850 -0.604782
O27   O     O_R   0.000010 0.908280 0.964370 -0.631382
O28   O     O_R   0.091720 0.000010 0.964370 -0.631382
O29   O     O_R   0.999990 0.091720 0.964370 -0.631383
O30   O     O_R   0.908280 0.999990 0.964370 -0.631383
O31   O     O_R   0.999990 0.908280 0.035630 -0.631383
O32   O     O_R   0.908280 0.000010 0.035630 -0.631383
O33   O     O_R   0.000010 0.091720 0.035630 -0.631383
O34   O     O_R   0.948270 0.591620 0.000000 -0.610927
O35   O     O_R   0.091720 0.999990 0.035630 -0.631383
O36   O     O_R   0.500010 0.408280 0.464370 -0.631382
O37   O     O_R   0.591720 0.500010 0.464370 -0.631382
O38   O     O_R   0.499990 0.591720 0.464370 -0.631382
O39   O     O_R   0.408280 0.499990 0.464370 -0.631382
O40   O     O_R   0.499990 0.408280 0.535630 -0.631383
O41   O     O_R   0.408280 0.500010 0.535630 -0.631383
O42   O     O_R   0.500010 0.591720 0.535630 -0.631383
O43   O     O_R   0.591720 0.499990 0.535630 -0.631383
O44   O     O_R   0.591620 0.948270 0.000000 -0.610927
O45   O     O_R   0.948270 0.408380 0.000000 -0.610927
O46   O     O_R   0.408380 0.051730 0.000000 -0.610927
O47   O     O_R   0.051730 0.591620 0.000000 -0.610928
O48   O     O_R   0.908380 0.448270 0.500000 -0.610927
Zn1   Zn    Zn3+2 0.500000 0.930930 0.000000 0.929615
Zn2   Zn    Zn3+2 0.000000 0.000000 0.047590 0.915097
Zn3   Zn    Zn3+2 0.500000 0.500000 0.452410 0.915097
Zn4   Zn    Zn3+2 0.500000 0.500000 0.547590 0.915096
Zn5   Zn    Zn3+2 0.069070 0.500000 0.000000 0.929614
Zn6   Zn    Zn3+2 0.500000 0.069070 0.000000 0.929614
Zn7   Zn    Zn3+2 0.930930 0.500000 0.000000 0.929615
Zn8   Zn    Zn3+2 0.000000 0.430930 0.500000 0.929615
Zn9   Zn    Zn3+2 0.569070 0.000000 0.500000 0.929614
Zn10  Zn    Zn3+2 1.000000 0.569070 0.500000 0.929614
Zn11  Zn    Zn3+2 0.430930 0.000000 0.500000 0.929614
Zn12  Zn    Zn3+2 1.000000 1.000000 0.952410 0.915097

loop_
_geom_bond_atom_site_label_1
_geom_bond_atom_site_label_2
_ccdc_geom_bond_type
C118  O27   A    
C14   H80   S    
C5    H46   S    
O20   Zn10  S    
H126  N18   S    
C36   O42   A    
C50   C59   T    
C88   C123  A    
C87   C124  A    
C73   N1    S    
C29   N21   S    
H21   N24   S    
C23   H120  S    
C31   H25   S    
C44   C53   S    
C20   H108  S    
O30   Zn12  S    
C89   C106  A    
C126  H52   S    
O41   Zn4   S    
C126  N1    S    
O29   Zn12  S    
C92   N10   S    
C98   C109  A    
C9    N2    S    
O11   Zn6   S    
C9    H61   S    
C22   H115  S    
C21   N14   S    
C8    H59   S    
C23   N16   S    
O17   Zn5   S    
C46   O24   A    
O34   Zn7   S    
C18   N10   S    
C31   H22   S    
C107  O8    A    
C81   C99   A    
C29   H16   S    
C4    H40   S    
C81   C121  A    
C33   H33   S    
O14   Zn1   S    
C75   C119  A    
O10   Zn5   S    
O38   Zn3   S    
C19   H101  S    
C35   O43   A    
C3    H36   S    
C93   N11   S    
C6    H49   S    
C29   H14   S    
C32   N25   S    
C27   N19   S    
C80   C117  A    
C27   H6    S    
C127  H107  S    
H87   N8    S    
C79   C97   A    
C28   H9    S    
C80   N30   S    
C7    H55   S    
C12   H77   S    
C103  C116  A    
C63   O34   A    
C74   O48   A    
O19   Zn9   S    
C25   H123  S    
H51   N31   S    
C85   C123  S    
C39   O10   A    
C24   O30   A    
O27   Zn12  S    
H118  N23   S    
C17   H93   S    
C18   H99   S    
C8    N32   S    
O3    Zn10  S    
C58   C67   S    
H30   N26   S    
C2    O35   A    
C10   N3    S    
C91   N9    S    
H74   N12   S    
C20   N13   S    
C82   C122  A    
C22   N15   S    
C2    C109  S    
C84   C102  A    
C57   C66   S    
C36   C114  S    
C88   N6    S    
C48   C57   T    
H34   N27   S    
C85   O2    A    
C76   C120  A    
C4    H42   S    
C44   O19   A    
C45   O22   A    
H1    N1    S    
C26   H127  S    
C41   O12   A    
C12   H75   S    
C89   C122  A    
C40   C49   S    
C77   C94   A    
C83   N2    S    
C96   O5    A    
C14   N6    S    
C32   H28   S    
C53   C61   T    
C128  H24   S    
C16   H90   S    
H109  N14   S    
C89   N7    S    
C90   N8    S    
C33   H32   S    
O18   Zn8   S    
O46   Zn6   S    
C28   H11   S    
O26   Zn9   S    
C42   O15   A    
C30   N22   S    
O25   Zn10  S    
C7    H53   S    
C42   O17   A    
C15   N7    S    
C107  C125  S    
C25   H125  S    
C127  H85   S    
C13   O33   A    
C8    H58   S    
C35   C113  S    
C100  N18   S    
C46   C55   S    
C15   H84   S    
O37   Zn3   S    
C18   H97   S    
C10   H68   S    
C31   H23   S    
C45   O25   A    
C1    C117  S    
C31   N24   S    
C86   N4    S    
O40   Zn4   S    
C127  H96   S    
C42   C50   S    
C21   H111  S    
C41   O45   A    
O47   Zn5   S    
C107  O4    A    
C3    H37   S    
C95   N14   S    
C19   N11   S    
C32   H29   S    
H82   N7    S    
C33   N26   S    
O7    Zn10  S    
C14   H81   S    
H104  N13   S    
C5    H45   S    
C44   O21   A    
O44   Zn1   S    
C65   C72   T    
C67   C70   T    
C27   H7    S    
O23   Zn6   S    
C11   H70   S    
C90   C108  A    
O48   Zn8   S    
O22   Zn8   S    
C88   C105  A    
C92   C110  A    
O33   Zn2   S    
C60   C69   S    
C94   C112  A    
C4    N28   S    
C5    H44   S    
C62   C71   S    
C5    N29   S    
C12   H76   S    
C23   H119  S    
C77   C121  A    
O35   Zn2   S    
C20   H105  S    
C34   O36   A    
C105  N24   S    
C51   C60   T    
O1    Zn1   S    
C26   H3    S    
C47   C56   T    
C61   C70   S    
C79   N29   S    
C84   N3    S    
C22   H116  S    
C74   O7    A    
O13   Zn7   S    
C10   H66   S    
O32   Zn2   S    
C29   H15   S    
C16   H88   S    
C37   O41   A    
H95   N10   S    
C25   N17   S    
C102  C115  A    
C63   O47   A    
C68   C69   T    
C79   C119  A    
C81   N31   S    
O8    Zn9   S    
C82   N32   S    
C128  H13   S    
C87   N5    S    
C3    H35   S    
C14   H79   S    
C6    H50   S    
C101  C114  A    
H69   N4    S    
O39   Zn3   S    
C75   N12   S    
C127  N12   S    
O31   Zn2   S    
C27   H5    S    
C30   H19   S    
H117  N16   S    
C28   H10   S    
C35   O37   A    
C97   N15   S    
C54   C62   T    
C98   N16   S    
H4    N19   S    
H113  N15   S    
O15   Zn7   S    
H100  N11   S    
C76   C93   A    
C104  C115  A    
C66   C71   T    
C78   C95   A    
C13   O29   A    
C77   N27   S    
C40   O14   A    
C78   N28   S    
C17   H92   S    
C93   C111  A    
O4    Zn11  S    
C74   C122  S    
O16   Zn6   S    
C43   O20   A    
C9    H62   S    
C22   H114  S    
C76   N23   S    
C80   C98   A    
H91   N9    S    
O36   Zn3   S    
H12   N21   S    
O42   Zn4   S    
H43   N29   S    
C128  H2    S    
C30   H20   S    
C37   C115  S    
C118  O31   A    
C4    H39   S    
C11   N4    S    
C108  C116  A    
C23   H121  S    
C128  N23   S    
C26   H128  S    
C94   N13   S    
C43   C51   S    
H65   N3    S    
C90   C125  A    
C36   O38   A    
C12   N5    S    
C126  H63   S    
C19   H102  S    
C11   H71   S    
C87   C104  A    
H26   N25   S    
C83   C123  A    
C33   H31   S    
C39   C48   S    
C97   C110  A    
O5    Zn8   S    
C78   C120  A    
H17   N22   S    
C96   O3    A    
H38   N28   S    
C99   N17   S    
H78   N6    S    
C6    N30   S    
H73   N5    S    
C37   O39   A    
C25   H124  S    
O43   Zn4   S    
C28   N20   S    
C99   C112  A    
C34   C116  S    
C56   C65   S    
C34   O40   A    
H122  N17   S    
C40   O16   A    
C15   H83   S    
C17   H94   S    
C18   H98   S    
C11   H72   S    
O24   Zn11  S    
C52   O44   A    
O21   Zn11  S    
C17   N9    S    
C43   O18   A    
C9    H64   S    
C3    N27   S    
C21   H110  S    
C38   O11   A    
H56   N32   S    
C86   C125  A    
H8    N20   S    
C24   C111  S    
C15   H86   S    
C86   C103  A    
C63   C121  S    
C30   H18   S    
O28   Zn12  S    
C73   C117  A    
C96   C124  S    
C1    O1    A    
C105  C114  A    
C7    N31   S    
C73   C91   A    
C104  N22   S    
C26   N18   S    
O6    Zn11  S    
C41   C119  S    
C49   C58   T    
H47   N30   S    
C13   C110  S    
C59   C68   S    
C32   H27   S    
O9    Zn1   S    
C55   C64   T    
C16   H89   S    
C38   C47   S    
C75   C92   A    
C106  C113  A    
C52   C120  S    
C45   C54   S    
C20   H106  S    
C2    O28   A    
C103  N21   S    
H60   N2    S    
O12   Zn5   S    
C108  N26   S    
C7    H54   S    
C82   C100  A    
C100  C113  A    
C8    H57   S    
C84   C124  A    
C52   O23   A    
C39   O13   A    
C106  N25   S    
C91   C109  A    
O2    Zn9   S    
C24   O32   A    
C126  H41   S    
C95   C111  A    
C10   H67   S    
C46   O26   A    
C112  C118  S    
C1    O46   A    
C6    H48   S    
C85   O6    A    
C64   C72   S    
C16   N8    S    
C21   H112  S    
O45   Zn7   S    
C38   O9    A    
C83   C101  A    
C101  N19   S    
C102  N20   S    
C19   H103  S    
