data_mof_unit_5206.cif
_audit_creation_date              2013-03-05T15:41:18-0500
_audit_creation_method            fapswitch 2.2
_symmetry_space_group_name_H-M    P1
_symmetry_Int_Tables_number       1
_space_group_crystal_system       triclinic
_cell_length_a                    16.871847
_cell_length_b                    16.854294
_cell_length_c                    16.756094
_cell_angle_alpha                 66.044278
_cell_angle_beta                  66.169445
_cell_angle_gamma                 66.298245
_cell_volume                      3818.39730233

loop_
_atom_site_label
_atom_site_type_symbol
_atom_site_description
_atom_site_fract_x
_atom_site_fract_y
_atom_site_fract_z
_atom_type_partial_charge
O1    O     O_R   0.982940 0.138950 0.510160 -0.594087
O2    O     O_R   0.017060 0.861050 0.489840 -0.636795
O3    O     O_R   0.138950 0.510160 0.982940 -0.615663
O4    O     O_R   0.861050 0.489840 0.017060 -0.635827
O5    O     O_R   0.510160 0.982940 0.138950 -0.618443
O6    O     O_R   0.489840 0.017060 0.861050 -0.590331
O7    O     O_R   0.489840 0.861050 0.017060 -0.647729
O8    O     O_R   0.510160 0.138950 0.982940 -0.650212
O9    O     O_R   0.017060 0.489840 0.861050 -0.626503
O10   O     O_R   0.982940 0.510160 0.138950 -0.644247
O11   O     O_R   0.861050 0.017060 0.489840 -0.600128
O12   O     O_R   0.138950 0.982940 0.510160 -0.647442
C1    C     C_R   0.313087 0.004219 0.433635 -0.003578
C2    C     C_R   0.675382 0.053520 0.539473 0.033636
C3    C     C_R   0.999337 0.433682 0.316333 0.005834
C4    C     C_R   0.053753 0.538862 0.675342 0.014880
C5    C     C_R   0.434972 0.316570 0.997150 -0.002816
C6    C     C_R   0.539575 0.675986 0.049855 -0.012646
C7    C     C_R   0.540694 0.063743 0.668590 -0.042546
C8    C     C_R   0.457082 0.950521 0.327465 0.031403
C9    C     C_R   0.680276 0.557999 0.013669 0.002775
C10   C     C_R   0.324831 0.459691 0.947910 0.031706
C11   C     C_R   0.015836 0.679772 0.557169 0.006675
C12   C     C_R   0.951921 0.322700 0.460513 0.038185
O13   O     O_R   0.867700 0.025880 0.612340 -0.601809
O14   O     O_R   0.132300 0.974120 0.387660 -0.627570
O15   O     O_R   0.025880 0.612340 0.867700 -0.625894
O16   O     O_R   0.974120 0.387660 0.132300 -0.626196
O17   O     O_R   0.612340 0.867700 0.025880 -0.623320
O18   O     O_R   0.387660 0.132300 0.974120 -0.586871
O19   O     O_R   0.387660 0.974120 0.132300 -0.616587
O20   O     O_R   0.612340 0.025880 0.867700 -0.636304
O21   O     O_R   0.132300 0.387660 0.974120 -0.618427
O22   O     O_R   0.867700 0.612340 0.025880 -0.629977
O23   O     O_R   0.974120 0.132300 0.387660 -0.594129
O24   O     O_R   0.025880 0.867700 0.612340 -0.628240
H1    H     H_    0.283613 0.934390 0.284855 0.206558
H2    H     H_    0.720072 0.057220 0.719613 0.211576
H3    H     H_    0.931276 0.285728 0.284721 0.211123
H4    H     H_    0.063682 0.716867 0.716674 0.205512
H5    H     H_    0.283160 0.282683 0.936618 0.219278
H6    H     H_    0.717294 0.717193 0.060875 0.205084
C13   C     C_R   0.960423 0.179099 0.439104 0.979835
C14   C     C_R   0.025249 0.822039 0.567377 0.960999
C15   C     C_R   0.178970 0.437796 0.962996 1.023550
C16   C     C_R   0.822155 0.567344 0.024960 0.961684
C17   C     C_R   0.437604 0.963216 0.179488 1.018285
C18   C     C_R   0.563226 0.035710 0.820432 0.945722
C19   C     C_R   0.562544 0.821062 0.035924 0.962585
C20   C     C_R   0.431749 0.177250 0.976832 0.996332
C21   C     C_R   0.037274 0.562067 0.821045 1.005490
C22   C     C_R   0.976613 0.431738 0.177432 0.964254
C23   C     C_R   0.821119 0.035801 0.562739 0.955541
C24   C     C_R   0.176738 0.978328 0.431243 0.970912
C25   C     C_R   0.407915 0.983732 0.403925 0.015652
C26   C     C_R   0.586033 0.049210 0.582129 0.007260
C27   C     C_R   0.981892 0.400568 0.411749 0.028452
C28   C     C_R   0.031607 0.585035 0.592886 0.015472
C29   C     C_R   0.402499 0.411596 0.978185 0.020603
C30   C     C_R   0.585918 0.593727 0.028120 0.006338
C31   C     C_R   0.270422 0.977623 0.394038 -0.079648
C32   C     C_R   0.723575 0.055464 0.591756 -0.078972
C33   C     C_R   0.974326 0.394300 0.272379 -0.079907
C34   C     C_R   0.055964 0.591351 0.723018 -0.028700
C35   C     C_R   0.394507 0.271902 0.974351 -0.094842
C36   C     C_R   0.591901 0.723513 0.052905 -0.034744
C37   C     C_R   0.592824 0.058820 0.720757 -0.071068
C38   C     C_R   0.407161 0.946073 0.278211 -0.026427
C39   C     C_R   0.726563 0.602333 0.030110 -0.093650
C40   C     C_R   0.276660 0.408015 0.945091 -0.035891
C41   C     C_R   0.031753 0.726258 0.601875 -0.092864
C42   C     C_R   0.944174 0.276663 0.409538 -0.068681
Zn1   Zn    Zn3+2 0.004880 0.004880 0.583590 1.065436
Zn2   Zn    Zn3+2 0.995120 0.995120 0.416410 1.080030
Zn3   Zn    Zn3+2 0.004880 0.583590 0.004880 1.034164
Zn4   Zn    Zn3+2 0.995120 0.416410 0.995120 1.054625
Zn5   Zn    Zn3+2 0.583590 0.004880 0.004880 1.038809
Zn6   Zn    Zn3+2 0.416410 0.995120 0.995120 1.114517
C43   C     C_R   0.444979 0.090498 0.694622 0.292108
C44   C     C_R   0.553167 0.924339 0.303539 0.209070
C45   C     C_R   0.981566 0.723378 0.480208 0.216912
C46   C     C_R   0.931148 0.293726 0.557553 0.248094
C47   C     C_R   0.723995 0.481300 0.979802 0.215072
C48   C     C_R   0.299258 0.556577 0.922277 0.216097
C49   C     C_R   0.264894 0.052468 0.499866 0.225179
C50   C     C_R   0.710773 0.062707 0.444420 0.244165
C51   C     C_R   0.505879 0.270391 0.039340 0.223457
C52   C     C_R   0.443616 0.707992 0.064529 0.216811
C53   C     C_R   0.042230 0.504178 0.269051 0.220390
C54   C     C_R   0.069257 0.442785 0.708339 0.221191
C55   C     C_R   0.318157 0.948048 0.318139 -0.254831
C56   C     C_R   0.681369 0.059727 0.679911 -0.230570
C57   C     C_R   0.945207 0.318092 0.319969 -0.244425
C58   C     C_R   0.054934 0.680439 0.681663 -0.249031
C59   C     C_R   0.316935 0.318480 0.947780 -0.202641
C60   C     C_R   0.680883 0.682345 0.052076 -0.250800
C61   C     C_R   0.676292 0.026325 0.406068 -0.072750
C62   C     C_R   0.309242 0.043560 0.560570 -0.056220
C63   C     C_R   0.029227 0.403159 0.678696 -0.044717
C64   C     C_R   0.025464 0.565444 0.316022 -0.095870
C65   C     C_R   0.405388 0.678189 0.023137 -0.090531
C66   C     C_R   0.566891 0.317880 0.021651 -0.098572
C67   C     C_R   0.595111 0.962511 0.332598 -0.044228
C68   C     C_R   0.400460 0.063654 0.657493 -0.042885
C69   C     C_R   0.329194 0.599263 0.959290 -0.048448
C70   C     C_R   0.673346 0.420969 0.003890 -0.090897
C71   C     C_R   0.965788 0.325712 0.600440 -0.043854
C72   C     C_R   0.005874 0.672732 0.419610 -0.091557
C73   C     C_R   0.724501 0.003536 0.322665 -0.059473
C74   C     C_R   0.262439 0.052147 0.650110 -0.045164
C75   C     C_R   0.003469 0.321875 0.730855 -0.031219
C76   C     C_R   0.025346 0.657675 0.272222 -0.016745
C77   C     C_R   0.324159 0.729313 0.997484 -0.056446
C78   C     C_R   0.658876 0.274931 0.020843 -0.020525
C79   C     C_R   0.684983 0.969125 0.287282 -0.025900
C80   C     C_R   0.307949 0.064762 0.697853 -0.048737
C81   C     C_R   0.286933 0.690424 0.963693 -0.044385
C82   C     C_R   0.712876 0.326959 0.012244 -0.032159
C83   C     C_R   0.969609 0.284600 0.692391 -0.078459
C84   C     C_R   0.013880 0.712424 0.324985 -0.023909
C85   C     C_R   0.545533 0.993287 0.410552 0.060591
C86   C     C_R   0.448823 0.038913 0.575933 0.016964
C87   C     C_R   0.993040 0.405319 0.550247 0.061859
C88   C     C_R   0.013746 0.580016 0.458768 0.053280
C89   C     C_R   0.407962 0.549949 0.987549 0.062810
C90   C     C_R   0.581232 0.459840 0.010330 0.052342
C91   C     C_R   0.588135 0.017121 0.451292 0.056548
C92   C     C_R   0.403777 0.026107 0.529273 0.038739
C93   C     C_R   0.450176 0.592411 0.009431 0.044082
C94   C     C_R   0.531816 0.411597 0.008238 0.046830
C95   C     C_R   0.014837 0.448003 0.592393 0.047288
C96   C     C_R   0.012067 0.530250 0.410544 0.047121
C97   C     C_R   0.452743 0.000136 0.448394 -0.011406
C98   C     C_R   0.540680 0.035820 0.536084 -0.014831
C99   C     C_R   0.996402 0.444791 0.457567 -0.012138
C100  C     C_R   0.020735 0.537242 0.547875 -0.015678
C101  C     C_R   0.447000 0.457797 0.991795 -0.010571
C102  C     C_R   0.538675 0.548549 0.016608 -0.017838
C103  C     C_2   0.260163 0.076371 0.790589 0.604718
H7    H     H_    0.190961 0.118157 0.805980 0.170393
O25   O     O_2   0.297700 0.038727 0.850681 -0.584035
C104  C     C_2   0.734258 0.945898 0.199627 0.663479
H8    H     H_    0.697694 0.962402 0.151864 0.043111
O26   O     O_2   0.814384 0.904313 0.182018 -0.482568
C105  C     C_2   0.016745 0.808351 0.283145 0.583810
H9    H     H_    0.042850 0.835986 0.312480 0.030640
O27   O     O_2   0.986350 0.858657 0.219222 -0.455384
C106  C     C_2   0.944397 0.199437 0.746209 0.645389
H10   H     H_    0.977701 0.141254 0.720095 0.070514
O28   O     O_2   0.884623 0.194651 0.818520 -0.487413
C107  C     C_2   0.807229 0.285398 0.019313 0.575231
H11   H     H_    0.834639 0.318271 0.041756 0.027717
O29   O     O_2   0.856503 0.216794 0.997737 -0.427618
C108  C     C_2   0.201571 0.742029 0.937736 0.674852
H12   H     H_    0.151224 0.707964 0.956623 0.040378
O30   O     O_2   0.189097 0.820849 0.890612 -0.485864
C109  C     C_2   0.171818 0.034134 0.695668 0.437505
H13   H     H_    0.138711 0.025927 0.657116 0.088528
O31   O     O_2   0.134486 0.023476 0.777085 -0.521520
C110  C     C_2   0.818634 0.008822 0.276782 0.669364
H14   H     H_    0.865927 0.981430 0.316502 0.077675
O32   O     O_2   0.843218 0.046889 0.195415 -0.434051
C111  C     C_2   0.698352 0.179748 0.017465 0.619473
H15   H     H_    0.680295 0.158465 0.975610 0.032776
O33   O     O_2   0.745696 0.123168 0.065631 -0.488862
C112  C     C_2   0.284734 0.825661 0.998069 0.609624
H16   H     H_    0.329211 0.865765 0.980867 0.054284
O34   O     O_2   0.203187 0.859455 0.022702 -0.427947
C113  C     C_2   0.028572 0.696695 0.174329 0.605331
H17   H     H_    0.993789 0.675677 0.147631 0.026855
O35   O     O_2   0.074507 0.747709 0.121683 -0.494335
C114  C     C_2   0.003101 0.282041 0.828237 0.616296
H18   H     H_    0.989409 0.325869 0.867897 0.064461
O36   O     O_2   0.023070 0.200254 0.863597 -0.497623
N1    N     N_R   0.396891 0.171350 0.723973 0.236467
O37   O     O_R   0.340773 0.235806 0.680705 -0.293296
O38   O     O_R   0.424963 0.192109 0.772648 -0.370703
N2    N     N_R   0.605140 0.843029 0.274729 0.187927
O39   O     O_R   0.676562 0.790588 0.301631 -0.355906
O40   O     O_R   0.570571 0.808591 0.244250 -0.379653
N3    N     N_R   0.898318 0.796920 0.484972 0.212973
O41   O     O_R   0.855683 0.821582 0.559254 -0.393260
O42   O     O_R   0.852671 0.820989 0.428134 -0.428601
N4    N     N_R   0.851079 0.263913 0.608771 0.183098
O43   O     O_R   0.772623 0.322221 0.605269 -0.330555
O44   O     O_R   0.855185 0.179130 0.651500 -0.405480
N5    N     N_R   0.798320 0.485749 0.896429 0.210523
O45   O     O_R   0.823468 0.559540 0.853202 -0.393857
O46   O     O_R   0.822987 0.428792 0.850951 -0.432920
N6    N     N_R   0.269925 0.608445 0.840661 0.187886
O47   O     O_R   0.298850 0.678452 0.785719 -0.366720
O48   O     O_R   0.237381 0.574139 0.807973 -0.380430
N7    N     N_R   0.186801 0.129687 0.485994 0.215697
O49   O     O_R   0.168413 0.160592 0.408620 -0.378594
O50   O     O_R   0.149963 0.183112 0.537601 -0.438528
N8    N     N_R   0.743993 0.140412 0.387467 0.191597
O51   O     O_R   0.692419 0.220212 0.395241 -0.341023
O52   O     O_R   0.827085 0.132469 0.336298 -0.406385
N9    N     N_R   0.496456 0.193351 0.120144 0.216901
O53   O     O_R   0.421265 0.171051 0.156178 -0.387497
O54   O     O_R   0.549903 0.161983 0.171072 -0.409193
N10   N     N_R   0.385621 0.746855 0.139156 0.213428
O55   O     O_R   0.420795 0.757765 0.188946 -0.366235
O56   O     O_R   0.301293 0.746802 0.173502 -0.367696
N11   N     N_R   0.122600 0.493447 0.192305 0.216424
O57   O     O_R   0.156095 0.418451 0.170017 -0.382686
O58   O     O_R   0.175479 0.544587 0.161969 -0.401386
N12   N     N_R   0.140976 0.386861 0.751407 0.215410
O59   O     O_R   0.193353 0.423665 0.755523 -0.340372
O60   O     O_R   0.169308 0.299880 0.764477 -0.382192

loop_
_geom_bond_atom_site_label_1
_geom_bond_atom_site_label_2
_geom_bond_distance
_ccdc_geom_bond_type
C7    C26   1.409265 A    
C11   C28   1.410546 A    
C2    C26   1.401369 A    
O23   Zn2   2.068364 S    
C4    C54   1.430230 A    
C13   C42   1.452689 S    
C62   C74   1.422182 A    
C74   C80   1.428468 A    
C65   C77   1.425256 A    
C113  H17   1.085355 S    
C72   C84   1.420556 A    
C111  H15   1.085443 S    
O9    C21   1.238526 A    
C91   C98   1.414405 A    
C51   N9    1.452176 S    
C61   C91   1.410629 A    
C39   C60   1.373425 A    
O10   C22   1.240931 A    
C52   C65   1.433240 A    
N1    O38   1.299629 A    
C41   C58   1.370415 A    
O4    C16   1.239184 A    
N11   O57   1.301946 A    
O5    C17   1.241904 A    
N6    O47   1.302189 A    
C52   N10   1.453021 S    
N10   O56   1.301711 A    
H6    C60   1.085203 S    
C111  O33   1.217510 D    
O13   Zn1   2.071972 S    
C106  O28   1.220775 D    
C85   C91   1.412557 A    
C79   C104  1.490028 S    
O15   Zn3   2.054102 S    
O6    Zn6   2.040357 S    
C68   C86   1.412613 A    
C90   C94   1.396163 A    
C2    C32   1.431796 A    
C46   N4    1.439677 S    
C38   C55   1.367398 A    
O21   C15   1.287334 A    
N4    O43   1.300577 A    
C88   C96   1.394725 A    
C14   C41   1.450270 S    
C75   C83   1.432267 A    
C75   C114  1.489594 S    
O10   Zn3   2.038136 S    
C50   C61   1.426979 A    
C12   C46   1.427417 A    
C22   C33   1.444131 S    
C86   C98   1.406242 A    
C16   C39   1.456225 S    
C49   C62   1.420454 A    
C50   N8    1.443284 S    
O20   Zn5   2.054388 S    
C68   C80   1.423986 A    
O1    C13   1.234656 A    
C109  H13   1.083821 S    
C53   N11   1.451806 S    
C93   C102  1.405685 A    
C9    C47   1.424105 A    
O15   C21   1.285130 A    
N12   O59   1.301967 A    
N7    O50   1.301115 A    
C32   C56   1.374490 A    
C107  H11   1.085343 S    
C7    C37   1.431163 A    
O22   C16   1.285864 A    
O9    Zn4   2.038136 S    
C71   C87   1.409293 A    
O3    Zn3   2.056783 S    
O8    Zn5   2.053985 S    
C108  O30   1.220769 D    
O11   C23   1.234087 A    
O22   Zn3   2.072235 S    
C80   C103  1.486805 S    
C62   C92   1.406306 A    
O18   C20   1.279722 A    
C45   C72   1.419058 A    
N9    O53   1.302037 A    
C109  O31   1.219725 D    
O19   C17   1.290319 A    
O12   Zn1   2.053123 S    
C70   C82   1.421523 A    
C112  O34   1.220553 D    
C3    C27   1.407649 A    
C69   C81   1.429454 A    
H5    C59   1.085305 S    
C72   C88   1.400361 A    
C8    C25   1.411777 A    
H3    C57   1.085586 S    
O14   C24   1.275812 A    
C71   C83   1.426723 A    
C10   C40   1.433469 A    
C105  O27   1.219011 D    
C114  O36   1.220420 D    
C105  H9    1.085482 S    
N3    O42   1.300970 A    
O4    Zn4   2.056783 S    
N10   O55   1.301694 A    
C8    C44   1.423681 A    
C44   C67   1.432016 A    
N2    O39   1.302166 A    
C106  H10   1.084276 S    
C2    C50   1.422266 A    
C9    C30   1.411344 A    
N8    O52   1.299780 A    
C95   C100  1.406337 A    
C19   C36   1.452146 S    
O2    C14   1.231943 A    
C77   C112  1.489569 S    
C76   C84   1.432249 A    
C88   C100  1.401000 A    
C12   C27   1.405195 A    
O17   C19   1.288907 A    
C53   C64   1.418076 A    
C1    C49   1.423424 A    
C28   C100  1.405432 A    
C83   C106  1.477889 S    
C25   C97   1.412268 A    
O3    C15   1.241654 A    
C6    C52   1.434066 A    
C87   C99   1.406299 A    
C44   N2    1.452269 S    
N3    O41   1.302196 A    
C67   C79   1.423005 A    
C66   C78   1.421455 A    
C11   C41   1.433671 A    
C3    C53   1.423615 A    
C51   C66   1.418222 A    
C61   C73   1.424192 A    
C23   C32   1.449313 S    
O21   Zn4   2.072236 S    
N2    O40   1.300557 A    
N1    O37   1.300184 A    
C35   C59   1.374216 A    
C63   C75   1.424417 A    
C10   C48   1.432110 A    
C48   C69   1.436996 A    
C1    C31   1.430460 A    
C31   C55   1.370707 A    
C4    C28   1.401573 A    
C46   C71   1.433839 A    
C103  O25   1.221049 D    
C48   N6    1.451767 S    
O7    C19   1.238748 A    
C108  H12   1.085651 S    
C78   C82   1.432968 A    
C74   C109  1.501477 S    
O6    C18   1.246295 A    
C5    C29   1.410042 A    
O7    Zn6   2.053987 S    
C54   N12   1.452496 S    
C42   C57   1.370389 A    
C6    C30   1.405189 A    
C47   N5    1.450752 S    
C110  O32   1.220318 D    
C64   C76   1.423834 A    
C65   C93   1.401778 A    
C112  H16   1.085300 S    
C77   C81   1.436773 A    
C43   C68   1.426650 A    
O24   C14   1.282145 A    
O5    Zn5   2.040357 S    
O16   Zn4   2.054102 S    
O8    C20   1.243593 A    
C17   C38   1.458871 S    
C10   C29   1.407421 A    
O23   C13   1.289668 A    
C114  H18   1.085377 S    
C12   C42   1.434798 A    
O19   Zn6   2.054389 S    
C36   C60   1.374428 A    
C94   C101  1.406597 A    
C54   C63   1.432468 A    
C70   C90   1.399827 A    
C45   N3    1.451075 S    
C90   C102  1.402023 A    
N6    O48   1.300475 A    
C11   C45   1.424314 A    
H1    C55   1.085588 S    
C87   C95   1.409475 A    
C15   C40   1.454697 S    
C5    C51   1.422928 A    
C8    C38   1.434872 A    
C21   C34   1.445417 S    
C66   C94   1.401202 A    
H4    C58   1.085453 S    
N8    O51   1.301105 A    
O11   Zn2   2.053123 S    
O2    Zn2   2.048112 S    
C26   C98   1.410329 A    
C103  H7    1.081123 S    
C64   C96   1.402505 A    
C24   C31   1.442860 S    
C63   C95   1.403574 A    
C6    C36   1.435929 A    
C33   C57   1.373326 A    
C5    C35   1.427008 A    
C47   C70   1.419040 A    
C69   C89   1.407847 A    
C89   C101  1.406009 A    
C110  H14   1.084539 S    
C40   C59   1.373375 A    
O1    Zn1   2.048112 S    
N5    O45   1.302231 A    
C92   C97   1.413156 A    
O16   C22   1.277738 A    
C43   N1    1.445693 S    
C49   N7    1.451573 S    
C78   C111  1.484812 S    
O20   C18   1.286408 A    
C96   C99   1.407645 A    
C37   C56   1.372618 A    
O14   Zn2   2.071972 S    
N4    O44   1.299621 A    
C104  O26   1.220543 D    
C107  O29   1.217615 D    
C18   C37   1.464470 S    
C86   C92   1.408745 A    
C82   C107  1.492451 S    
C20   C35   1.450132 S    
N5    O46   1.300782 A    
O24   Zn1   2.068366 S    
C73   C79   1.428985 A    
C34   C58   1.370714 A    
O18   Zn6   2.068915 S    
C89   C93   1.409885 A    
C84   C105  1.490903 S    
O17   Zn5   2.068914 S    
C76   C113  1.485487 S    
N12   O60   1.298499 A    
N7    O49   1.301981 A    
C9    C39   1.433268 A    
C81   C108  1.487216 S    
N9    O54   1.301164 A    
C3    C33   1.426305 A    
C104  H8    1.085667 S    
C27   C99   1.402902 A    
C4    C34   1.430651 A    
C85   C97   1.406515 A    
N11   O58   1.301261 A    
C73   C110  1.480823 S    
C29   C101  1.405236 A    
O12   C24   1.234294 A    
O13   C23   1.282835 A    
C7    C43   1.416531 A    
H2    C56   1.084776 S    
C30   C102  1.408466 A    
C1    C25   1.406638 A    
C113  O35   1.218791 D    
C67   C85   1.411879 A    
