data_mof_unit_31595.cif
_audit_creation_date              2012-12-10T19:57:43-0500
_audit_creation_method            fapswitch 2.2
_symmetry_space_group_name_H-M    P1
_symmetry_Int_Tables_number       1
_space_group_crystal_system       triclinic
_cell_length_a                    26.076607
_cell_length_b                    25.862904
_cell_length_c                    18.361404
_cell_angle_alpha                 89.945992
_cell_angle_beta                  135.035332
_cell_angle_gamma                 90.234859
_cell_volume                      8750.76388785

loop_
_atom_site_label
_atom_site_type_symbol
_atom_type_description
_atom_site_fract_x
_atom_site_fract_y
_atom_site_fract_z
_atom_type_partial_charge
C1    C     C_R   0.889439 0.750215 0.498909 0.888958
C2    C     C_R   0.449546 0.246145 0.891673 -0.330958
C3    C     C_R   0.250075 0.889989 0.500209 0.938286
C4    C     C_R   0.890420 0.749628 0.780144 0.900339
C5    C     C_R   0.890214 0.250358 0.779981 0.904814
C6    C     C_R   0.390416 0.249630 0.780147 0.898198
C7    C     C_R   0.389507 0.750122 0.779532 0.909569
C8    C     C_R   0.610412 0.750364 0.220202 0.951613
C9    C     C_R   0.610297 0.249571 0.219855 0.971511
C10   C     C_R   0.110239 0.250204 0.219944 0.998591
C11   C     C_R   0.110305 0.749567 0.219853 0.972325
C12   C     C_R   0.554786 0.717590 0.050431 -0.175951
C13   C     C_R   0.948934 0.253383 0.891585 -0.355699
C14   C     C_R   0.558257 0.283040 0.053099 -0.216505
C15   C     C_R   0.055162 0.214724 0.052479 -0.119365
C16   C     C_R   0.058151 0.783149 0.053088 -0.219270
C17   C     C_R   0.554791 0.751772 0.108754 -0.284358
C18   C     C_R   0.557852 0.246145 0.108242 -0.321006
C19   C     C_R   0.057272 0.253024 0.108180 -0.327843
C20   C     C_R   0.057875 0.746156 0.108234 -0.317549
C21   C     C_R   0.497119 0.787806 0.054339 0.613788
C22   C     C_R   0.508250 0.204549 0.053731 0.610776
C23   C     C_R   0.009506 0.295306 0.054222 0.612484
C24   C     C_R   0.949565 0.746150 0.891665 -0.329138
C25   C     C_R   0.008424 0.704481 0.053724 0.614316
C26   C     C_R   0.501461 0.716989 0.946552 -0.229456
C27   C     C_R   0.504982 0.283074 0.946754 -0.121592
C28   C     C_R   0.001674 0.214905 0.945980 -0.118105
C29   C     C_R   0.004870 0.783179 0.946739 -0.124688
C30   C     C_3   0.531738 0.672919 0.935208 0.480381
C31   C     C_3   0.500557 0.340725 0.940883 0.423210
C32   C     C_3   0.991890 0.157607 0.938619 0.419973
C33   C     C_R   0.889981 0.250484 0.500146 0.880634
C34   C     C_3   0.000215 0.840820 0.940844 0.426804
C35   C     C_3   0.593377 0.673904 0.053340 1.158591
C36   C     C_3   0.559247 0.340762 0.057938 1.163582
C37   C     C_3   0.050525 0.157174 0.055496 1.134425
C38   C     C_3   0.058907 0.840867 0.057896 1.166935
C39   C     C_R   0.494928 0.782327 0.436636 -0.172147
C40   C     C_R   0.485337 0.230109 0.417420 -0.093126
C41   C     C_R   0.995027 0.282400 0.436719 -0.173081
C42   C     C_R   0.986725 0.728324 0.420168 -0.091285
C43   C     C_R   0.549720 0.744785 0.490774 -0.155059
C44   C     C_R   0.389338 0.250393 0.498689 0.902794
C45   C     C_R   0.556649 0.246147 0.505009 -0.126335
C46   C     C_R   0.049635 0.244736 0.490541 -0.154099
C47   C     C_R   0.057371 0.745834 0.506135 -0.127732
C48   C     C_R   0.546416 0.705314 0.542190 0.401697
C49   C     C_R   0.574194 0.256692 0.596863 0.408745
C50   C     C_R   0.046073 0.205109 0.541446 0.401450
C51   C     C_R   0.074275 0.758545 0.596927 0.401660
C52   C     C_R   0.494489 0.708952 0.545831 -0.220331
C53   C     C_R   0.518192 0.258635 0.592609 -0.217141
C54   C     C_R   0.994160 0.208736 0.545126 -0.228628
C55   C     C_R   0.389982 0.750489 0.500171 0.887029
C56   C     C_R   0.018049 0.760399 0.592349 -0.217916
C57   C     C_R   0.443876 0.749361 0.496901 -0.068129
C58   C     C_R   0.445946 0.248060 0.500719 -0.074875
C59   C     C_R   0.943812 0.249309 0.496715 -0.067181
C60   C     C_R   0.946318 0.747457 0.501597 -0.075793
C61   C     C_R   0.608503 0.748206 0.496807 0.885337
C62   C     C_R   0.610423 0.249379 0.500907 0.924244
C63   C     C_R   0.108490 0.248191 0.496759 0.887828
C64   C     C_R   0.110645 0.749241 0.501257 0.914824
C65   C     C_R   0.445319 0.785046 0.441462 -0.084497
C66   C     C_R   0.442463 0.787616 0.946257 0.564373
C67   C     C_R   0.432007 0.231167 0.415797 -0.065887
C68   C     C_R   0.945431 0.285113 0.441578 -0.082493
C69   C     C_R   0.933512 0.729299 0.418284 -0.064718
C70   C     C_3   0.412011 0.834562 0.381766 0.461832
C71   C     C_3   0.370329 0.233405 0.300370 0.455077
C72   C     C_3   0.912641 0.334898 0.382769 0.461481
C73   C     C_3   0.872385 0.721297 0.303957 0.466221
C74   C     C_3   0.462798 0.827480 0.363313 0.441293
C75   C     C_3   0.432086 0.235708 0.301590 0.402654
C76   C     C_3   0.963316 0.327849 0.364114 0.441736
C77   C     C_R   0.454373 0.204556 0.946017 0.588490
C78   C     C_3   0.933660 0.725198 0.304120 0.394830
C79   C     C_R   0.715185 0.526662 0.409940 -0.238745
C80   C     C_R   0.714670 0.473322 0.409557 -0.260896
C81   C     C_R   0.214323 0.026750 0.409558 -0.242844
C82   C     C_R   0.213957 0.973431 0.409197 -0.261884
C83   C     C_R   0.746402 0.554215 0.498631 -0.265599
C84   C     C_R   0.746089 0.445820 0.498309 -0.272709
C85   C     C_R   0.246545 0.054268 0.498715 -0.266296
C86   C     C_R   0.246415 0.945859 0.498416 -0.268222
C87   C     C_R   0.769007 0.526973 0.583810 0.564059
C88   C     C_R   0.955772 0.295545 0.946543 0.586987
C89   C     C_R   0.768979 0.473106 0.583732 0.596282
C90   C     C_R   0.270335 0.027003 0.584606 0.564478
C91   C     C_R   0.270383 0.973129 0.584525 0.595006
C92   C     C_3   0.726548 0.470733 0.341215 1.140158
C93   C     C_3   0.727292 0.529381 0.341809 1.040548
C94   C     C_3   0.223696 0.971072 0.338332 1.134138
C95   C     C_3   0.224039 0.029800 0.338705 1.062856
C96   C     C_R   0.803928 0.973954 0.579709 -0.127653
C97   C     C_R   0.803799 0.026786 0.578478 -0.116955
C98   C     C_R   0.302274 0.473891 0.580547 -0.128373
C99   C     C_R   0.954543 0.704483 0.946007 0.589669
C100  C     C_R   0.302254 0.526720 0.579647 -0.128131
C101  C     C_R   0.752208 0.945463 0.490117 -0.152367
C102  C     C_R   0.749230 0.053777 0.488005 -0.133427
C103  C     C_R   0.252316 0.445508 0.490266 -0.151791
C104  C     C_R   0.249733 0.553837 0.488501 -0.127211
C105  C     C_R   0.707911 0.971113 0.393782 0.276213
C106  C     C_R   0.700982 0.026228 0.391763 0.203200
C107  C     C_R   0.210409 0.471296 0.394340 0.267916
C108  C     C_R   0.204275 0.526569 0.392247 0.207081
C109  C     C_R   0.750355 0.889939 0.499052 0.959240
C110  C     C_R   0.444287 0.751304 0.890492 -0.259316
C111  C     C_R   0.749528 0.109898 0.496991 0.914890
C112  C     C_R   0.250354 0.389950 0.498959 0.957961
C113  C     C_R   0.249634 0.609915 0.497213 0.920961
C114  C     C_3   0.829758 0.029989 0.681756 0.475441
C115  C     C_3   0.829672 0.971152 0.682500 0.473284
C116  C     C_3   0.324281 0.529807 0.680172 0.483030
C117  C     C_3   0.324139 0.470970 0.680649 0.476441
C118  C     C_R   0.750201 0.610044 0.500429 0.921539
C119  C     C_R   0.750054 0.389979 0.500238 0.940943
C120  C     C_R   0.250208 0.110064 0.500425 0.930377
F1    F     F_    0.493127 0.823485 0.104389 -0.500261
F2    F     F_    0.669312 0.551035 0.246934 -0.567299
F3    F     F_    0.164601 0.949292 0.243767 -0.526398
F4    F     F_    0.164870 0.051450 0.244521 -0.543982
F5    F     F_    0.792442 0.449337 0.389088 -0.577044
F6    F     F_    0.793861 0.550634 0.389895 -0.618054
F7    F     F_    0.289201 0.949890 0.383898 -0.575923
F8    F     F_    0.289804 0.051416 0.384033 -0.616906
F9    F     F_    0.778129 0.051097 0.675819 -0.568475
F10   F     F_    0.777635 0.950318 0.676303 -0.560154
F11   F     F_    0.270388 0.550839 0.669327 -0.566417
F12   F     F_    0.509781 0.164871 0.103692 -0.496845
F13   F     F_    0.269866 0.450065 0.669472 -0.559037
F14   F     F_    0.388575 0.823055 0.897471 -0.521646
F15   F     F_    0.405739 0.164944 0.895846 -0.516316
F16   F     F_    0.909224 0.336045 0.896898 -0.515883
F17   F     F_    0.906055 0.664784 0.895830 -0.518046
F18   F     F_    0.553915 0.687891 0.888535 -0.547514
F19   F     F_    0.524393 0.360532 0.898919 -0.549561
F20   F     F_    0.013640 0.134750 0.895957 -0.543966
F21   F     F_    0.023969 0.860795 0.898866 -0.546568
F22   F     F_    0.659092 0.688622 0.089667 -0.528937
F23   F     F_    0.012608 0.335459 0.104805 -0.505398
F24   F     F_    0.624513 0.361820 0.100532 -0.507815
F25   F     F_    0.113226 0.132428 0.096779 -0.506785
F26   F     F_    0.124080 0.862102 0.100461 -0.504410
F27   F     F_    0.596494 0.630007 0.099351 -0.623299
F28   F     F_    0.536053 0.359799 0.101103 -0.637226
F29   F     F_    0.025771 0.141297 0.098294 -0.658908
F30   F     F_    0.035641 0.859737 0.101056 -0.636060
F31   F     F_    0.010109 0.664726 0.103694 -0.500456
F32   F     F_    0.796196 0.552029 0.670206 -0.532627
F33   F     F_    0.796329 0.448124 0.670184 -0.522983
F34   F     F_    0.298546 0.052066 0.671543 -0.533157
F35   F     F_    0.298776 0.948109 0.671491 -0.528550
F36   F     F_    0.668294 0.449055 0.245990 -0.530126
H1    H     H_    0.884549 0.047767 0.742012 0.095762
H2    H     H_    0.530975 0.268427 0.661353 0.215199
H3    H     H_    0.992467 0.179140 0.585113 0.226207
H4    H     H_    0.030347 0.771769 0.660116 0.217709
H5    H     H_    0.232086 0.771250 0.182326 0.402170
H6    H     H_    0.325568 0.371649 0.286582 0.406072
H7    H     H_    0.732147 0.272560 0.181892 0.402662
H8    H     H_    0.801068 0.855194 0.243303 0.403463
H9    H     H_    0.561761 0.912552 0.338453 0.389487
H10   H     H_    0.362775 0.214150 0.085818 0.387558
H11   H     H_    0.062240 0.413111 0.339498 0.389674
H12   H     H_    0.884358 0.953649 0.743017 0.086810
H13   H     H_    0.860666 0.688777 0.095071 0.393125
H14   H     H_    0.391535 0.725770 0.241666 0.357056
H15   H     H_    0.487779 0.373029 0.337743 0.402642
H16   H     H_    0.891911 0.226436 0.241307 0.359650
H17   H     H_    0.965096 0.864960 0.302804 0.405405
H18   H     H_    0.658057 0.947666 0.153439 0.405166
H19   H     H_    0.555438 0.052782 0.290380 0.373563
H20   H     H_    0.169521 0.445568 0.161616 0.408229
H21   H     H_    0.055220 0.551495 0.275148 0.377266
H22   H     H_    0.639641 0.595221 0.554041 0.409866
H23   H     H_    0.378744 0.547563 0.742908 0.053577
H24   H     H_    0.769769 0.234616 0.799687 0.392265
H25   H     H_    0.138903 0.095152 0.552097 0.409341
H26   H     H_    0.270430 0.739555 0.803611 0.400101
H27   H     H_    0.426394 0.968596 0.463363 0.421089
H28   H     H_    0.248572 0.146417 0.273418 0.434911
H29   H     H_    0.928887 0.468581 0.467140 0.423600
H30   H     H_    0.745427 0.625916 0.259422 0.443491
H31   H     H_    0.378474 0.453444 0.743505 0.075350
H32   H     H_    0.496783 0.637785 0.901416 0.072736
H33   H     H_    0.447227 0.356039 0.905370 0.070422
H34   H     H_    0.937292 0.145062 0.902844 0.072497
H35   H     H_    0.946826 0.855995 0.905329 0.074401
H36   H     H_    0.492978 0.679475 0.586172 0.227187
O1    O     O_3   0.750030 0.750030 0.500000 -0.585301
O2    O     O_R   0.750020 0.365780 0.439270 -0.564588
O3    O     O_3   0.074139 0.583094 0.270094 -0.385399
O4    O     O_2   0.676546 0.662630 0.697543 -0.176738
O5    O     O_2   0.570312 0.608546 0.616384 -0.232921
O6    O     O_3   0.604534 0.624025 0.515646 -0.547378
O7    O     O_2   0.688011 0.320695 0.723957 -0.175436
O8    O     O_2   0.668388 0.259223 0.803846 -0.216800
O9    O     O_3   0.720367 0.224051 0.734613 -0.556837
O10   O     O_2   0.175875 0.161928 0.696410 -0.178225
O11   O     O_2   0.069251 0.108042 0.614063 -0.229627
O12   O     O_3   0.103946 0.124060 0.514038 -0.541621
O13   O     O_R   0.250020 0.134220 0.439270 -0.614046
O14   O     O_2   0.185826 0.824866 0.718959 -0.165815
O15   O     O_2   0.167777 0.765724 0.803457 -0.214364
O16   O     O_3   0.221593 0.728314 0.738260 -0.552343
O17   O     O_2   0.401301 0.874599 0.507869 -0.250279
O18   O     O_2   0.516480 0.888258 0.562179 -0.229721
O19   O     O_3   0.405162 0.942537 0.408641 -0.374347
O20   O     O_2   0.279868 0.161503 0.146207 -0.110775
O21   O     O_2   0.363995 0.129786 0.324070 -0.219820
O22   O     O_3   0.250905 0.180196 0.250385 -0.422792
O23   O     O_2   0.902620 0.374320 0.509934 -0.249701
O24   O     O_R   0.250020 0.865780 0.439270 -0.565163
O25   O     O_2   0.017791 0.387694 0.564122 -0.231015
O26   O     O_3   0.906982 0.442759 0.411810 -0.374227
O27   O     O_2   0.793889 0.638276 0.174864 -0.124856
O28   O     O_2   0.887866 0.619931 0.360335 -0.210294
O29   O     O_3   0.768734 0.660452 0.282982 -0.405608
O30   O     O_R   0.896170 0.780390 0.560700 -0.635286
O31   O     O_R   0.896170 0.219610 0.560700 -0.647116
O32   O     O_R   0.396170 0.280390 0.560700 -0.630935
O33   O     O_R   0.396170 0.719610 0.560700 -0.640528
O34   O     O_R   0.664610 0.719670 0.560740 -0.585905
O35   O     O_R   0.664610 0.280330 0.560740 -0.584946
O36   O     O_R   0.164610 0.219670 0.560740 -0.586607
O37   O     O_3   0.750030 0.249970 0.500000 -0.589303
O38   O     O_R   0.164610 0.780330 0.560740 -0.585639
O39   O     O_R   0.835440 0.719660 0.439260 -0.564403
O40   O     O_R   0.835440 0.280340 0.439260 -0.578169
O41   O     O_R   0.335440 0.219660 0.439260 -0.594195
O42   O     O_R   0.335440 0.780340 0.439260 -0.578820
O43   O     O_R   0.603880 0.780390 0.439300 -0.575216
O44   O     O_R   0.603880 0.219610 0.439300 -0.592896
O45   O     O_R   0.103880 0.280390 0.439300 -0.575623
O46   O     O_R   0.103880 0.719610 0.439300 -0.591758
O47   O     O_R   0.810750 0.865830 0.560720 -0.634355
O48   O     O_3   0.250030 0.250030 0.500000 -0.582921
O49   O     O_R   0.810750 0.134170 0.560720 -0.642501
O50   O     O_R   0.310750 0.365830 0.560720 -0.635305
O51   O     O_R   0.310750 0.634170 0.560720 -0.654460
O52   O     O_R   0.750030 0.634230 0.560720 -0.582148
O53   O     O_R   0.750030 0.365770 0.560720 -0.581095
O54   O     O_R   0.250030 0.134230 0.560720 -0.580520
O55   O     O_R   0.250030 0.865770 0.560720 -0.582377
O56   O     O_R   0.896190 0.780400 0.731600 -0.618795
O57   O     O_R   0.896190 0.219600 0.731600 -0.604837
O58   O     O_R   0.396190 0.280400 0.731600 -0.619433
O59   O     O_3   0.250030 0.749970 0.500000 -0.588688
O60   O     O_R   0.396190 0.719600 0.731600 -0.614502
O61   O     O_R   0.664570 0.719650 0.268390 -0.573699
O62   O     O_R   0.664570 0.280350 0.268390 -0.614473
O63   O     O_R   0.164570 0.219650 0.268390 -0.584825
O64   O     O_R   0.164570 0.780350 0.268390 -0.615306
O65   O     O_R   0.835480 0.719680 0.731610 -0.560589
O66   O     O_R   0.835480 0.280320 0.731610 -0.564977
O67   O     O_R   0.335480 0.219680 0.731610 -0.561356
O68   O     O_R   0.335480 0.780320 0.731610 -0.567170
O69   O     O_R   0.603860 0.780380 0.268400 -0.543178
O70   O     O_R   0.689310 0.865830 0.439290 -0.576803
O71   O     O_R   0.603860 0.219620 0.268400 -0.526211
O72   O     O_R   0.103860 0.280380 0.268400 -0.542655
O73   O     O_R   0.103860 0.719620 0.268400 -0.524991
O74   O     O_2   0.276611 0.856461 0.296462 -0.108802
O75   O     O_2   0.291663 0.859180 0.180556 -0.124774
O76   O     O_3   0.285711 0.769300 0.238559 -0.542424
O77   O     O_2   0.266951 0.296842 0.141525 -0.192249
O78   O     O_2   0.263008 0.282458 0.268296 -0.267902
O79   O     O_3   0.361746 0.343572 0.319211 -0.488285
O80   O     O_2   0.777475 0.357019 0.298152 -0.109714
O81   O     O_R   0.689310 0.134170 0.439290 -0.566090
O82   O     O_2   0.792461 0.360689 0.182233 -0.126786
O83   O     O_3   0.785750 0.270346 0.238099 -0.540987
O84   O     O_2   0.759742 0.770088 0.125562 -0.158287
O85   O     O_2   0.754552 0.764062 0.252247 -0.243514
O86   O     O_3   0.842286 0.830769 0.286084 -0.494798
O87   O     O_2   0.492238 0.931130 0.384197 -0.201995
O88   O     O_2   0.594560 0.874804 0.517758 -0.234660
O89   O     O_3   0.547858 0.876741 0.337912 -0.414565
O90   O     O_2   0.497701 0.187353 0.251621 -0.159234
O91   O     O_2   0.441851 0.131111 0.284338 -0.165637
O92   O     O_R   0.189310 0.365830 0.439290 -0.573846
O93   O     O_3   0.359151 0.182441 0.112271 -0.407691
O94   O     O_2   0.993624 0.431425 0.386688 -0.197013
O95   O     O_2   0.095544 0.374534 0.519078 -0.232024
O96   O     O_3   0.048494 0.377248 0.339018 -0.419899
O97   O     O_2   0.003210 0.677667 0.259492 -0.149027
O98   O     O_2   0.965205 0.621808 0.319810 -0.179830
O99   O     O_3   0.867888 0.657607 0.132804 -0.400303
O100  O     O_2   0.382389 0.846663 0.161096 -0.087050
O101  O     O_2   0.477287 0.782600 0.243863 -0.228021
O102  O     O_3   0.361496 0.755174 0.194880 -0.455832
O103  O     O_R   0.189310 0.634170 0.439290 -0.561188
O104  O     O_2   0.503345 0.290065 0.267116 -0.305362
O105  O     O_2   0.378887 0.315578 0.166097 -0.202961
O106  O     O_3   0.479607 0.341892 0.359945 -0.512364
O107  O     O_2   0.882486 0.347763 0.161980 -0.098473
O108  O     O_2   0.977325 0.283813 0.243499 -0.232657
O109  O     O_3   0.861805 0.255951 0.194980 -0.452290
O110  O     O_2   0.997657 0.779903 0.257902 -0.294010
O111  O     O_2   0.869211 0.795489 0.148334 -0.206815
O112  O     O_3   0.962745 0.834759 0.333581 -0.510889
O113  O     O_2   0.709025 0.884086 0.311246 -0.332489
O114  O     O_R   0.750020 0.634220 0.439270 -0.596953
O115  O     O_2   0.591815 0.925278 0.215416 -0.176107
O116  O     O_3   0.682843 0.968536 0.216198 -0.466830
O117  O     O_2   0.662074 0.105289 0.265881 -0.262131
O118  O     O_2   0.585577 0.028702 0.177988 -0.120224
O119  O     O_3   0.571941 0.083591 0.279356 -0.390561
O120  O     O_2   0.207159 0.382183 0.311083 -0.319221
O121  O     O_2   0.093737 0.429946 0.210985 -0.157065
O122  O     O_3   0.193785 0.466206 0.224437 -0.473862
O123  O     O_2   0.172617 0.607831 0.274485 -0.277236
O124  O     O_2   0.098147 0.531612 0.177560 -0.123029
S1    S     S_3+6 0.314132 0.831148 0.271030 0.192303
S2    S     S_3+6 0.447593 0.296806 0.269999 0.077027
S3    S     S_3+6 0.920993 0.304206 0.238340 0.165000
S4    S     S_3+6 0.939787 0.784554 0.256954 0.081532
S5    S     S_3+6 0.671254 0.935083 0.282361 0.101535
S6    S     S_3+6 0.629649 0.060522 0.274422 0.170379
S7    S     S_3+6 0.174516 0.435215 0.283382 0.108526
S8    S     S_3+6 0.137122 0.561872 0.274446 0.164582
S9    S     S_3+6 0.601188 0.648825 0.596910 0.113309
S10   S     S_3+6 0.664399 0.266530 0.718691 0.113596
S11   S     S_3+6 0.100508 0.148463 0.595434 0.113944
S12   S     S_3+6 0.312872 0.289754 0.254514 0.121897
S13   S     S_3+6 0.163961 0.770829 0.718135 0.122161
S14   S     S_3+6 0.435802 0.885338 0.469944 0.155967
S15   S     S_3+6 0.316582 0.174191 0.253818 0.191541
S16   S     S_3+6 0.937064 0.385254 0.471981 0.155725
S17   S     S_3+6 0.831263 0.657996 0.279553 0.196541
S18   S     S_3+6 0.814729 0.332029 0.272047 0.192470
S19   S     S_3+6 0.804503 0.771935 0.238888 0.141185
S20   S     S_3+6 0.526121 0.879331 0.404939 0.157334
S21   S     S_3+6 0.434765 0.182338 0.239493 0.183201
S22   S     S_3+6 0.027027 0.379538 0.406411 0.159326
S23   S     S_3+6 0.944955 0.669020 0.256590 0.179647
S24   S     S_3+6 0.420750 0.803331 0.237978 0.168812
Zn1   Zn    Zn3+2 0.663280 0.793400 0.413250 1.163628
Zn2   Zn    Zn3+2 0.750030 0.293350 0.586760 1.143548
Zn3   Zn    Zn3+2 0.250030 0.206650 0.586760 1.124531
Zn4   Zn    Zn3+2 0.250030 0.793350 0.586760 1.142373
Zn5   Zn    Zn3+2 0.750010 0.706640 0.413230 1.127618
Zn6   Zn    Zn3+2 0.750010 0.293360 0.413230 1.140120
Zn7   Zn    Zn3+2 0.250010 0.206640 0.413230 1.111283
Zn8   Zn    Zn3+2 0.250010 0.793360 0.413230 1.140840
Zn9   Zn    Zn3+2 0.663280 0.206600 0.413250 1.170400
Zn10  Zn    Zn3+2 0.163280 0.293400 0.413250 1.172031
Zn11  Zn    Zn3+2 0.163280 0.706600 0.413250 1.173205
Zn12  Zn    Zn3+2 0.836780 0.793410 0.586750 1.072474
Zn13  Zn    Zn3+2 0.836780 0.206590 0.586750 1.056045
Zn14  Zn    Zn3+2 0.336780 0.293410 0.586750 1.073836
Zn15  Zn    Zn3+2 0.336780 0.706590 0.586750 1.048931
Zn16  Zn    Zn3+2 0.750030 0.706650 0.586760 1.122391

loop_
_geom_bond_atom_site_label_1
_geom_bond_atom_site_label_2
_ccdc_geom_bond_type
C95   F4    S    
C50   S11   S    
O31   Zn13  S    
O36   Zn3   S    
O1    Zn1   S    
C30   F18   S    
C108  S8    S    
O89   S20   S    
C83   C87   A    
O29   S17   S    
C114  C115  S    
C73   S19   S    
O51   Zn15  S    
O113  S5    D    
C82   C94   S    
O38   Zn4   S    
C81   C95   S    
H5    O76   S    
C62   O35   A    
C100  C104  A    
O57   Zn13  S    
O115  S5    D    
O48   Zn3   S    
C36   F28   S    
C74   S24   S    
C113  O51   A    
C70   C74   S    
O101  S24   D    
C33   O40   A    
C64   O46   A    
C87   F32   S    
C112  O50   A    
C117  F13   S    
C71   S12   S    
C33   C59   S    
O1    Zn5   S    
C39   C65   A    
C23   F23   S    
C102  C111  S    
O121  S7    D    
O65   Zn16  S    
C109  O47   A    
O108  S3    D    
C85   C90   A    
C11   C20   S    
C6    O58   A    
C27   C31   S    
C10   O63   A    
C28   C32   S    
O72   Zn10  S    
H24   O9    S    
C1    C60   S    
C37   F29   S    
C47   C64   S    
O99   S23   S    
O22   S15   S    
O1    Zn12  S    
C17   C21   A    
O110  S4    D    
C103  C112  S    
O32   Zn14  S    
C80   C92   S    
C19   C23   A    
C114  H1    S    
H11   O96   S    
C1    O39   A    
O114  Zn5   S    
O49   Zn13  S    
O16   S13   S    
O14   S13   D    
C16   C20   A    
C11   O64   A    
O63   Zn7   S    
C66   C110  A    
O118  S6    D    
H30   O29   S    
C87   C89   A    
O23   S16   D    
C43   C61   S    
H21   O3    S    
H10   O93   S    
C63   O45   A    
C53   C58   A    
O17   S14   D    
O120  S7    D    
C8    C17   S    
C107  S7    S    
C36   F24   S    
C74   S20   S    
C41   C76   S    
O19   S14   S    
C49   C53   A    
H26   O16   S    
C58   C67   A    
C48   C52   A    
O124  S8    D    
C31   C36   S    
C75   S21   S    
C103  C107  A    
C109  O70   A    
C34   F21   S    
C21   C66   A    
O83   S18   S    
O43   Zn1   S    
O9    S10   S    
C15   C28   A    
O104  S2    D    
C94   F7    S    
C91   F35   S    
O70   Zn1   S    
C49   S10   S    
C84   C119  S    
C14   C36   S    
C39   C74   S    
C65   C70   S    
C45   C62   S    
O60   Zn15  S    
O37   Zn13  S    
C112  O92   A    
C93   F6    S    
C38   F26   S    
C54   H3    S    
C66   F14   S    
C95   F8    S    
O88   S20   D    
C51   S13   S    
O41   Zn7   S    
C40   C67   A    
C107  C108  A    
O54   Zn3   S    
O34   Zn16  S    
C111  O49   A    
O44   Zn9   S    
C120  O54   A    
O46   Zn11  S    
H15   O106  S    
C118  O52   A    
C54   C59   A    
O71   Zn9   S    
H6    O79   S    
H29   O26   S    
O21   S15   D    
O67   Zn3   S    
O91   S21   D    
O111  S4    D    
O15   S13   D    
O109  S3    S    
C12   C26   A    
O94   S22   D    
O123  S8    D    
O30   Zn12  S    
H28   O22   S    
C48   S9    S    
C72   S16   S    
O85   S19   D    
C32   H34   S    
C32   C37   S    
C12   C35   S    
O117  S6    D    
C26   C30   S    
C23   C88   A    
C61   O43   A    
O98   S23   D    
C55   O42   A    
O7    S10   D    
C18   C22   A    
C5    C13   S    
C105  S5    S    
C70   S14   S    
O77   S12   D    
C61   O34   A    
C7    C110  S    
C46   C63   S    
C25   F31   S    
C55   O33   A    
C119  O53   A    
C44   O41   A    
O5    S9    D    
C60   C69   A    
O100  S24   D    
O27   S17   D    
O66   Zn2   S    
O80   S18   D    
C35   F22   S    
C104  C113  S    
C6    O67   A    
C9    C18   S    
O25   S16   D    
O59   Zn15  S    
H16   O109  S    
C106  S6    S    
H17   O112  S    
C99   F17   S    
C97   C114  S    
C81   C85   A    
O62   Zn6   S    
C115  F10   S    
C113  O103  A    
O42   Zn8   S    
C115  H12   S    
C4    O65   A    
C100  C116  S    
C80   C84   A    
O107  S3    D    
C76   S3    S    
H7    O83   S    
C15   C19   A    
O79   S12   S    
C53   H2    S    
C50   C54   A    
O39   Zn5   S    
C120  O13   A    
C32   F20   S    
O6    S9    S    
C86   C91   A    
H13   O99   S    
C4    C24   S    
C20   C25   A    
C101  C109  S    
C98   C103  A    
O58   Zn14  S    
C8    O61   A    
O92   Zn10  S    
C24   C29   A    
O28   S17   D    
C25   C99   A    
C44   C58   S    
C12   C17   A    
C13   C28   A    
C69   C73   S    
C2    C27   A    
C44   O32   A    
O35   Zn2   S    
C14   C27   A    
C90   F34   S    
O73   Zn11  S    
C97   C102  A    
O69   Zn1   S    
C94   F3    S    
O2    Zn6   S    
C96   C101  A    
C92   F5    S    
C3    C86   S    
C71   S15   S    
C7    O68   A    
C3    O55   A    
C41   C68   A    
C40   C45   A    
H9    O89   S    
O10   S11   D    
C88   F16   S    
C5    O57   A    
C47   C51   A    
C3    O24   A    
C82   C86   A    
C29   C34   S    
O24   Zn8   S    
C1    O30   A    
C30   H32   S    
H18   O116  S    
O50   Zn14  S    
C45   C49   A    
C10   C19   S    
O82   S18   D    
C93   F2    S    
O97   S23   D    
O40   Zn6   S    
C33   O31   A    
O33   Zn15  S    
O90   S21   D    
C98   C100  A    
C114  F9    S    
O74   S1    D    
O3    S8    S    
C104  C108  A    
C75   S2    S    
C46   C50   A    
O102  S24   S    
O78   S12   D    
C22   C77   A    
C57   C65   A    
O12   S11   S    
C63   O36   A    
O68   Zn4   S    
O11   S11   D    
O96   S22   S    
C105  C106  A    
C31   H33   S    
C40   C75   S    
C2    C77   A    
C79   C83   A    
C90   C91   A    
C92   C93   S    
C67   C71   S    
C94   C95   S    
C52   C57   A    
O8    S10   D    
C56   C60   A    
O122  S7    S    
O56   Zn12  S    
C116  H23   S    
C76   S22   S    
O4    S9    D    
O116  S5    S    
O1    Zn16  S    
C64   O38   A    
H20   O122  S    
C24   C99   A    
C14   C18   A    
C9    O62   A    
C72   C76   S    
C81   C82   A    
O95   S22   D    
C30   C35   S    
C83   C118  S    
C34   H35   S    
C62   O44   A    
O86   S19   S    
C79   C93   S    
O112  S4    S    
H27   O19   S    
C9    O71   A    
C78   S4    S    
C116  C117  S    
C51   C56   A    
C52   H36   S    
C4    O56   A    
O37   Zn6   S    
C15   C37   S    
C41   C46   A    
C96   C115  S    
O87   S20   D    
C43   C48   A    
O106  S2    S    
C68   C72   S    
H22   O6    S    
H8    O86   S    
C2    C6    S    
O105  S2    D    
O47   Zn12  S    
C101  C105  A    
O48   Zn14  S    
C117  H31   S    
C73   S17   S    
C39   C43   A    
C16   C29   A    
C42   C69   A    
C85   C120  S    
O59   Zn8   S    
O93   S21   S    
C59   C68   A    
C89   F33   S    
O37   Zn2   S    
C73   C78   S    
O103  Zn11  S    
C96   C97   A    
C11   O73   A    
C92   F36   S    
C35   F27   S    
O52   Zn16  S    
O20   S15   D    
C42   C78   S    
H25   O12   S    
O81   Zn9   S    
C84   C89   A    
C31   F19   S    
O119  S6    S    
C98   C117  S    
O37   Zn9   S    
C26   C110  A    
C72   S18   S    
O84   S19   D    
C22   F12   S    
C34   C38   S    
O48   Zn10  S    
C78   S23   S    
C70   S1    S    
O75   S1    D    
O64   Zn8   S    
C7    O60   A    
C119  O2    A    
C55   C57   S    
C8    O69   A    
O55   Zn4   S    
C56   H4    S    
O59   Zn4   S    
C71   C75   S    
O76   S1    S    
C116  F11   S    
C118  O114  A    
C13   C88   A    
C5    O66   A    
O48   Zn7   S    
C10   O72   A    
C102  C106  A    
O26   S16   S    
C42   C47   A    
C111  O81   A    
C21   F1    S    
O53   Zn2   S    
C79   C80   A    
H19   O119  S    
O18   S14   D    
O13   Zn7   S    
C77   F15   S    
C37   F25   S    
O59   Zn11  S    
C38   F30   S    
O45   Zn10  S    
H14   O102  S    
C16   C38   S    
O61   Zn5   S    
