data_mof_unit_48829.cif
_audit_creation_date              2013-03-05T15:56:47-0500
_audit_creation_method            fapswitch 2.2
_symmetry_space_group_name_H-M    P1
_symmetry_Int_Tables_number       1
_space_group_crystal_system       triclinic
_cell_length_a                    6.904095
_cell_length_b                    14.50724
_cell_length_c                    16.253836
_cell_angle_alpha                 90.042545
_cell_angle_beta                  89.031462
_cell_angle_gamma                 90.440294
_cell_volume                      1627.6929036

loop_
_atom_site_label
_atom_site_type_symbol
_atom_site_description
_atom_site_fract_x
_atom_site_fract_y
_atom_site_fract_z
_atom_type_partial_charge
O1    O     O_R   0.638180 0.333920 0.163320 -0.558974
O2    O     O_R   0.361820 0.666080 0.836680 -0.559042
O3    O     O_R   0.308470 0.344960 0.336080 -0.564021
O4    O     O_R   0.691530 0.655040 0.663920 -0.563697
O5    O     O_R   0.138140 0.166110 0.336680 -0.604256
O6    O     O_R   0.861860 0.833890 0.663320 -0.604317
C1    C     C_R   0.477680 0.366537 0.365542 1.036003
C2    C     C_R   0.522317 0.633421 0.634487 1.036325
O7    O     O_R   0.308460 0.344950 0.163930 -0.561835
O8    O     O_R   0.691540 0.655050 0.836070 -0.561725
O9    O     O_R   0.138140 0.166100 0.163310 -0.603807
O10   O     O_R   0.861860 0.833900 0.836690 -0.603834
C3    C     C_R   0.478006 0.368642 0.136157 1.155602
C4    C     C_R   0.521989 0.631357 0.863844 1.155659
O11   O     O_R   0.638180 0.333930 0.336700 -0.576972
O12   O     O_R   0.361820 0.666070 0.663300 -0.577092
O13   O     O_3   0.471670 0.191340 0.250000 -0.278619
O14   O     O_3   0.528330 0.808660 0.750000 -0.278633
V1    V     V_3+5 0.196830 0.260900 0.250000 1.357637
V2    V     V_3+5 0.803170 0.739100 0.750000 1.357756
O15   O     O_R   0.808420 0.155070 0.163920 -0.541163
O16   O     O_R   0.191580 0.844930 0.836080 -0.541168
C5    C     C_R   0.977797 0.133630 0.134326 1.181935
C6    C     C_R   0.022202 0.866370 0.865674 1.181897
O17   O     O_R   0.808420 0.155080 0.336070 -0.557238
O18   O     O_R   0.191580 0.844920 0.663930 -0.557175
C7    C     C_R   0.971920 0.133251 0.366186 1.089611
C8    C     C_R   0.028079 0.866738 0.633806 1.089482
V3    V     V_3+5 0.696830 0.239130 0.250000 1.362681
V4    V     V_3+5 0.303170 0.760870 0.750000 1.362676
O19   O     O_3   0.971850 0.308690 0.250010 -0.228522
O20   O     O_3   0.028150 0.691310 0.749990 -0.228449
C9    C     C_R   0.657673 0.107474 0.504509 0.281063
C10   C     C_R   0.342263 0.892464 0.495458 0.281067
C11   C     C_R   0.569311 0.129905 0.581245 0.210055
C12   C     C_R   0.430589 0.870020 0.418718 0.210060
C13   C     C_R   0.655881 0.103139 0.654307 0.371187
C14   C     C_R   0.344027 0.896804 0.345660 0.371203
C15   C     C_R   0.810490 0.039910 0.651555 0.331851
C16   C     C_R   0.189466 0.960059 0.348419 0.331799
C17   C     C_R   0.893314 0.013166 0.574444 -0.051230
C18   C     C_R   0.106657 0.986804 0.425533 -0.051184
C19   C     C_R   0.839101 0.060710 0.501917 -0.011801
C20   C     C_R   0.160861 0.939250 0.498058 -0.011843
C21   C     C_R   0.034383 0.942673 0.569629 -0.044182
C22   C     C_R   0.965602 0.057303 0.430353 -0.044101
C23   C     C_R   0.141912 0.009689 0.936685 0.481271
C24   C     C_R   0.858088 0.990311 0.063315 0.481273
C25   C     C_R   0.131570 0.074912 0.001909 0.155659
C26   C     C_R   0.868430 0.925088 0.998091 0.155671
C27   C     C_R   0.988587 0.065724 0.064981 -0.449313
C28   C     C_R   0.011413 0.934276 0.935018 -0.449300
C29   C     C_R   0.355391 0.507793 0.440333 0.302406
C30   C     C_R   0.644612 0.492065 0.559767 0.302341
C31   C     C_R   0.362067 0.571010 0.506337 0.287117
C32   C     C_R   0.637884 0.428838 0.493761 0.287068
C33   C     C_R   0.508646 0.564257 0.566318 -0.492041
C34   C     C_R   0.491340 0.435621 0.433770 -0.492005
C35   C     C_R   0.347567 0.507096 0.058438 0.136766
C36   C     C_R   0.652381 0.492886 0.941553 0.136656
C37   C     C_R   0.359631 0.569561 0.991541 0.497456
C38   C     C_R   0.640328 0.430426 0.008453 0.497478
C39   C     C_R   0.512237 0.563463 0.933157 -0.423151
C40   C     C_R   0.487740 0.436532 0.066842 -0.423099
O21   O     O_3   0.419456 0.863239 0.272419 -0.648720
H1    H     H_    0.313560 0.857906 0.232304 0.358603
O22   O     O_3   0.580421 0.136698 0.727546 -0.648769
H2    H     H_    0.686314 0.142058 0.767660 0.358587
O23   O     O_3   0.226295 0.639569 0.983173 -0.666503
H3    H     H_    0.102771 0.621895 0.010826 0.376612
O24   O     O_3   0.773636 0.360403 0.016808 -0.666498
H4    H     H_    0.897131 0.378045 0.989116 0.376629
O25   O     O_3   0.555942 0.119101 0.433201 -0.713022
H5    H     H_    0.471173 0.173462 0.438837 0.336402
O26   O     O_3   0.444010 0.880827 0.566760 -0.713067
H6    H     H_    0.528847 0.826497 0.561110 0.336400
N1    N     N_R   0.396112 0.184200 0.585540 0.266500
O27   O     O_R   0.390590 0.258863 0.629916 -0.246409
O28   O     O_R   0.238237 0.154868 0.551527 -0.414114
N2    N     N_R   0.603778 0.815720 0.414416 0.266490
O29   O     O_R   0.609253 0.741040 0.370065 -0.246214
O30   O     O_R   0.761699 0.845081 0.448366 -0.414083
O31   O     O_3   0.891952 0.009058 0.723417 -0.748188
H7    H     H_    0.788610 0.003254 0.766163 0.328437
O32   O     O_3   0.108033 0.990938 0.276561 -0.748228
H8    H     H_    0.211382 0.996731 0.233817 0.328441
O33   O     O_3   0.272339 0.019617 0.871568 -0.676248
H9    H     H_    0.331865 0.081781 0.872128 0.378423
O34   O     O_3   0.727662 0.980383 0.128432 -0.676256
H10   H     H_    0.668136 0.918219 0.127872 0.378428
N3    N     N_R   0.264838 0.151304 0.003236 0.240239
O35   O     O_R   0.449711 0.136979 0.010028 -0.361998
O36   O     O_R   0.201535 0.235279 0.997721 -0.378044
N4    N     N_R   0.735162 0.848696 0.996764 0.240239
O37   O     O_R   0.798466 0.764721 0.002280 -0.378034
O38   O     O_R   0.550289 0.863021 0.989972 -0.362004
N5    N     N_R   0.217919 0.521408 0.376340 0.284361
O39   O     O_R   0.279634 0.530308 0.300827 -0.314766
O40   O     O_R   0.035682 0.535057 0.393694 -0.266853
N6    N     N_R   0.782386 0.478528 0.623671 0.284636
O41   O     O_R   0.964462 0.464631 0.606194 -0.266772
O42   O     O_R   0.721326 0.470485 0.699316 -0.315270
N7    N     N_R   0.225548 0.645345 0.508535 0.239486
O43   O     O_R   0.214866 0.700139 0.445603 -0.364453
O44   O     O_R   0.079824 0.642095 0.560193 -0.336396
N8    N     N_R   0.774349 0.354481 0.491551 0.239459
O45   O     O_R   0.920043 0.357705 0.439875 -0.336385
O46   O     O_R   0.785073 0.299714 0.554501 -0.364601
N9    N     N_R   0.201007 0.521317 0.120669 0.253938
O47   O     O_R   0.191174 0.601296 0.156780 -0.267738
O48   O     O_R   0.048515 0.468151 0.122431 -0.350969
N10   N     N_R   0.798855 0.478625 0.879297 0.254051
O49   O     O_R   0.808501 0.398653 0.843165 -0.267842
O50   O     O_R   0.951426 0.531739 0.877510 -0.350837

loop_
_geom_bond_atom_site_label_1
_geom_bond_atom_site_label_2
_geom_bond_distance
_ccdc_geom_bond_type
C6    C28   1.497681 S    
V4    O20   2.143407 S    
O33   H9    0.988283 S    
O13   V3    1.697249 S    
O25   H5    0.988943 S    
O4    C2    1.305796 A    
V1    O19   1.705842 S    
N10   O50   1.300259 A    
N5    O39   1.298613 A    
C23   C25   1.421714 A    
N1    O27   1.301338 A    
O9    V1    2.012179 S    
C35   C40   1.422353 A    
C36   C39   1.422334 A    
C11   C13   1.395163 A    
O3    C1    1.305814 A    
N9    O48   1.300256 A    
N2    O29   1.301301 A    
N8    O45   1.300094 A    
O12   V4    2.006896 S    
C31   N7    1.437713 S    
C36   C38   1.416903 A    
C18   C22   1.418857 A    
C37   C39   1.409227 A    
O7    C3    1.291635 A    
C38   C40   1.409207 A    
O13   V1    2.156003 S    
O5    C7    1.321951 A    
O7    V1    1.997377 S    
C24   C27   1.412459 A    
O6    C8    1.321931 A    
O8    V2    1.997375 S    
C25   C27   1.416763 A    
C26   C28   1.416763 A    
O3    V1    2.014512 S    
O14   V4    1.697249 S    
C1    C34   1.497861 S    
C10   C12   1.417898 A    
C10   O26   1.376490 S    
C29   C31   1.411982 A    
C2    O12   1.289075 A    
C17   C19   1.423237 A    
C30   N6    1.434845 S    
O23   H3    0.989409 S    
C18   C20   1.423256 A    
C25   N3    1.435345 S    
N6    O42   1.298084 A    
N10   O49   1.301612 A    
N5    O40   1.301361 A    
O11   V3    2.006895 S    
N1    O28   1.299103 A    
O17   V3    2.022586 S    
C30   C32   1.412121 A    
C8    C21   1.517559 S    
C35   C37   1.416926 A    
O22   H2    0.990359 S    
C9    C19   1.429074 A    
C10   C20   1.429075 A    
N2    O30   1.299061 A    
C12   N2    1.437610 S    
N3    O35   1.301310 A    
C26   N4    1.435343 S    
C1    O11   1.289032 A    
C29   N5    1.434667 S    
O32   H8    0.990596 S    
O15   V3    2.003427 S    
C11   N1    1.437621 S    
C35   N9    1.434523 S    
C23   O33   1.384856 S    
C16   O32   1.381231 S    
O26   H6    0.988888 S    
C36   N10   1.434481 S    
C2    C33   1.497921 S    
N3    O36   1.301088 A    
C5    C27   1.497682 S    
O31   H7    0.990595 S    
C14   O21   1.381155 S    
O10   V2    2.012181 S    
O1    V3    2.017586 S    
N7    O44   1.300089 A    
N4    O38   1.301309 A    
C24   C26   1.421716 A    
C32   N8    1.437710 S    
C7    C22   1.517581 S    
C9    O25   1.376488 S    
O18   V4    2.022586 S    
C24   O34   1.384855 S    
C31   C33   1.420995 A    
O8    C4    1.291667 A    
O16   C6    1.296905 A    
O1    C3    1.302681 A    
C12   C14   1.395154 A    
C20   C21   1.443771 A    
V2    O20   1.705841 S    
C37   O23   1.384283 S    
O16   V4    2.003427 S    
C16   C18   1.423677 A    
C29   C34   1.414269 A    
C23   C28   1.412460 A    
O5    V1    2.003787 S    
O17   C7    1.280051 A    
O6    V2    2.003789 S    
O10   C6    1.295609 A    
O18   C8    1.280064 A    
O2    V4    2.017583 S    
O15   C5    1.296906 A    
C15   O31   1.381233 S    
O24   H4    0.989401 S    
V3    O19   2.143409 S    
N9    O47   1.301599 A    
C14   C16   1.412869 A    
C3    C40   1.497296 S    
N8    O46   1.299345 A    
C4    C39   1.497323 S    
C13   O22   1.381157 S    
O9    C5    1.295611 A    
N6    O41   1.301268 A    
C9    C11   1.417911 A    
C32   C34   1.420956 A    
C38   O24   1.384291 S    
O14   V2    2.156003 S    
N4    O37   1.301089 A    
O2    C4    1.302665 A    
C19   C22   1.443767 A    
O4    V2    2.014513 S    
C15   C17   1.423679 A    
C13   C15   1.412865 A    
O21   H1    0.990358 S    
N7    O43   1.299341 A    
C17   C21   1.418857 A    
O34   H10   0.988282 S    
C30   C33   1.414561 A    
