data_mof_unit_52019.cif
_audit_creation_date              2012-12-11T15:42:45-0500
_audit_creation_method            fapswitch 2.2
_symmetry_space_group_name_H-M    P1
_symmetry_Int_Tables_number       1
_space_group_crystal_system       triclinic
_cell_length_a                    6.927783
_cell_length_b                    14.559633
_cell_length_c                    16.199681
_cell_angle_alpha                 90.374775
_cell_angle_beta                  89.802974
_cell_angle_gamma                 89.919517
_cell_volume                      1633.95038662

loop_
_atom_site_label
_atom_site_type_symbol
_atom_type_description
_atom_site_fract_x
_atom_site_fract_y
_atom_site_fract_z
_atom_type_partial_charge
O1    O     O_R   0.505810 0.583360 0.413880 -0.545332
O2    O     O_R   0.175870 0.595480 0.585520 -0.545739
O3    O     O_R   0.005540 0.416640 0.586120 -0.542734
C1    C     C_R   0.344635 0.617414 0.614766 0.705840
O4    O     O_R   0.176100 0.594390 0.414490 -0.544849
O5    O     O_R   0.005770 0.415540 0.413870 -0.510242
C2    C     C_R   0.345274 0.616542 0.385779 0.688840
O6    O     O_R   0.505580 0.584460 0.586130 -0.543290
O7    O     O_3   0.339190 0.441320 0.500000 -0.356654
V1    V     V_3+5 0.064350 0.510890 0.500000 1.429168
O8    O     O_R   0.676050 0.404520 0.414480 -0.543279
C3    C     C_R   0.845605 0.383285 0.384712 0.708233
O9    O     O_R   0.675830 0.405610 0.585510 -0.542025
C4    C     C_R   0.844972 0.383741 0.613793 0.740722
V2    V     V_3+5 0.564340 0.489110 0.500000 1.422539
O10   O     O_3   0.839370 0.558680 0.500000 -0.378724
C5    C     C_2   0.720398 0.209277 0.786444 -0.127946
C6    C     C_2   0.885843 0.181951 0.822653 -0.313518
C7    C     C_2   0.707871 0.277762 0.718531 -0.136201
C8    C     C_2   0.861469 0.315617 0.680651 -0.306389
H1    H     H_    0.563669 0.296928 0.698887 0.134308
H2    H     H_    0.006814 0.297172 0.698461 0.129461
C9    C     C_R   0.040772 0.236575 0.206242 -0.237262
H3    H     H_    0.175821 0.227202 0.173292 0.139558
C10   C     C_R   0.031145 0.303638 0.268787 0.427501
C11   C     C_R   0.858388 0.315952 0.314989 -0.152197
C12   C     C_R   0.695956 0.263323 0.293110 -0.211620
H4    H     H_    0.560894 0.271426 0.326217 0.186470
C13   C     C_R   0.705361 0.198960 0.228629 -0.156422
H5    H     H_    0.577142 0.159779 0.213827 0.137730
C14   C     C_R   0.878527 0.184199 0.184934 -0.107532
C15   C     C_R   0.192496 0.732388 0.712700 -0.156661
C16   C     C_R   0.205490 0.794569 0.778859 -0.199667
H6    H     H_    0.077134 0.832200 0.796881 0.189129
C17   C     C_R   0.381307 0.809063 0.820514 -0.172263
C18   C     C_R   0.545061 0.757749 0.794499 0.451053
C19   C     C_R   0.532093 0.698352 0.726086 -0.212807
H7    H     H_    0.661015 0.662260 0.706093 0.139715
C20   C     C_R   0.356044 0.683986 0.684975 -0.121381
C21   C     C_R   0.188246 0.722408 0.283309 -0.164251
H8    H     H_    0.047340 0.704020 0.307068 0.113619
C22   C     C_R   0.199412 0.785436 0.218485 -0.152521
H9    H     H_    0.066560 0.813851 0.194532 0.117130
C23   C     C_R   0.379202 0.811648 0.185348 -0.044819
C24   C     C_R   0.547434 0.772528 0.218575 -0.162062
H10   H     H_    0.688322 0.790712 0.194664 0.113672
C25   C     C_R   0.536256 0.709524 0.283425 -0.155570
C26   C     C_R   0.356543 0.683867 0.316974 -0.045922
O11   O     O_R   0.230120 0.912300 0.917180 -0.541249
O12   O     O_R   0.559740 0.902430 0.088770 -0.548882
O13   O     O_R   0.729930 0.081310 0.089370 -0.542174
C27   C     C_R   0.390549 0.879993 0.117325 0.673126
O14   O     O_R   0.559840 0.901330 0.917750 -0.520237
O15   O     O_R   0.730030 0.080210 0.917120 -0.535914
C28   C     C_R   0.391260 0.878238 0.889210 0.709943
O16   O     O_R   0.230020 0.913400 0.089430 -0.541949
O17   O     O_3   0.396460 0.055470 0.003290 -0.371384
V3    V     V_3+5 0.671360 0.985960 0.003250 1.416858
O18   O     O_R   0.059740 0.091300 0.917690 -0.545468
C29   C     C_R   0.891087 0.113292 0.889493 0.751275
O19   O     O_R   0.059640 0.092400 0.088720 -0.544684
C30   C     C_R   0.890204 0.114775 0.117381 0.707471
V4    V     V_3+5 0.171350 0.007820 0.003190 1.400660
O20   O     O_3   0.896380 0.938200 0.003220 -0.372451
H11   H     H_    0.584305 0.180712 0.807564 0.136864
O21   O     O_3   0.722391 0.768347 0.832315 -0.565516
C31   C     C_3   0.734625 0.709570 0.901447 0.127700
H12   H     H_    0.592665 0.695843 0.931814 0.080112
H13   H     H_    0.825552 0.744205 0.948592 0.150061
C32   C     C_3   0.832408 0.619146 0.877911 -0.792736
H14   H     H_    0.973150 0.632582 0.847357 0.237352
H15   H     H_    0.858037 0.577985 0.934294 0.186364
H16   H     H_    0.739234 0.578797 0.835571 0.212648
H17   H     H_    0.669048 0.680907 0.307246 0.115520
H18   H     H_    0.023640 0.209849 0.803694 0.126977
O22   O     O_3   0.194852 0.354605 0.285362 -0.551168
C33   C     C_3   0.203989 0.429434 0.230166 0.098195
H19   H     H_    0.122601 0.488545 0.256763 0.118930
H20   H     H_    0.144173 0.413566 0.167733 0.095962
C34   C     C_3   0.413732 0.457336 0.218230 -0.727416
H21   H     H_    0.421657 0.520456 0.180253 0.176175
H22   H     H_    0.482422 0.470962 0.278761 0.230586
H23   H     H_    0.494097 0.401387 0.186247 0.216657
H24   H     H_    0.054359 0.723082 0.682707 0.146984

loop_
_geom_bond_atom_site_label_1
_geom_bond_atom_site_label_2
_ccdc_geom_bond_type
C6    H18   S    
O11   V4    S    
C12   C13   A    
C7    C8    D    
C1    O6    A    
O15   C29   A    
C33   H19   S    
C11   C12   A    
C19   H7    S    
C18   C19   A    
C7    H1    S    
O5    C3    A    
C18   O21   S    
C15   C20   A    
V2    O10   S    
C24   C25   A    
O19   V4    S    
C5    C7    S    
O8    V2    S    
C17   C18   A    
O12   C27   A    
C9    H3    S    
C32   H14   S    
O1    V2    S    
O7    V1    S    
C23   C27   S    
C21   C22   A    
O21   C31   S    
O18   C29   A    
O9    C4    A    
C14   C30   S    
O13   C30   A    
C22   C23   A    
C34   H23   S    
O17   V4    S    
O14   C28   A    
V3    O20   S    
C15   H24   S    
O16   V4    S    
C17   C28   S    
C31   H12   S    
O12   V3    S    
C4    C8    S    
O22   C33   S    
C34   H22   S    
O4    C2    A    
C10   C11   A    
O11   C28   A    
C3    C11   S    
C31   H13   S    
C9    C14   A    
O2    C1    A    
C13   H5    S    
C25   C26   A    
C1    C20   S    
O8    C3    A    
C32   H16   S    
C5    C6    D    
C33   H20   S    
O13   V3    S    
O3    C4    A    
C6    C29   S    
C21   H8    S    
C8    H2    S    
O6    V2    S    
O9    V2    S    
C22   H9    S    
O2    V1    S    
C23   C24   A    
O15   V3    S    
C33   C34   S    
C21   C26   A    
O1    C2    A    
O18   V4    S    
C25   H17   S    
C34   H21   S    
O5    V1    S    
O14   V3    S    
C5    H11   S    
C10   O22   S    
C2    C26   S    
C31   C32   S    
O7    V2    S    
O4    V1    S    
C19   C20   A    
O3    V1    S    
V1    O10   S    
C15   C16   A    
O17   V3    S    
C16   C17   A    
C16   H6    S    
C9    C10   A    
O19   C30   A    
V4    O20   S    
C24   H10   S    
C13   C14   A    
C12   H4    S    
C32   H15   S    
C27   O16   A    
