data_mof_unit_22038.cif
_audit_creation_date              2012-12-10T17:08:37-0500
_audit_creation_method            fapswitch 2.2
_symmetry_space_group_name_H-M    P1
_symmetry_Int_Tables_number       1
_space_group_crystal_system       triclinic
_cell_length_a                    15.728522
_cell_length_b                    10.476976
_cell_length_c                    10.103438
_cell_angle_alpha                 92.004516
_cell_angle_beta                  91.057063
_cell_angle_gamma                 90.776794
_cell_volume                      1663.4487184

loop_
_atom_site_label
_atom_site_type_symbol
_atom_type_description
_atom_site_fract_x
_atom_site_fract_y
_atom_site_fract_z
_atom_type_partial_charge
C1    C     C_R   0.501278 0.261239 0.497373 0.805542
C2    C     C_2   0.445667 0.861081 0.512547 0.159612
C3    C     C_2   0.433886 0.068753 0.417987 -0.259467
C4    C     C_R   0.338501 0.499691 0.498908 0.857589
C5    C     C_2   0.497871 0.125330 0.488113 0.518716
C6    C     C_2   0.504892 0.599696 0.931651 0.078271
C7    C     C_2   0.534103 0.586489 0.072122 0.497122
C8    C     C_R   0.483669 0.734742 0.502063 0.860328
C9    C     C_R   0.661425 0.500444 0.501002 0.883912
C10   C     C_3   0.052928 0.443526 0.629834 -0.480328
C11   C     C_3   0.046112 0.374677 0.381892 0.492964
C12   C     C_3   0.954920 0.429441 0.630435 0.144856
C13   C     C_3   0.944552 0.391851 0.375902 0.641050
C14   C     C_1   0.750109 0.495533 0.502707 0.037385
C15   C     C_3   0.082642 0.477893 0.489517 -0.218869
C16   C     C_3   0.916670 0.481490 0.497807 -0.376978
C17   C     C_3   0.952283 0.619189 0.477267 1.207991
C18   C     C_3   0.049568 0.614791 0.466074 -0.497291
C19   C     C_1   0.825256 0.489020 0.501881 0.260502
C20   C     C_1   0.174354 0.486463 0.492303 0.191291
C21   C     C_1   0.249647 0.493916 0.495727 0.007166
C22   C     C_2   0.426859 0.930269 0.405810 0.352857
F1    F     F_    0.917812 0.671070 0.364018 -0.566716
F2    F     F_    0.561953 0.058980 0.544744 -0.592162
F3    F     F_    0.554247 0.408932 0.887304 -0.469983
F4    F     F_    0.923770 0.455978 0.262107 -0.530294
F5    F     F_    0.931071 0.700619 0.581951 -0.555218
H1    H     H_    0.939184 0.326598 0.632762 0.209883
H2    H     H_    0.350904 0.827710 0.836912 0.391532
H3    H     H_    0.756723 0.595997 0.175035 0.428048
H4    H     H_    0.331651 0.262160 0.168233 0.405429
H5    H     H_    0.080885 0.297367 0.028355 0.397712
H6    H     H_    0.099770 0.030387 0.325775 0.405303
H7    H     H_    0.747719 0.208989 0.296198 0.403015
H8    H     H_    0.075130 0.519813 0.702275 0.267384
H9    H     H_    0.387163 0.125432 0.366779 0.197848
H10   H     H_    0.492860 0.693624 0.894365 0.140544
H11   H     H_    0.082876 0.355128 0.664729 0.254339
H12   H     H_    0.078665 0.683403 0.541239 0.229829
H13   H     H_    0.069873 0.650707 0.369901 0.256543
H14   H     H_    0.938897 0.658097 0.917122 0.424532
H15   H     H_    0.308173 0.926878 0.092807 0.400693
N1    N     N_2   0.500900 0.501330 0.852150 0.165608
N2    N     N_2   0.500920 0.501360 0.147810 0.010131
O1    O     O_R   0.499990 0.319060 0.613040 -0.515115
O2    O     O_2   0.938368 0.403865 0.892374 -0.179518
O3    O     O_3   0.957503 0.638185 0.825657 -0.434686
O4    O     O_2   0.465811 0.850699 0.160094 -0.261661
O5    O     O_2   0.348214 0.737500 0.264850 -0.283972
O6    O     O_3   0.321831 0.965212 0.181809 -0.515949
O7    O     O_2   0.493142 0.944338 0.759157 -0.164743
O8    O     O_2   0.360518 0.032024 0.670556 -0.255548
O9    O     O_3   0.359088 0.797775 0.743984 -0.557493
O10   O     O_2   0.662070 0.741120 0.004694 -0.216099
O11   O     O_2   0.625236 0.746998 0.238718 -0.235906
O12   O     O_R   0.500010 0.319100 0.386900 -0.607476
O13   O     O_3   0.704425 0.548770 0.145232 -0.452232
O14   O     O_2   0.341533 0.508115 0.051844 -0.250113
O15   O     O_2   0.424963 0.322999 0.981272 -0.200767
O16   O     O_3   0.369540 0.326582 0.213973 -0.484450
O17   O     O_2   0.074284 0.530974 0.169910 -0.219282
O18   O     O_2   0.184664 0.377761 0.221478 -0.256025
O19   O     O_3   0.045246 0.293692 0.107992 -0.379655
O20   O     O_2   0.173655 0.220015 0.471223 -0.291793
O21   O     O_2   0.031084 0.158876 0.534453 -0.259178
O22   O     O_3   0.077009 0.111589 0.293533 -0.406967
O23   O     O_R   0.377130 0.499990 0.613120 -0.608680
O24   O     O_2   0.916191 0.156360 0.252504 -0.105867
O25   O     O_2   0.866752 0.178974 0.480892 -0.259751
O26   O     O_3   0.782927 0.288052 0.295328 -0.483134
O27   O     O_R   0.377160 0.500030 0.386980 -0.523462
O28   O     O_R   0.499990 0.680900 0.613100 -0.584536
O29   O     O_R   0.500010 0.680940 0.386960 -0.568229
O30   O     O_R   0.622840 0.499970 0.613020 -0.554785
O31   O     O_R   0.622870 0.500010 0.386880 -0.568685
O32   O     O_2   0.819126 0.504035 0.781347 -0.205665
S1    S     S_3+6 0.914300 0.493847 0.785780 0.149209
S2    S     S_3+6 0.391352 0.864850 0.249948 0.057887
S3    S     S_3+6 0.415000 0.915342 0.674956 0.087117
S4    S     S_3+6 0.632324 0.662174 0.116806 0.143874
S5    S     S_3+6 0.408520 0.416081 0.093951 0.192074
S6    S     S_3+6 0.090437 0.399266 0.217995 0.168160
S7    S     S_3+6 0.082146 0.213919 0.425565 0.104340
S8    S     S_3+6 0.879156 0.246570 0.353857 0.166488
Zn1   Zn    Zn3+2 0.499980 0.499970 0.650990 1.197400
Zn2   Zn    Zn3+2 0.500020 0.500030 0.349010 1.186654

loop_
_geom_bond_atom_site_label_1
_geom_bond_atom_site_label_2
_ccdc_geom_bond_type
C15   C18   S    
C4    C21   S    
C18   H12   S    
F3    N1    S    
O28   Zn1   S    
C13   S8    S    
C17   F1    S    
C12   H1    S    
C1    C5    S    
O9    S3    S    
C1    O12   A    
C10   C15   S    
O21   S7    D    
H3    O13   S    
O5    S2    D    
O4    S2    D    
C18   H13   S    
C2    S3    S    
O22   S7    S    
C11   C15   S    
C12   C16   S    
C16   C17   S    
C2    C22   D    
C10   H8    S    
O8    S3    D    
O26   S8    S    
H7    O26   S    
O18   S6    D    
O13   S4    S    
N2    Zn2   S    
O6    S2    S    
H6    O22   S    
O10   S4    D    
C11   S6    S    
C15   C20   S    
O23   Zn1   S    
C8    O28   A    
O19   S6    S    
O24   S8    D    
O32   S1    D    
C22   S2    S    
N2    S5    S    
O14   S5    D    
C11   S7    S    
C17   F5    S    
H4    O16   S    
O1    Zn1   S    
C9    C14   S    
O20   S7    D    
C4    O23   A    
O27   Zn2   S    
O16   S5    S    
O31   Zn2   S    
O12   Zn2   S    
C12   S1    S    
C17   C18   S    
H14   O3    S    
C6    H10   S    
C7    N2    D    
C10   C12   S    
H15   O6    S    
N1    Zn1   S    
C6    N1    D    
C13   F4    S    
C9    O30   A    
O3    S1    S    
C14   C19   T    
C2    C8    S    
O15   S5    D    
H5    O19   S    
C3    C5    D    
O2    S1    D    
C6    C7    S    
C10   H11   S    
O25   S8    D    
O11   S4    D    
C11   C13   S    
C1    O1    A    
C5    F2    S    
H2    O9    S    
C3    H9    S    
C16   C19   S    
C8    O29   A    
O30   Zn1   S    
O7    S3    D    
O29   Zn2   S    
O17   S6    D    
C20   C21   T    
C13   C16   S    
C3    C22   S    
C9    O31   A    
C4    O27   A    
C7    S4    S    
