data_mof_unit_35335.cif
_audit_creation_date              2012-12-10T18:24:41-0500
_audit_creation_method            fapswitch 2.2
_symmetry_space_group_name_H-M    P1
_symmetry_Int_Tables_number       1
_space_group_crystal_system       triclinic
_cell_length_a                    18.887843
_cell_length_b                    18.805288
_cell_length_c                    18.9125
_cell_angle_alpha                 109.694715
_cell_angle_beta                  109.484544
_cell_angle_gamma                 109.648529
_cell_volume                      5144.56377715

loop_
_atom_site_label
_atom_site_type_symbol
_atom_type_description
_atom_site_fract_x
_atom_site_fract_y
_atom_site_fract_z
_atom_type_partial_charge
C1    C     C_R   0.384075 0.502048 0.381912 0.812238
C2    C     C_R   0.835191 0.840818 0.846305 0.398121
C3    C     C_R   0.082083 0.260981 0.759952 -0.003172
C4    C     C_R   0.787445 0.189006 0.753608 0.534484
C5    C     C_R   0.704581 0.179641 0.733483 -0.238038
C6    C     C_R   0.667395 0.206548 0.678199 -0.191883
C7    C     C_R   0.712830 0.244746 0.643912 -0.130732
C8    C     C_R   0.796575 0.258638 0.666944 -0.267873
C9    C     C_R   0.834959 0.232469 0.722901 0.017652
C10   C     C_R   0.823978 0.820188 0.574869 -0.242050
C11   C     C_R   0.812251 0.810588 0.494652 -0.076388
C12   C     C_R   0.735268 0.738939 0.415958 0.052103
C13   C     C_R   0.676534 0.675626 0.422121 -0.207413
C14   C     C_R   0.687589 0.686711 0.502797 -0.101975
C15   C     C_R   0.761404 0.760688 0.580338 0.043190
C16   C     C_R   0.630625 0.696683 0.261992 0.486526
C17   C     C_R   0.616722 0.687331 0.180382 -0.221208
C18   C     C_R   0.682877 0.698805 0.160496 -0.195440
C19   C     C_R   0.621119 0.619230 0.502699 0.794220
C20   C     C_R   0.764532 0.722389 0.222291 -0.128417
C21   C     C_R   0.780749 0.736444 0.304756 -0.172881
C22   C     C_R   0.715451 0.725390 0.326981 0.023798
C23   C     C_R   0.442718 0.813871 0.516348 -0.156331
C24   C     C_R   0.375933 0.729332 0.449032 -0.055981
C25   C     C_R   0.394763 0.670548 0.400900 0.157408
C26   C     C_R   0.481733 0.697622 0.422487 -0.083617
C27   C     C_R   0.548323 0.782149 0.489889 -0.101704
C28   C     C_R   0.528745 0.840271 0.536494 -0.134415
C29   C     C_R   0.257053 0.579465 0.259051 0.531189
C30   C     C_R   0.616371 0.498838 0.618634 0.815814
C31   C     C_R   0.188182 0.498769 0.186086 -0.187025
C32   C     C_R   0.184162 0.419967 0.177876 -0.083950
C33   C     C_R   0.250861 0.423718 0.242232 -0.264336
C34   C     C_R   0.319632 0.503982 0.315263 -0.155869
C35   C     C_R   0.322882 0.583177 0.324961 -0.125016
C36   C     C_R   0.058668 0.271898 0.114854 -0.146173
C37   C     C_R   0.994754 0.187587 0.044909 -0.143795
C38   C     C_R   0.985465 0.163269 0.962522 -0.054657
C39   C     C_R   0.039409 0.223459 0.949701 -0.093394
C40   C     C_R   0.102931 0.308195 0.019323 -0.156787
C41   C     C_R   0.379862 0.380977 0.498452 0.788938
C42   C     C_R   0.113057 0.332833 0.102452 0.158079
C43   C     C_R   0.207977 0.515020 0.556984 -0.130498
C44   C     C_R   0.222078 0.447470 0.560179 -0.136256
C45   C     C_R   0.223945 0.390188 0.491183 0.121504
C46   C     C_R   0.210098 0.400477 0.418407 -0.128586
C47   C     C_R   0.194975 0.467513 0.415081 -0.118932
C48   C     C_R   0.194532 0.525083 0.484524 -0.111400
C49   C     C_R   0.175569 0.252231 0.494066 -0.251492
C50   C     C_R   0.185839 0.182702 0.496874 -0.078967
C51   C     C_R   0.260063 0.178537 0.500054 0.000354
C52   C     C_R   0.760723 0.837836 0.792433 0.525840
C53   C     C_R   0.322019 0.244103 0.499294 -0.244501
C54   C     C_R   0.311734 0.313545 0.496678 -0.068872
C55   C     C_R   0.238177 0.318340 0.494564 -0.001435
C56   C     C_R   0.348660 0.122733 0.569193 -0.144756
C57   C     C_R   0.364671 0.054862 0.567125 -0.163634
C58   C     C_R   0.306473 0.969732 0.496426 -0.074692
C59   C     C_R   0.231755 0.952137 0.428134 -0.067426
C60   C     C_R   0.215322 0.019789 0.430093 -0.141649
C61   C     C_R   0.273735 0.105606 0.500650 0.129989
C62   C     C_2   0.736057 0.430966 0.763367 -0.289285
C63   C     C_R   0.733602 0.807548 0.704266 -0.263784
C64   C     C_2   0.822239 0.485903 0.801887 0.360000
C65   C     C_2   0.672158 0.426408 0.688489 -0.196934
C66   C     C_2   0.680411 0.499831 0.688335 -0.238129
C67   C     C_R   0.998391 0.878726 0.382011 0.775752
C68   C     C_R   0.880622 0.879176 0.497582 0.778847
C69   C     C_R   0.001158 0.120446 0.618406 0.789976
C70   C     C_R   0.118970 0.117133 0.498388 0.787285
C71   C     C_R   0.001512 0.380870 0.882976 0.764852
C72   C     C_R   0.121318 0.498875 0.120046 0.862384
C73   C     C_R   0.001976 0.619298 0.120475 0.809750
C74   C     C_R   0.779279 0.777726 0.668541 0.023461
C75   C     C_R   0.885305 0.495875 0.880729 0.738839
C76   C     C_R   0.029227 0.735307 0.528457 -0.219029
C77   C     C_R   0.046719 0.752786 0.467415 0.533145
C78   C     C_R   0.977564 0.712982 0.382231 -0.009225
C79   C     C_R   0.895283 0.647321 0.356433 -0.274818
C80   C     C_R   0.879030 0.629284 0.417038 -0.124929
C81   C     C_R   0.945585 0.674360 0.503334 -0.178042
C82   C     C_R   0.990433 0.671798 0.250873 -0.233552
C83   C     C_R   0.001304 0.686699 0.186538 -0.076750
C84   C     C_R   0.012288 0.765332 0.187707 0.036989
C85   C     C_R   0.853262 0.780293 0.722614 -0.245932
C86   C     C_R   0.008226 0.825447 0.251354 -0.284020
C87   C     C_R   0.998555 0.811067 0.316134 -0.071886
C88   C     C_R   0.991163 0.734056 0.317275 0.052191
C89   C     C_R   0.105975 0.864895 0.156128 -0.152684
C90   C     C_R   0.123643 0.886712 0.097879 -0.224378
C91   C     C_R   0.065322 0.832178 0.008588 -0.198746
C92   C     C_R   0.988811 0.756233 0.977526 0.657765
C93   C     C_R   0.970566 0.734346 0.035511 -0.205190
C94   C     C_R   0.029678 0.788037 0.125265 0.045442
C95   C     C_R   0.310969 0.299017 0.859062 -0.142625
C96   C     C_R   0.881838 0.813276 0.811025 -0.219726
C97   C     C_R   0.228481 0.282745 0.846074 -0.149948
C98   C     C_R   0.168399 0.275516 0.772046 0.130928
C99   C     C_R   0.192566 0.286254 0.712044 -0.124072
C100  C     C_R   0.275408 0.303161 0.725671 -0.121827
C101  C     C_R   0.334362 0.309088 0.798839 -0.110942
C102  C     C_R   0.079267 0.322879 0.823446 -0.264774
C103  C     C_R   0.999632 0.313560 0.814546 -0.053123
C104  C     C_R   0.920801 0.241874 0.740044 0.058861
C105  C     C_R   0.923488 0.180525 0.676064 -0.232761
C106  C     C_R   0.003027 0.188936 0.685707 -0.082775
Cu1   Cu    Cu3+1 0.499580 0.561790 0.561390 0.981453
Cu2   Cu    Cu3+1 0.500420 0.438210 0.438610 0.931079
Cu3   Cu    Cu3+1 0.061410 0.999960 0.561370 0.990116
Cu4   Cu    Cu3+1 0.938590 0.000000 0.438590 0.956089
Cu5   Cu    Cu3+1 0.065060 0.561820 0.003180 0.990710
Cu6   Cu    Cu3+1 0.941450 0.438250 0.003210 0.966367
H1    H     H_    0.670599 0.689081 0.096917 0.153595
H2    H     H_    0.815606 0.730409 0.206438 0.156721
H3    H     H_    0.844985 0.756520 0.351823 0.133240
H4    H     H_    0.580134 0.905890 0.587864 0.120851
H5    H     H_    0.427765 0.859227 0.552446 0.125237
H6    H     H_    0.309448 0.709888 0.433829 0.125739
H7    H     H_    0.497952 0.653709 0.386826 0.117894
H8    H     H_    0.615050 0.802919 0.505545 0.142815
H9    H     H_    0.248311 0.363284 0.236047 0.168333
H10   H     H_    0.066198 0.289634 0.178758 0.125727
H11   H     H_    0.953060 0.140788 0.054758 0.145836
H12   H     H_    0.936980 0.097546 0.908821 0.130773
H13   H     H_    0.032493 0.203933 0.885959 0.144927
H14   H     H_    0.145237 0.353907 0.008963 0.105240
H15   H     H_    0.183310 0.577168 0.481956 0.115052
H16   H     H_    0.207183 0.559388 0.610551 0.125546
H17   H     H_    0.232125 0.440100 0.616540 0.121208
H18   H     H_    0.210265 0.356234 0.364170 0.104480
H19   H     H_    0.183255 0.474775 0.358605 0.135879
H20   H     H_    0.679260 0.810636 0.664778 0.169941
H21   H     H_    0.118790 0.255472 0.492363 0.152325
H22   H     H_    0.379006 0.241246 0.501155 0.146246
H23   H     H_    0.394814 0.188667 0.623821 0.116747
H24   H     H_    0.422629 0.068410 0.619909 0.120206
H25   H     H_    0.319589 0.917513 0.494250 0.120284
H26   H     H_    0.187246 0.886223 0.373288 0.151742
H27   H     H_    0.158249 0.005909 0.376070 0.097260
H28   H     H_    0.711818 0.387112 0.785712 0.155919
H29   H     H_    0.615484 0.363264 0.636333 0.146342
H30   H     H_    0.891466 0.761064 0.697114 0.170503
H31   H     H_    0.730383 0.563306 0.745890 0.205442
H32   H     H_    0.932716 0.661029 0.550494 0.145081
H33   H     H_    0.080597 0.768125 0.595121 0.131917
H34   H     H_    0.842751 0.612238 0.289782 0.161758
H35   H     H_    0.814581 0.580842 0.397196 0.148414
H36   H     H_    0.983123 0.611886 0.250468 0.155844
H37   H     H_    0.014577 0.885037 0.251510 0.152123
H38   H     H_    0.152142 0.907359 0.225201 0.142949
H39   H     H_    0.182748 0.945678 0.121951 0.161201
H40   H     H_    0.941980 0.820121 0.852694 0.205760
H41   H     H_    0.079533 0.848914 0.963605 0.139217
H42   H     H_    0.910783 0.675597 0.010628 0.115297
H43   H     H_    0.398352 0.322006 0.809125 0.119614
H44   H     H_    0.356891 0.304193 0.916018 0.125740
H45   H     H_    0.211299 0.275560 0.893489 0.121615
H46   H     H_    0.147726 0.282567 0.655466 0.098221
H47   H     H_    0.294246 0.312243 0.679888 0.138327
H48   H     H_    0.139680 0.378804 0.880375 0.151712
H49   H     H_    0.862981 0.125352 0.618609 0.152029
H50   H     H_    0.881712 0.876476 0.634427 0.156377
H51   H     H_    0.667959 0.149989 0.759019 0.137972
H52   H     H_    0.603070 0.197358 0.661551 0.141390
H53   H     H_    0.683353 0.264200 0.599871 0.142227
H54   H     H_    0.831028 0.288203 0.639761 0.154572
H55   H     H_    0.620903 0.616930 0.363397 0.154737
H56   H     H_    0.553985 0.669822 0.131495 0.140518
O1    O     O_R   0.410050 0.552190 0.462250 -0.570309
O2    O     O_R   0.948740 0.909840 0.358530 -0.595570
O3    O     O_R   0.961680 0.909780 0.551820 -0.587906
O4    O     O_R   0.857970 0.909820 0.448140 -0.575105
O5    O     O_R   0.051260 0.090120 0.641420 -0.577811
O6    O     O_R   0.947550 0.090150 0.537740 -0.587877
O7    O     O_R   0.142030 0.090140 0.551820 -0.566224
O8    O     O_R   0.038320 0.090170 0.448130 -0.590360
O9    O     O_R   0.056040 0.462030 0.913600 -0.611253
O10   O     O_R   0.951650 0.357670 0.913630 -0.550551
O11   O     O_R   0.145040 0.552210 0.092780 -0.544384
O12   O     O_R   0.410760 0.447830 0.358560 -0.595175
O13   O     O_R   0.040660 0.447850 0.092810 -0.587472
O14   O     O_R   0.054850 0.642400 0.092760 -0.557593
O15   O     O_R   0.950470 0.538040 0.092790 -0.596628
O16   O     O_R   0.965850 0.552220 0.913580 -0.551913
O17   O     O_R   0.861470 0.447860 0.913610 -0.617012
O18   O     O_R   0.589820 0.642360 0.551840 -0.582704
O19   O     O_R   0.590530 0.538000 0.448150 -0.595913
O20   O     O_R   0.589240 0.552170 0.641440 -0.583581
O21   O     O_R   0.589950 0.447810 0.537750 -0.581207
O22   O     O_R   0.409470 0.462000 0.551850 -0.573559
O23   O     O_R   0.410180 0.357640 0.448160 -0.591475
O24   O     O_R   0.052450 0.909800 0.462220 -0.540631
O25   O     O_3   0.869358 0.881103 0.935212 -0.601904
C107  C     C_3   0.823089 0.822219 0.955340 0.084389
H57   H     H_    0.825458 0.760777 0.929996 0.157743
H58   H     H_    0.753898 0.805812 0.927209 0.185340
C108  C     C_3   0.865003 0.865661 0.054170 -0.318674
H59   H     H_    0.934301 0.882907 0.083344 0.227621
H60   H     H_    0.862916 0.927042 0.079973 0.232152
C109  C     C_3   0.818101 0.805719 0.080963 -0.945128
H61   H     H_    0.748866 0.788492 0.053076 0.257097
H62   H     H_    0.849512 0.839981 0.152916 0.272004
H63   H     H_    0.821474 0.744890 0.058268 0.253972
F1    F     F_    0.260046 0.654910 0.265740 -0.677651
F2    F     F_    0.717299 0.868222 0.826588 -0.694551
O26   O     O_3   0.854671 0.537135 0.769396 -0.536874
C110  C     C_3   0.859787 0.487660 0.697804 0.085632
H64   H     H_    0.853953 0.517697 0.656183 0.171340
H65   H     H_    0.805411 0.418409 0.655877 0.120748
C111  C     C_3   0.947698 0.491370 0.728342 -0.336195
H66   H     H_    0.001068 0.560209 0.776280 0.251511
H67   H     H_    0.949771 0.451688 0.760324 0.206147
C112  C     C_3   0.962532 0.455982 0.652484 -0.942349
H68   H     H_    0.909145 0.387788 0.602506 0.252856
H69   H     H_    0.025034 0.456414 0.676453 0.264392
H70   H     H_    0.965742 0.497614 0.622326 0.257130
O27   O     O_3   0.130540 0.809382 0.490553 -0.601512
C113  C     C_3   0.185302 0.774584 0.511754 0.026039
H71   H     H_    0.214857 0.770816 0.469713 0.154596
H72   H     H_    0.150675 0.706551 0.499280 0.121637
C114  C     C_3   0.258447 0.835685 0.606865 -0.340095
H73   H     H_    0.303595 0.897472 0.614638 0.215518
H74   H     H_    0.230921 0.852500 0.649304 0.218931
C115  C     C_3   0.309257 0.793342 0.636788 -0.931682
H75   H     H_    0.266583 0.735384 0.636257 0.254154
H76   H     H_    0.364891 0.841107 0.704058 0.261961
H77   H     H_    0.334755 0.772356 0.593559 0.255850
F3    F     F_    0.932031 0.703848 0.891085 -0.677197
O28   O     O_3   0.824213 0.158550 0.804575 -0.611377
C116  C     C_3   0.766694 0.069044 0.771536 0.014937
H78   H     H_    0.803932 0.034313 0.769015 0.149478
H79   H     H_    0.712878 0.034893 0.703021 0.122802
C117  C     C_3   0.731689 0.059602 0.832419 -0.317911
H80   H     H_    0.775118 0.050921 0.881146 0.236376
H81   H     H_    0.731586 0.119887 0.868762 0.216726
C118  C     C_3   0.639130 0.981907 0.782356 -0.823765
H82   H     H_    0.593348 0.994057 0.740078 0.218462
H83   H     H_    0.618743 0.972691 0.828784 0.268674
H84   H     H_    0.635552 0.921119 0.741157 0.286691
O29   O     O_3   0.563712 0.683831 0.280696 -0.625015
C119  C     C_3   0.488911 0.599575 0.217865 -0.010023
H85   H     H_    0.472459 0.564581 0.252076 0.151451
H86   H     H_    0.498139 0.556216 0.168873 0.131554
C120  C     C_3   0.411613 0.608743 0.171892 -0.279992
H87   H     H_    0.395904 0.642060 0.220140 0.249765
H88   H     H_    0.428637 0.649541 0.142773 0.214615
C121  C     C_3   0.331732 0.519451 0.100209 -0.935924
H89   H     H_    0.344768 0.487310 0.048823 0.251057
H90   H     H_    0.275780 0.527689 0.070252 0.270228
H91   H     H_    0.314327 0.476713 0.127388 0.261567

loop_
_geom_bond_atom_site_label_1
_geom_bond_atom_site_label_2
_ccdc_geom_bond_type
C56   C61   A    
C107  H58   S    
C87   C88   A    
C78   C79   A    
C93   C94   A    
C39   H13   S    
C54   C55   A    
Cu2   O19   S    
C36   C42   A    
Cu5   Cu6   S    
C51   C61   S    
C21   H3    S    
C115  H75   S    
C97   C98   A    
C90   C91   A    
C7    C8    A    
C77   C78   A    
C118  H82   S    
C12   C13   A    
Cu1   O18   S    
C26   C27   A    
C37   C38   A    
C41   O22   A    
C83   C84   A    
C5    H51   S    
C71   O10   A    
C36   C37   A    
C13   H55   S    
C84   C86   A    
C72   O13   A    
C91   H41   S    
C114  C115  S    
C10   C15   A    
C33   H9    S    
C19   O18   A    
Cu1   O1    S    
C5    C6    A    
C34   C35   A    
C85   C96   A    
Cu3   O5    S    
C112  H70   S    
C107  C108  S    
C101  H43   S    
Cu3   O24   S    
C43   H16   S    
C96   H40   S    
C12   C22   S    
C119  H85   S    
C92   F3    S    
C120  H87   S    
Cu2   O12   S    
C116  C117  S    
C95   H44   S    
C30   O21   A    
C89   C94   A    
C108  H60   S    
C92   C93   A    
C62   C64   D    
C28   H4    S    
C19   O19   A    
C37   H11   S    
C111  H66   S    
C80   H35   S    
C47   C48   A    
C118  H83   S    
C16   C17   A    
C109  H61   S    
C110  C111  S    
Cu1   Cu2   S    
Cu2   O23   S    
C31   C72   S    
C79   H34   S    
C103  C104  A    
C43   C48   A    
C82   C88   A    
C2    O25   S    
C40   C42   A    
C107  H57   S    
C7    H53   S    
C59   C60   A    
C10   H50   S    
C29   F1    S    
C21   C22   A    
Cu5   O11   S    
C75   O17   A    
C69   O5    A    
C26   H7    S    
C9    C104  S    
C75   O16   A    
C18   H1    S    
C104  C105  A    
C81   H32   S    
O28   C116  S    
C1    C34   S    
C33   C34   A    
Cu6   O15   S    
C57   C58   A    
C121  H90   S    
C67   O2    A    
C41   O23   A    
C110  H64   S    
C24   C25   A    
C51   C53   A    
C86   H37   S    
C102  H48   S    
Cu6   O17   S    
O26   C110  S    
C8    C9    A    
C66   H31   S    
C59   H26   S    
C50   C51   A    
C58   C59   A    
C27   H8    S    
C64   O26   S    
Cu1   O20   S    
C52   C63   A    
Cu5   O14   S    
C52   F2    S    
C90   H39   S    
C47   H19   S    
C60   C61   A    
C119  H86   S    
C97   H45   S    
C76   C81   A    
C108  C109  S    
C36   H10   S    
C43   C44   A    
C46   H18   S    
C114  H73   S    
C117  H80   S    
C67   O24   A    
C65   H29   S    
C113  H72   S    
C99   C100  A    
O29   C119  S    
C112  H68   S    
C23   C24   A    
C40   H14   S    
Cu3   O7    S    
C17   C18   A    
C57   H24   S    
C84   C94   S    
C63   H20   S    
C76   C77   A    
C116  H79   S    
C117  H81   S    
C45   C55   S    
C30   C66   S    
C2    C52   A    
C25   C35   S    
Cu4   O2    S    
C58   H25   S    
C89   H38   S    
Cu6   O13   S    
C6    H52   S    
C76   H33   S    
C98   C99   A    
C111  H67   S    
C82   C83   A    
C49   C50   A    
C105  H49   S    
Cu2   O21   S    
C23   C28   A    
C56   C57   A    
C68   O3    A    
C89   C90   A    
C115  H77   S    
C39   C40   A    
C56   H23   S    
C44   C45   A    
C3    C102  A    
C113  C114  S    
Cu6   O10   S    
C70   O7    A    
C121  H91   S    
C78   C88   S    
C71   C103  S    
C46   C47   A    
C93   H42   S    
C69   C106  S    
C16   C22   A    
C62   C65   S    
C86   C87   A    
C24   H6    S    
C14   C19   S    
C31   C32   A    
C53   H22   S    
C110  H65   S    
C80   C81   A    
C17   H56   S    
C115  H76   S    
C85   H30   S    
C23   H5    S    
C82   H36   S    
C121  H89   S    
C95   C97   A    
C53   C54   A    
C6    C7    A    
C63   C74   A    
Cu4   O8    S    
C44   H17   S    
C111  C112  S    
C105  C106  A    
C29   C35   A    
C67   C87   S    
C120  C121  S    
C114  H74   S    
C119  C120  S    
C32   C33   A    
C71   O9    A    
C2    C96   A    
C3    C106  A    
C25   C26   A    
C112  H69   S    
C116  H78   S    
C29   C31   A    
C49   C55   A    
Cu3   Cu4   S    
C4    O28   S    
C48   H15   S    
C20   H2    S    
C73   O14   A    
C68   O4    A    
C100  H47   S    
C77   O27   S    
C113  H71   S    
C38   C39   A    
Cu4   O6    S    
C108  H59   S    
C109  H63   S    
C73   O15   A    
C8    H54   S    
Cu1   O22   S    
C1    O1    A    
Cu5   O16   S    
C1    O12   A    
C64   C75   S    
C120  H88   S    
C95   C101  A    
C18   C20   A    
C65   C66   D    
C74   C85   A    
C50   C70   S    
C102  C103  A    
C117  C118  S    
C38   H12   S    
C41   C54   S    
C11   C68   S    
O27   C113  S    
C10   C11   A    
C60   H27   S    
C79   C80   A    
C45   C46   A    
C4    C5    A    
C15   C74   S    
C20   C21   A    
C16   O29   S    
C109  H62   S    
O25   C107  S    
C69   O6    A    
C99   H46   S    
C49   H21   S    
C27   C28   A    
Cu5   O9    S    
C32   C42   S    
C14   C15   A    
C100  C101  A    
C72   O11   A    
C62   H28   S    
C4    C9    A    
C13   C14   A    
C70   O8    A    
C73   C83   S    
C118  H84   S    
C3    C98   S    
C91   C92   A    
Cu3   O3    S    
C11   C12   A    
C30   O20   A    
Cu4   O4    S    
