data_mof_unit_52945.cif
_audit_creation_date              2012-12-10T17:43:40-0500
_audit_creation_method            fapswitch 2.2
_symmetry_space_group_name_H-M    P1
_symmetry_Int_Tables_number       1
_space_group_crystal_system       triclinic
_cell_length_a                    14.987795
_cell_length_b                    10.630584
_cell_length_c                    9.913288
_cell_angle_alpha                 89.911226
_cell_angle_beta                  90.006285
_cell_angle_gamma                 91.642454
_cell_volume                      1578.82357705

loop_
_atom_site_label
_atom_site_type_symbol
_atom_type_description
_atom_site_fract_x
_atom_site_fract_y
_atom_site_fract_z
_atom_type_partial_charge
C1    C     C_R   0.502489 0.260752 0.500123 0.853706
C2    C     C_R   0.184342 0.456273 0.608008 -0.315900
C3    C     C_R   0.230729 0.505979 0.497503 -0.092112
C4    C     C_R   0.326864 0.503124 0.499725 0.884894
C5    C     C_R   0.185549 0.554013 0.384250 0.142373
C6    C     C_R   0.651422 0.137162 0.626721 -0.173481
C7    C     C_R   0.721072 0.074270 0.687994 -0.132736
C8    C     C_R   0.721160 0.943364 0.687845 -0.136835
C9    C     C_R   0.651655 0.874898 0.626284 -0.190072
C10   C     C_R   0.579932 0.937248 0.564959 0.094970
C11   C     C_R   0.579793 0.069157 0.565232 0.098778
C12   C     C_R   0.906460 0.518464 0.374914 0.066208
C13   C     C_R   0.508765 0.128740 0.499916 -0.087564
C14   C     C_R   0.442031 0.062071 0.430856 -0.213451
C15   C     C_R   0.442267 0.933620 0.430412 -0.200392
C16   C     C_R   0.502780 0.739475 0.499859 0.865684
C17   C     C_R   0.509085 0.872075 0.499283 -0.097085
C18   C     C_R   0.381792 0.336821 0.140316 -0.152884
C19   C     C_R   0.323115 0.257057 0.070248 -0.199463
C20   C     C_R   0.323265 0.256808 0.930620 -0.202631
C21   C     C_R   0.382095 0.336329 0.860258 -0.155516
C22   C     C_R   0.441813 0.419469 0.927839 0.172042
C23   C     C_R   0.953439 0.416654 0.727023 -0.236628
C24   C     C_R   0.441738 0.419628 0.072427 0.166041
C25   C     C_R   0.555756 0.576899 0.071372 -0.114609
C26   C     C_R   0.555714 0.576905 0.928250 -0.114636
C27   C     C_R   0.673203 0.499031 0.499859 0.863162
C28   C     C_R   0.814432 0.522193 0.378650 -0.236814
C29   C     C_R   0.768914 0.493975 0.498309 -0.067370
C30   C     C_R   0.814619 0.457859 0.614234 -0.283772
C31   C     C_R   0.906918 0.452971 0.611794 0.142168
C32   C     C_R   0.953308 0.485986 0.492122 0.074120
C33   C     C_3   0.232347 0.650937 0.294249 -0.848302
C34   C     C_R   0.045995 0.415543 0.724777 -0.205522
C35   C     C_3   0.087964 0.549321 0.112936 -0.912536
C36   C     C_R   0.092383 0.453699 0.608393 0.140277
C37   C     C_R   0.046330 0.488935 0.490634 -0.030466
C38   C     C_R   0.092992 0.529820 0.372986 0.068021
C39   C     C_R   0.044668 0.546215 0.250669 0.201480
C40   C     C_R   0.951654 0.544243 0.254792 -0.238218
H1    H     H_    0.778366 0.548619 0.288516 0.158071
H2    H     H_    0.601227 0.639792 0.874346 0.145070
H3    H     H_    0.918341 0.389807 0.818704 0.142337
H4    H     H_    0.219907 0.422173 0.695445 0.167534
H5    H     H_    0.914171 0.560937 0.163139 0.150010
H6    H     H_    0.388654 0.109745 0.379646 0.139139
H7    H     H_    0.655196 0.238799 0.626286 0.151284
H8    H     H_    0.775581 0.127337 0.734474 0.136430
H9    H     H_    0.778518 0.433206 0.705815 0.157278
H10   H     H_    0.081417 0.387414 0.814763 0.147201
H11   H     H_    0.285825 0.702916 0.350181 0.226117
H12   H     H_    0.775729 0.894696 0.734274 0.137151
H13   H     H_    0.262418 0.605483 0.205128 0.257367
H14   H     H_    0.185748 0.724595 0.262583 0.230601
H15   H     H_    0.145924 0.486670 0.110216 0.250496
H16   H     H_    0.040837 0.513535 0.034401 0.233043
H17   H     H_    0.108141 0.646877 0.084328 0.246555
H18   H     H_    0.655632 0.773512 0.625387 0.144438
H19   H     H_    0.389136 0.881918 0.378743 0.146646
H20   H     H_    0.601332 0.639732 0.125006 0.145036
H21   H     H_    0.378351 0.330450 0.247260 0.200720
H22   H     H_    0.277554 0.194618 0.124816 0.147015
H23   H     H_    0.277767 0.194249 0.876283 0.149219
H24   H     H_    0.378872 0.329691 0.753309 0.201978
N1    N     N_R   0.499150 0.498800 0.142780 -0.122391
N2    N     N_R   0.499120 0.498720 0.857170 -0.122270
O1    O     O_R   0.500000 0.316780 0.614690 -0.641573
O2    O     O_R   0.499990 0.316750 0.385360 -0.628422
O3    O     O_R   0.367850 0.499980 0.614680 -0.637898
O4    O     O_R   0.367840 0.499960 0.385350 -0.634582
O5    O     O_R   0.500010 0.683250 0.614640 -0.613822
O6    O     O_R   0.500000 0.683220 0.385310 -0.614447
O7    O     O_R   0.632160 0.500040 0.614650 -0.637394
O8    O     O_R   0.632150 0.500020 0.385320 -0.618849
Zn1   Zn    Zn3+2 0.500010 0.500020 0.653130 0.930832
Zn2   Zn    Zn3+2 0.499990 0.499980 0.346870 0.935152

loop_
_geom_bond_atom_site_label_1
_geom_bond_atom_site_label_2
_ccdc_geom_bond_type
C27   C29   S    
C19   C20   A    
C16   O6    A    
O6    Zn2   S    
C4    O4    A    
C7    C8    A    
C14   H6    S    
C29   C30   A    
N1    Zn2   S    
O8    Zn2   S    
C12   C28   A    
C18   C24   A    
C28   C29   A    
C18   C19   A    
C38   C39   A    
C19   H22   S    
C28   H1    S    
C1    O2    A    
C23   H3    S    
C9    H18   S    
C22   N2    A    
C21   H24   S    
C2    H4    S    
C8    C9    A    
C5    C33   S    
C25   H20   S    
C13   C14   A    
C27   O8    A    
C9    C10   A    
C8    H12   S    
C21   C22   A    
C12   C32   A    
O7    Zn1   S    
C16   O5    A    
C4    O3    A    
C33   H13   S    
C40   H5    S    
C34   H10   S    
C6    H7    S    
C35   H15   S    
C26   N2    A    
C25   N1    A    
C39   C40   A    
C16   C17   S    
C25   C26   A    
C33   H11   S    
C23   C31   A    
C12   C40   A    
C35   C39   S    
C37   C38   A    
C31   C32   A    
C23   C34   A    
C32   C37   A    
C24   N1    A    
C30   H9    S    
O4    Zn2   S    
C22   C24   A    
O1    Zn1   S    
C3    C4    S    
C6    C11   A    
C26   H2    S    
C2    C36   A    
C33   H14   S    
C15   C17   A    
C36   C37   A    
C35   H16   S    
C15   H19   S    
C3    C5    A    
C18   H21   S    
C6    C7    A    
O2    Zn2   S    
C35   H17   S    
C7    H8    S    
C20   H23   S    
C2    C3    A    
C27   O7    A    
O5    Zn1   S    
C11   C13   A    
C30   C31   A    
N2    Zn1   S    
C1    O1    A    
O3    Zn1   S    
C34   C36   A    
C10   C11   A    
C1    C13   S    
C20   C21   A    
C14   C15   A    
C10   C17   A    
C5    C38   A    
