data_mof_unit_58388.cif
_audit_creation_date              2012-12-10T18:43:08-0500
_audit_creation_method            fapswitch 2.2
_symmetry_space_group_name_H-M    P1
_symmetry_Int_Tables_number       1
_space_group_crystal_system       triclinic
_cell_length_a                    10.651256
_cell_length_b                    9.934595
_cell_length_c                    10.835263
_cell_angle_alpha                 89.996425
_cell_angle_beta                  91.445048
_cell_angle_gamma                 90.40412
_cell_volume                      1146.15011311

loop_
_atom_site_label
_atom_site_type_symbol
_atom_type_description
_atom_site_fract_x
_atom_site_fract_y
_atom_site_fract_z
_atom_type_partial_charge
C1    C     C_R   0.260244 0.499767 0.499222 0.854563
C2    C     C_R   0.739602 0.500383 0.500104 0.855068
C3    C     C_R   0.497671 0.499608 0.262924 0.944439
C4    C     C_R   0.501159 0.499536 0.737170 0.943197
C5    C     C_2   0.510780 0.389026 0.937258 0.214621
C6    C     C_2   0.471525 0.392056 0.063166 0.212795
C7    C     C_2   0.484642 0.497407 0.867489 -0.391740
C8    C     C_2   0.509590 0.497496 0.132169 -0.386505
C9    C     C_R   0.061276 0.403782 0.429587 -0.209594
C10   C     C_R   0.932562 0.403285 0.430762 -0.192229
C11   C     C_R   0.871961 0.501287 0.498966 0.000244
C12   C     C_R   0.127579 0.500340 0.498665 0.001716
C13   C     C_R   0.937936 0.600370 0.565372 -0.196908
C14   C     C_R   0.066830 0.599551 0.565636 -0.188149
C15   C     C_R   0.597423 0.070361 0.554378 0.215903
C16   C     C_R   0.402585 0.068579 0.446162 0.228170
C17   C     C_R   0.596286 0.927472 0.553847 -0.088467
C18   C     C_R   0.403821 0.925889 0.446270 -0.088827
H1    H     H_    0.438899 0.584607 0.906701 0.130922
H2    H     H_    0.561917 0.580449 0.092060 0.129393
H3    H     H_    0.108401 0.331405 0.372965 0.145261
H4    H     H_    0.880415 0.328610 0.377073 0.148136
H5    H     H_    0.889954 0.676115 0.618193 0.140642
H6    H     H_    0.118940 0.674739 0.618734 0.148907
H7    H     H_    0.673220 0.872108 0.596228 0.142074
H8    H     H_    0.326632 0.869338 0.404398 0.149598
N1    N     N_R   0.500000 0.857200 0.500000 -0.116217
N2    N     N_R   0.500000 0.142810 0.500000 -0.084873
O1    O     O_R   0.316770 0.614620 0.499990 -0.628600
O2    O     O_R   0.683230 0.614620 0.500010 -0.624995
O3    O     O_R   0.316800 0.385290 0.500000 -0.623582
O4    O     O_R   0.683200 0.385290 0.500000 -0.628936
O5    O     O_R   0.500000 0.614630 0.319080 -0.615287
O6    O     O_R   0.500000 0.614630 0.680920 -0.620223
O7    O     O_R   0.500030 0.385300 0.319080 -0.609485
O8    O     O_R   0.499970 0.385300 0.680920 -0.607658
Zn1   Zn    Zn3+2 0.500000 0.653120 0.500000 0.942541
Zn2   Zn    Zn3+2 0.500000 0.346880 0.500000 0.934143
C19   C     C_3   0.585037 0.268415 0.896995 -0.852099
H9    H     H_    0.608753 0.202293 0.976823 0.233409
H10   H     H_    0.529882 0.206366 0.829681 0.260192
H11   H     H_    0.675236 0.303126 0.858696 0.222426
C20   C     C_3   0.388190 0.278830 0.106146 -0.862306
H12   H     H_    0.352772 0.217599 0.026647 0.236195
H13   H     H_    0.441770 0.210249 0.168332 0.259003
H14   H     H_    0.304965 0.321116 0.151532 0.220031
C21   C     C_3   0.709567 0.137572 0.613975 -0.861378
H15   H     H_    0.681633 0.228088 0.664187 0.278283
H16   H     H_    0.756441 0.070539 0.682801 0.200493
H17   H     H_    0.778873 0.162840 0.542717 0.247770
C22   C     C_3   0.288598 0.133535 0.391083 -0.896300
H18   H     H_    0.314683 0.224683 0.340367 0.276667
H19   H     H_    0.238890 0.066131 0.323862 0.205752
H20   H     H_    0.223036 0.156633 0.465980 0.251803

loop_
_geom_bond_atom_site_label_1
_geom_bond_atom_site_label_2
_ccdc_geom_bond_type
C16   N2    A    
C20   H12   S    
C4    O8    A    
O3    Zn2   S    
C15   C17   A    
O4    Zn2   S    
C19   H11   S    
O6    Zn1   S    
C11   C13   A    
C9    C10   A    
C21   H15   S    
C18   H8    S    
C16   C22   S    
N2    Zn2   S    
C2    O2    A    
C22   H20   S    
C17   H7    S    
O8    Zn2   S    
C19   H10   S    
C16   C18   A    
C13   C14   A    
C10   H4    S    
C20   H13   S    
C9    H3    S    
C15   N2    A    
C8    H2    S    
C1    C12   S    
N1    Zn1   S    
C4    C7    S    
C2    C11   S    
C2    O4    A    
C9    C12   A    
C12   C14   A    
C21   H17   S    
C7    H1    S    
C6    C20   S    
C5    C19   S    
C5    C6    S    
C20   H14   S    
C4    O6    A    
C10   C11   A    
C1    O1    A    
O1    Zn1   S    
C22   H18   S    
C17   N1    A    
C1    O3    A    
O7    Zn2   S    
C13   H5    S    
C21   H16   S    
C3    C8    S    
C14   H6    S    
C19   H9    S    
C5    C7    D    
C3    O5    A    
C15   C21   S    
C6    C8    D    
O5    Zn1   S    
C18   N1    A    
C3    O7    A    
O2    Zn1   S    
C22   H19   S    
