data_mof_unit_58322.cif
_audit_creation_date              2012-12-10T19:03:42-0500
_audit_creation_method            fapswitch 2.2
_symmetry_space_group_name_H-M    P1
_symmetry_Int_Tables_number       1
_space_group_crystal_system       triclinic
_cell_length_a                    15.910603
_cell_length_b                    10.862436
_cell_length_c                    9.540189
_cell_angle_alpha                 90.551985
_cell_angle_beta                  89.84872
_cell_angle_gamma                 90.195283
_cell_volume                      1648.7191985

loop_
_atom_site_label
_atom_site_type_symbol
_atom_type_description
_atom_site_fract_x
_atom_site_fract_y
_atom_site_fract_z
_atom_type_partial_charge
C1    C     C_R   0.504052 0.262527 0.498859 0.788871
C2    C     C_R   0.505614 0.128874 0.495215 -0.201461
C3    C     C_R   0.525714 0.060439 0.371609 -0.033290
C4    C     C_R   0.340373 0.500099 0.500199 0.842079
C5    C     C_R   0.519105 0.932039 0.374198 -0.185398
C6    C     C_R   0.498607 0.870554 0.498370 -0.154523
C7    C     C_R   0.475293 0.938960 0.616128 0.174815
C8    C     C_3   0.506793 0.933051 0.763818 -0.287099
C9    C     C_3   0.508782 0.073460 0.763485 -0.234049
C10   C     C_R   0.572519 0.520876 0.073872 0.262356
C11   C     C_R   0.430415 0.466538 0.074168 -0.041719
C12   C     C_3   0.950329 0.433122 0.619785 -0.415977
C13   C     C_R   0.430368 0.466724 0.925562 -0.026569
C14   C     C_R   0.572829 0.520088 0.926310 0.346920
C15   C     C_3   0.627095 0.632836 0.923145 -0.330844
C16   C     C_R   0.500203 0.737510 0.500346 0.822540
C17   C     C_3   0.626557 0.632877 0.082682 -0.481530
C18   C     C_R   0.659635 0.499920 0.499734 0.794912
C19   C     C_3   0.047194 0.417717 0.609881 -0.215187
C20   C     C_3   0.049901 0.443490 0.343174 -0.179838
C21   C     C_3   0.949578 0.432713 0.355459 -0.285120
C22   C     C_1   0.748922 0.500302 0.498638 -0.114706
C23   C     C_3   0.916519 0.502819 0.489696 0.065803
C24   C     C_3   0.083425 0.500518 0.488639 -0.019983
C25   C     C_2   0.088846 0.434926 0.752126 0.888848
C26   C     C_2   0.562272 0.117039 0.243785 0.425223
C27   C     C_2   0.444350 0.880856 0.866548 0.434321
C28   C     C_2   0.596257 0.125491 0.778169 0.480527
C29   C     C_2   0.712673 0.611050 0.860007 0.508138
C30   C     C_2   0.078688 0.524770 0.220316 0.923288
C31   C     C_2   0.087325 0.314012 0.314380 0.857060
C32   C     C_2   0.903488 0.457586 0.218784 0.929547
C33   C     C_2   0.091941 0.741508 0.436763 0.883628
C34   C     C_3   0.951723 0.637382 0.489982 -0.187860
C35   C     C_2   0.907869 0.722748 0.593855 0.881180
C36   C     C_3   0.048868 0.635869 0.513624 -0.263475
C37   C     C_1   0.824209 0.501118 0.495480 0.007526
C38   C     C_1   0.175803 0.500452 0.496057 0.080891
C39   C     C_1   0.251104 0.500373 0.499847 -0.028316
C40   C     C_R   0.478702 0.065773 0.614451 0.018369
Cu1   Cu    Cu3+1 0.500000 0.499980 0.640670 1.001890
Cu2   Cu    Cu3+1 0.500000 0.500020 0.359330 0.976207
H1    H     H_    0.920741 0.340237 0.626165 0.183775
H2    H     H_    0.594206 0.712659 0.878038 0.130715
H3    H     H_    0.688320 0.613160 0.131749 0.255795
H4    H     H_    0.592915 0.713077 0.128879 0.192239
H5    H     H_    0.931576 0.335691 0.376753 0.174878
H6    H     H_    0.061097 0.659397 0.624921 0.199950
H7    H     H_    0.164449 0.362356 0.899123 0.361271
H8    H     H_    0.598208 0.201834 0.250312 0.107171
H9    H     H_    0.455591 0.891954 0.978055 0.106235
H10   H     H_    0.647203 0.090163 0.713545 0.048190
H11   H     H_    0.740128 0.680434 0.792731 0.072300
H12   H     H_    0.931573 0.481937 0.717679 0.253261
H13   H     H_    0.057024 0.670504 0.095423 0.381660
H14   H     H_    0.191172 0.208127 0.296405 0.349281
H15   H     H_    0.885011 0.404835 0.017756 0.372291
H16   H     H_    0.186583 0.802311 0.313765 0.350942
H17   H     H_    0.832286 0.869706 0.621822 0.330438
H18   H     H_    0.938898 0.676025 0.384857 0.220037
H19   H     H_    0.536427 0.879561 0.281473 0.186107
H20   H     H_    0.569811 0.889886 0.770132 0.110536
H21   H     H_    0.461636 0.118254 0.833641 0.195942
H22   H     H_    0.373633 0.440642 0.128926 0.180607
H23   H     H_    0.059174 0.319910 0.580906 0.171552
H24   H     H_    0.373563 0.441056 0.870670 0.162581
N1    N     N_R   0.500530 0.500930 0.147930 -0.209075
N2    N     N_R   0.500530 0.500890 0.852020 -0.209340
O1    O     O_R   0.500000 0.319640 0.618810 -0.554982
O2    O     O_R   0.140086 0.341455 0.803686 -0.738401
O3    O     O_2   0.554588 0.067213 0.129225 -0.559104
O4    O     O_2   0.382021 0.824750 0.826804 -0.506053
O5    O     O_2   0.610327 0.208236 0.862381 -0.499606
O6    O     O_2   0.752048 0.517327 0.884303 -0.523110
O7    O     O_2   0.146350 0.505617 0.162719 -0.541330
O8    O     O_R   0.030210 0.624245 0.175877 -0.735495
O9    O     O_2   0.042322 0.226834 0.281590 -0.534452
O10   O     O_R   0.174352 0.296096 0.318843 -0.743377
O11   O     O_2   0.855752 0.544954 0.207571 -0.560815
O12   O     O_R   0.500010 0.319680 0.381230 -0.597655
O13   O     O_R   0.917356 0.379202 0.104007 -0.708368
O14   O     O_2   0.063731 0.845620 0.450010 -0.531092
O15   O     O_R   0.164777 0.723457 0.356953 -0.743204
O16   O     O_2   0.915091 0.707879 0.720150 -0.565118
O17   O     O_R   0.858884 0.819286 0.543598 -0.730842
O18   O     O_R   0.379430 0.499990 0.618840 -0.580808
O19   O     O_R   0.379440 0.500030 0.381260 -0.563438
O20   O     O_R   0.499990 0.680320 0.618770 -0.568564
O21   O     O_R   0.500000 0.680360 0.381190 -0.587759
O22   O     O_R   0.620560 0.499970 0.618740 -0.577888
O23   O     O_R   0.620570 0.500010 0.381160 -0.579414
O24   O     O_2   0.077359 0.528225 0.822225 -0.556461

loop_
_geom_bond_atom_site_label_1
_geom_bond_atom_site_label_2
_ccdc_geom_bond_type
Cu2   O12   S    
C11   C13   A    
Cu1   Cu2   S    
C7    C8    S    
C4    O19   A    
C20   C30   S    
C10   N1    A    
Cu1   O18   S    
C12   C23   S    
C24   C36   S    
C18   O23   A    
C17   H3    S    
C15   H2    S    
C34   C35   S    
C12   H1    S    
C26   H8    S    
C5    C6    A    
C4    O18   A    
C10   C17   S    
C33   C36   S    
H14   O10   S    
C1    C2    S    
C20   C24   S    
C11   N1    A    
C8    C9    S    
C24   C38   S    
C7    C40   A    
C31   O9    D    
C33   O14   D    
Cu1   O22   S    
C16   O21   A    
C18   C22   S    
C34   H18   S    
C26   O3    D    
C28   O5    D    
C27   H9    S    
C15   C29   S    
Cu1   N2    S    
C13   H24   S    
C21   C32   S    
C18   O22   A    
C17   H4    S    
C11   H22   S    
C10   C14   A    
C29   O6    D    
C23   C37   S    
C22   C37   T    
C9    C40   S    
C1    O1    A    
H17   O17   S    
C32   O13   S    
C30   O8    S    
C4    C39   S    
C23   C34   S    
C5    H19   S    
C33   O15   S    
H13   O8    S    
H7    O2    S    
C21   C23   S    
Cu2   N1    S    
H15   O13   S    
C31   O10   S    
Cu1   O1    S    
C15   C17   S    
Cu1   O20   S    
C35   O17   S    
C25   O24   D    
C9    H21   S    
C19   C24   S    
C3    C26   S    
C3    C5    A    
C35   O16   D    
C6    C7    A    
Cu2   O19   S    
C19   H23   S    
Cu2   O21   S    
C2    C3    A    
H16   O15   S    
C32   O11   D    
C30   O7    D    
C28   H10   S    
C38   C39   T    
C29   H11   S    
C12   C19   S    
C36   H6    S    
C34   C36   S    
C19   C25   S    
C6    C16   S    
C2    C40   A    
C20   C21   S    
C16   O20   A    
C8    C27   S    
C14   N2    A    
C14   C15   S    
C1    O12   A    
C25   O2    S    
C20   C31   S    
C12   H12   S    
C27   O4    D    
Cu2   O23   S    
C9    C28   S    
C8    H20   S    
C21   H5    S    
C13   N2    A    
