data_mof_unit_58375.cif
_audit_creation_date              2012-10-26T18:32:01-0400
_audit_creation_method            fapswitch 2.2
_symmetry_space_group_name_H-M    P1
_symmetry_Int_Tables_number       1
_space_group_crystal_system       triclinic
_cell_length_a                    12.336835
_cell_length_b                    13.2718
_cell_length_c                    14.30804
_cell_angle_alpha                 93.160692
_cell_angle_beta                  107.744824
_cell_angle_gamma                 116.864804
_cell_volume                      1938.46473185

loop_
_atom_site_label
_atom_site_type_symbol
_atom_type_description
_atom_site_fract_x
_atom_site_fract_y
_atom_site_fract_z
_atom_type_partial_charge
C1    C     C_R   0.651057 0.714094 0.508946 0.526381
C2    C     C_R   0.167625 0.431148 0.999528 0.022263
C3    C     C_R   0.118184 0.450769 0.071929 -0.008597
C4    C     C_R   0.616912 0.514412 0.686211 0.544107
C5    C     C_R   0.282443 0.422487 0.029965 0.255895
C6    C     C_R   0.351023 0.439088 0.132529 -0.173716
C7    C     C_R   0.198097 0.482503 0.175080 0.233240
C8    C     C_R   0.144136 0.967101 0.368590 -0.132832
C9    C     C_R   0.250915 0.162977 0.465868 0.000522
C10   C     C_R   0.731585 0.920405 0.576270 -0.135202
C11   C     C_R   0.823094 0.036889 0.597101 -0.143328
C12   C     C_R   0.829284 0.469469 0.911355 -0.010857
C13   C     C_R   0.924952 0.071879 0.562019 -0.123703
C14   C     C_R   0.934602 0.990366 0.501425 0.032239
C15   C     C_R   0.832504 0.873343 0.470927 0.024594
C16   C     C_R   0.345782 0.285517 0.485726 0.548470
C17   C     C_R   0.041458 0.021221 0.469221 0.027912
C18   C     C_R   0.039257 0.937981 0.400814 0.055074
C19   C     C_R   0.930965 0.827525 0.363035 -0.140051
C20   C     C_R   0.827937 0.796110 0.395892 -0.125371
C21   C     C_R   0.151112 0.132332 0.503304 -0.136736
C22   C     C_R   0.249317 0.079565 0.400455 -0.137328
C23   C     C_R   0.763804 0.462345 0.979058 0.047578
C24   C     C_R   0.736964 0.837308 0.515618 -0.004322
C25   C     C_R   0.253694 0.686105 0.659833 -0.147321
C26   C     C_R   0.654724 0.341004 0.365394 0.047387
C27   C     C_R   0.732582 0.305887 0.336212 -0.126126
C28   C     C_R   0.381050 0.483314 0.313193 0.559431
C29   C     C_R   0.868047 0.365974 0.386396 -0.128786
C30   C     C_R   0.927911 0.462289 0.467455 -0.015506
C31   C     C_R   0.843726 0.494872 0.494971 0.171108
C32   C     C_R   0.067449 0.526921 0.522593 -0.016892
C33   C     C_R   0.118830 0.621673 0.603957 0.034051
C34   C     C_R   0.939156 0.451925 0.938626 0.006436
C35   C     C_R   0.035579 0.651772 0.629546 -0.177429
C36   C     C_R   0.901618 0.590054 0.576444 -0.103994
C37   C     C_R   0.159441 0.502185 0.501370 0.056759
C38   C     C_R   0.338287 0.657111 0.635386 0.039215
C39   C     C_R   0.671795 0.506777 0.790075 -0.008880
C40   C     C_R   0.309540 0.468522 0.205437 -0.044580
C41   C     C_R   0.652672 0.476399 0.950582 -0.119230
C42   C     C_R   0.606454 0.497586 0.856459 -0.149224
C43   C     C_R   0.784353 0.496396 0.819070 -0.130615
C44   C     C_3   0.799219 0.530376 0.207009 -0.137367
C45   C     C_R   0.994688 0.446136 0.039030 -0.007673
C46   C     C_3   0.306241 0.289897 0.943634 -0.143034
C47   C     C_3   0.228968 0.653484 0.250814 -0.111245
C48   C     C_R   0.922577 0.430690 0.102163 -0.085370
C49   C     C_R   0.809802 0.440494 0.073730 0.250564
C50   C     C_R   0.992855 0.436170 0.868364 -0.149640
C51   C     C_R   0.102278 0.421881 0.897959 -0.116249
Cu1   Cu    Cu3+1 0.416420 0.526630 0.522910 0.946354
Cu2   Cu    Cu3+1 0.583580 0.473370 0.477090 0.902427
H1    H     H_    0.326243 0.102379 0.370747 0.119356
H2    H     H_    0.074468 0.724167 0.691851 0.109947
H3    H     H_    0.293500 0.758594 0.722227 0.095060
H4    H     H_    0.128988 0.431996 0.440605 0.137241
H5    H     H_    0.549846 0.293956 0.325587 0.124022
H6    H     H_    0.923408 0.335213 0.360348 0.106397
H7    H     H_    0.687744 0.232070 0.274014 0.121304
H8    H     H_    0.847123 0.620115 0.602763 0.183374
H9    H     H_    0.439199 0.432268 0.154976 0.148507
H10   H     H_    0.137602 0.406754 0.840916 0.159886
H11   H     H_    0.600296 0.469872 0.000488 0.185886
H12   H     H_    0.925959 0.765323 0.307494 0.087248
H13   H     H_    0.518269 0.504333 0.834956 0.160444
H14   H     H_    0.836593 0.511062 0.768559 0.122520
H15   H     H_    0.949620 0.406615 0.173038 0.179366
H16   H     H_    0.948405 0.428492 0.788790 0.112404
H17   H     H_    0.799848 0.600714 0.167807 0.102707
H18   H     H_    0.900099 0.555415 0.258149 0.135501
H19   H     H_    0.739882 0.520330 0.254069 0.154425
H20   H     H_    0.199514 0.227776 0.918506 0.116570
H21   H     H_    0.361344 0.272502 0.012140 0.126981
H22   H     H_    0.339018 0.274853 0.882749 0.143802
H23   H     H_    0.142824 0.903807 0.316367 0.096285
H24   H     H_    0.185410 0.671645 0.177897 0.108274
H25   H     H_    0.337019 0.694601 0.273380 0.123695
H26   H     H_    0.209338 0.694013 0.308947 0.135212
H27   H     H_    0.161124 0.197962 0.558177 0.117485
H28   H     H_    0.658202 0.895108 0.609951 0.127768
H29   H     H_    0.992618 0.163665 0.582087 0.102658
H30   H     H_    0.817441 0.100309 0.643451 0.119754
H31   H     H_    0.743634 0.711375 0.359451 0.142834
H32   H     H_    0.442376 0.706681 0.678340 0.119559
N1    N     N_R   0.290690 0.566960 0.557640 -0.233970
N2    N     N_R   0.709100 0.433710 0.442970 -0.241685
O1    O     O_R   0.545970 0.684450 0.528810 -0.506219
O2    O     O_3   0.332615 0.405758 0.959913 -0.587784
O3    O     O_3   0.171734 0.533276 0.246195 -0.574302
O4    O     O_R   0.687130 0.639470 0.490120 -0.528645
O5    O     O_R   0.519670 0.535100 0.660030 -0.503183
O6    O     O_R   0.660830 0.490120 0.621340 -0.519691
O7    O     O_R   0.312870 0.360530 0.509880 -0.512073
O8    O     O_R   0.454030 0.315550 0.471190 -0.503642
O9    O     O_R   0.339170 0.509880 0.378660 -0.439162
O10   O     O_R   0.480330 0.464900 0.339970 -0.529331
O11   O     O_3   0.741962 0.424192 0.137755 -0.587592

loop_
_geom_bond_atom_site_label_1
_geom_bond_atom_site_label_2
_ccdc_geom_bond_type
C28   O10   A    
Cu2   O8    S    
C41   C42   A    
C19   C20   A    
C25   H3    S    
C47   H26   S    
Cu1   O9    S    
C22   H1    S    
C46   O2    S    
C12   C23   A    
C26   C27   A    
C38   N1    A    
C9    C16   S    
C12   C43   A    
C3    C7    A    
C27   H7    S    
C30   C31   A    
C9    C22   A    
C23   C49   A    
C27   C29   A    
C28   C40   S    
C8    H23   S    
C44   H18   S    
C18   C19   A    
C49   O11   S    
C44   H19   S    
C44   O11   S    
C29   H6    S    
C26   N2    A    
Cu2   O4    S    
C8    C22   A    
C7    C40   A    
Cu1   O7    S    
C1    O1    A    
C1    O4    A    
C13   C14   A    
C14   C17   A    
C46   H22   S    
C50   C51   A    
C39   C42   A    
C15   C20   A    
C34   C50   A    
C31   N2    A    
C38   H32   S    
C35   H2    S    
C37   N1    A    
Cu1   O1    S    
C51   H10   S    
C10   C11   A    
C39   C43   A    
Cu2   O10   S    
C7    O3    S    
Cu2   O6    S    
C13   H29   S    
C3    C45   A    
C8    C18   A    
C35   C36   A    
C29   C30   A    
C25   C38   A    
C4    C39   S    
C17   C18   A    
Cu2   N2    S    
C34   C45   A    
C32   C37   A    
C48   H15   S    
C44   H17   S    
C26   H5    S    
C15   C24   A    
C20   H31   S    
C47   H25   S    
C47   O3    S    
C6    C40   A    
Cu1   O5    S    
C2    C5    A    
C47   H24   S    
C12   C34   A    
C36   H8    S    
C46   H21   S    
Cu1   Cu2   S    
C45   C48   A    
C48   C49   A    
C16   O8    A    
C14   C15   A    
C50   H16   S    
C10   H28   S    
C16   O7    A    
C23   C41   A    
C28   O9    A    
C10   C24   A    
C32   C33   A    
C6    H9    S    
Cu1   N1    S    
C2    C3    A    
C30   C32   A    
C11   C13   A    
C9    C21   A    
C5    C6    A    
C21   H27   S    
C33   C35   A    
C19   H12   S    
C37   H4    S    
C2    C51   A    
C4    O6    A    
C11   H30   S    
C1    C24   S    
C43   H14   S    
C42   H13   S    
C31   C36   A    
C41   H11   S    
C46   H20   S    
C5    O2    S    
C25   C33   A    
C4    O5    A    
C17   C21   A    
