data_mof_unit_50631.cif
_audit_creation_date              2012-12-10T20:19:42-0500
_audit_creation_method            fapswitch 2.2
_symmetry_space_group_name_H-M    P1
_symmetry_Int_Tables_number       1
_space_group_crystal_system       triclinic
_cell_length_a                    27.284556
_cell_length_b                    27.30196
_cell_length_c                    18.401565
_cell_angle_alpha                 89.991205
_cell_angle_beta                  90.005172
_cell_angle_gamma                 90.080852
_cell_volume                      13707.7140977

loop_
_atom_site_label
_atom_site_type_symbol
_atom_type_description
_atom_site_fract_x
_atom_site_fract_y
_atom_site_fract_z
_atom_type_partial_charge
C1    C     C_R   0.067088 0.432718 0.500007 0.889444
C2    C     C_R   0.932824 0.567312 0.499995 0.889405
C3    C     C_R   0.932828 0.432703 0.500016 0.888887
C4    C     C_R   0.067165 0.567303 0.500016 0.888905
C5    C     C_R   0.567204 0.932713 0.500006 0.889719
C6    C     C_R   0.432838 0.067203 0.499992 0.889648
C7    C     C_R   0.432950 0.932580 0.500014 0.889414
C8    C     C_R   0.567044 0.067426 0.500008 0.889435
C9    C     C_R   0.202830 0.761984 0.495169 -0.196242
C10   C     C_R   0.797010 0.238168 0.494997 -0.196110
C11   C     C_R   0.734945 0.301718 0.506845 -0.195134
C12   C     C_R   0.264910 0.698433 0.506880 -0.195170
C13   C     C_R   0.736857 0.700774 0.498394 -0.196759
C14   C     C_R   0.262300 0.298394 0.499941 -0.217580
C15   C     C_R   0.199472 0.235047 0.499764 -0.217530
C16   C     C_R   0.799778 0.764088 0.501600 -0.197132
C17   C     C_R   0.698580 0.266298 0.506389 -0.203697
C18   C     C_R   0.301269 0.733858 0.506437 -0.203625
C19   C     C_R   0.239146 0.797409 0.495280 -0.202492
C20   C     C_R   0.760690 0.202749 0.495091 -0.202555
C21   C     C_R   0.235497 0.199387 0.498922 -0.217345
C22   C     C_R   0.763791 0.799795 0.501592 -0.201526
C23   C     C_R   0.700873 0.736478 0.498435 -0.201689
C24   C     C_R   0.298310 0.262740 0.500503 -0.217813
C25   C     C_R   0.783940 0.287439 0.500987 0.111549
C26   C     C_R   0.215911 0.712710 0.501079 0.111617
C27   C     C_R   0.212980 0.284455 0.499953 0.143386
C28   C     C_R   0.786121 0.714763 0.499989 0.115786
C29   C     C_R   0.288176 0.783162 0.500711 0.121412
C30   C     C_R   0.711664 0.216996 0.500588 0.121510
C31   C     C_R   0.714516 0.785812 0.500027 0.121223
C32   C     C_R   0.284817 0.213335 0.499667 0.143396
C33   C     C_R   0.999991 0.500007 0.077268 0.237208
C34   C     C_R   0.999970 0.500026 0.922871 0.233115
C35   C     C_R   0.500006 0.000002 0.077180 0.235617
C36   C     C_R   0.500018 0.999985 0.922807 0.235178
C37   C     C_R   0.009814 0.542213 0.725758 -0.150894
C38   C     C_R   0.991800 0.457438 0.274224 -0.148999
C39   C     C_R   0.990153 0.457803 0.725794 -0.147673
C40   C     C_R   0.008205 0.542561 0.274207 -0.149193
C41   C     C_R   0.513628 0.041138 0.725812 -0.148835
C42   C     C_R   0.486552 0.958800 0.274174 -0.148503
C43   C     C_R   0.486392 0.958851 0.725817 -0.152573
C44   C     C_R   0.513446 0.041203 0.274166 -0.149269
C45   C     C_R   0.011529 0.543114 0.802516 0.344118
C46   C     C_R   0.990197 0.456496 0.197472 0.343751
C47   C     C_R   0.988406 0.456927 0.802545 0.343655
C48   C     C_R   0.009808 0.543503 0.197460 0.343460
C49   C     C_R   0.515533 0.041819 0.802558 0.344085
C50   C     C_R   0.484690 0.958117 0.197462 0.343867
C51   C     C_R   0.484506 0.958153 0.802567 0.344454
C52   C     C_R   0.515312 0.041890 0.197452 0.344200
C53   C     C_R   0.125881 0.620009 0.434578 -0.241052
C54   C     C_R   0.879637 0.374769 0.565990 -0.238765
C55   C     C_R   0.874047 0.380092 0.434555 -0.242272
C56   C     C_R   0.120296 0.625269 0.566015 -0.240046
C57   C     C_R   0.876711 0.622499 0.565919 -0.236352
C58   C     C_R   0.113760 0.368659 0.436427 -0.237704
C59   C     C_R   0.129904 0.384477 0.563790 -0.236847
C60   C     C_R   0.878256 0.624054 0.434072 -0.236256
C61   C     C_R   0.620725 0.125077 0.434216 -0.241542
C62   C     C_R   0.378321 0.876090 0.566182 -0.241363
C63   C     C_R   0.379167 0.875009 0.434260 -0.240185
C64   C     C_R   0.621636 0.123970 0.566137 -0.240016
C65   C     C_R   0.385507 0.130801 0.436454 -0.237400
C66   C     C_R   0.622187 0.876383 0.434092 -0.235918
C67   C     C_R   0.623452 0.877638 0.565953 -0.236307
C68   C     C_R   0.368759 0.113969 0.563362 -0.236651
C69   C     C_R   0.162725 0.655244 0.434014 0.104288
C70   C     C_R   0.843287 0.339051 0.567156 0.104120
C71   C     C_R   0.837157 0.344906 0.433968 0.104432
C72   C     C_R   0.156598 0.661032 0.567205 0.104241
C73   C     C_R   0.840607 0.658420 0.566814 0.100631
C74   C     C_R   0.149056 0.331946 0.435513 0.096183
C75   C     C_R   0.165718 0.348276 0.564852 0.096430
C76   C     C_R   0.842621 0.660443 0.433184 0.099962
C77   C     C_R   0.655990 0.161880 0.433469 0.104114
C78   C     C_R   0.343389 0.838993 0.567305 0.102612
C79   C     C_R   0.343845 0.838261 0.433543 0.103954
C80   C     C_R   0.656515 0.161119 0.567230 0.102459
C81   C     C_R   0.349468 0.166784 0.435358 0.095997
C82   C     C_R   0.658028 0.840199 0.433205 0.099000
C83   C     C_R   0.659746 0.841906 0.566850 0.099726
C84   C     C_R   0.332183 0.149404 0.564222 0.096609
C85   C     C_R   0.177962 0.675785 0.500780 0.031581
C86   C     C_R   0.821901 0.324352 0.500721 0.031555
C87   C     C_R   0.823676 0.677441 0.499999 0.033045
C88   C     C_R   0.175332 0.321880 0.500172 0.037452
C89   C     C_R   0.673879 0.179846 0.500436 0.032494
C90   C     C_R   0.325965 0.820306 0.500526 0.032491
C91   C     C_R   0.322573 0.176019 0.499725 0.037469
C92   C     C_R   0.676915 0.823121 0.500028 0.033595
C93   C     C_R   0.958665 0.483945 0.961981 -0.149081
C94   C     C_R   0.041260 0.516176 0.038222 -0.151476
C95   C     C_R   0.041283 0.516102 0.961966 -0.149180
C96   C     C_R   0.958711 0.483849 0.038236 -0.151562
C97   C     C_R   0.457157 0.988681 0.961860 -0.149808
C98   C     C_R   0.542870 0.011290 0.038127 -0.151378
C99   C     C_R   0.542874 0.011296 0.961876 -0.149834
C100  C     C_R   0.457149 0.988706 0.038111 -0.151264
C101  C     C_R   0.999966 0.500023 0.841463 -0.096036
C102  C     C_R   1.000000 0.500001 0.158593 -0.096554
C103  C     C_R   0.500020 0.999985 0.841455 -0.096387
C104  C     C_R   0.500002 0.000004 0.158523 -0.097899
C105  C     C_R   0.104923 0.604825 0.500162 -0.092188
C106  C     C_R   0.895033 0.395218 0.500149 -0.092127
C107  C     C_R   0.895368 0.605156 0.499992 -0.098853
C108  C     C_R   0.104215 0.394762 0.500041 -0.093896
C109  C     C_R   0.603800 0.105939 0.500097 -0.090401
C110  C     C_R   0.396154 0.894106 0.500126 -0.090404
C111  C     C_R   0.395162 0.104607 0.499957 -0.093630
C112  C     C_R   0.604819 0.895019 0.500018 -0.098477
H1    H     H_    0.015981 0.575257 0.694727 0.141281
H2    H     H_    0.986858 0.424165 0.305214 0.140565
H3    H     H_    0.983976 0.424750 0.694802 0.142580
H4    H     H_    0.013155 0.575834 0.305177 0.142086
H5    H     H_    0.522736 0.073538 0.694897 0.144114
H6    H     H_    0.477534 0.926331 0.305009 0.143221
H7    H     H_    0.477293 0.926455 0.694900 0.143231
H8    H     H_    0.522457 0.073671 0.304995 0.142107
H9    H     H_    0.113954 0.604137 0.383530 0.153384
H10   H     H_    0.896002 0.386416 0.616844 0.149836
H11   H     H_    0.885987 0.395972 0.383516 0.153145
H12   H     H_    0.103950 0.613580 0.616863 0.149726
H13   H     H_    0.890060 0.607984 0.617050 0.166110
H14   H     H_    0.093557 0.376864 0.387183 0.161849
H15   H     H_    0.122094 0.404835 0.613011 0.162765
H16   H     H_    0.892693 0.610635 0.382941 0.166002
H17   H     H_    0.606547 0.111397 0.383041 0.148120
H18   H     H_    0.391503 0.890890 0.617260 0.149095
H19   H     H_    0.393336 0.888683 0.383073 0.148360
H20   H     H_    0.608499 0.109141 0.617225 0.149213
H21   H     H_    0.406208 0.123231 0.387452 0.162129
H22   H     H_    0.607853 0.889926 0.382961 0.165932
H23   H     H_    0.609865 0.891922 0.617078 0.165813
H24   H     H_    0.376575 0.093454 0.612449 0.162216
H25   H     H_    0.164735 0.772712 0.490721 0.130468
H26   H     H_    0.835101 0.227438 0.490508 0.130431
H27   H     H_    0.725159 0.340039 0.511344 0.130489
H28   H     H_    0.274705 0.660110 0.511315 0.130443
H29   H     H_    0.726563 0.662445 0.497323 0.129445
H30   H     H_    0.272625 0.336727 0.499832 0.130182
H31   H     H_    0.161210 0.224388 0.500025 0.129346
H32   H     H_    0.838060 0.774639 0.502660 0.129178
H33   H     H_    0.660485 0.277016 0.510827 0.128876
H34   H     H_    0.339368 0.723140 0.510817 0.128876
H35   H     H_    0.229319 0.835725 0.490811 0.129409
H36   H     H_    0.770511 0.164435 0.490570 0.129398
H37   H     H_    0.225187 0.161057 0.498032 0.129442
H38   H     H_    0.774082 0.838121 0.502981 0.128594
H39   H     H_    0.662596 0.725923 0.497047 0.128972
H40   H     H_    0.336567 0.273408 0.501349 0.130104
H41   H     H_    0.926094 0.471946 0.933434 0.138934
H42   H     H_    0.073751 0.528337 0.066837 0.135935
H43   H     H_    0.073845 0.528113 0.933407 0.138925
H44   H     H_    0.926229 0.471680 0.066863 0.135871
H45   H     H_    0.423474 0.980369 0.933258 0.137715
H46   H     H_    0.576561 0.019564 0.066720 0.136621
H47   H     H_    0.576561 0.019599 0.933287 0.137746
H48   H     H_    0.423453 0.980439 0.066691 0.136700
N1    N     N_R   0.000000 0.500000 0.689440 -0.119532
N2    N     N_R   0.000000 0.500000 0.310560 -0.118924
N3    N     N_R   0.500000 0.000000 0.689440 -0.119436
N4    N     N_R   0.500000 0.000000 0.310560 -0.119246
O1    O     O_R   0.050900 0.449080 0.560840 -0.617472
O2    O     O_R   0.949100 0.550920 0.439160 -0.618575
O3    O     O_R   0.949100 0.550920 0.560840 -0.617953
O4    O     O_R   0.050900 0.449080 0.439160 -0.617394
O5    O     O_R   0.949100 0.449080 0.439160 -0.627270
O6    O     O_R   0.050900 0.550920 0.560840 -0.627545
O7    O     O_R   0.050900 0.550920 0.439160 -0.625914
O8    O     O_R   0.949100 0.449080 0.560840 -0.626427
O9    O     O_R   0.550900 0.949080 0.560840 -0.617005
O10   O     O_R   0.449100 0.050920 0.439160 -0.616024
O11   O     O_R   0.449100 0.050920 0.560840 -0.616368
O12   O     O_R   0.550900 0.949080 0.439160 -0.617123
O13   O     O_R   0.449100 0.949080 0.439160 -0.627294
O14   O     O_R   0.550900 0.050920 0.560840 -0.627901
O15   O     O_R   0.550900 0.050920 0.439160 -0.628615
O16   O     O_R   0.449100 0.949080 0.560840 -0.629101
Zn1   Zn    Zn3+2 0.000000 0.500000 0.581210 0.937715
Zn2   Zn    Zn3+2 0.000000 0.500000 0.418790 0.937960
Zn3   Zn    Zn3+2 0.500000 0.000000 0.581210 0.937993
Zn4   Zn    Zn3+2 0.500000 0.000000 0.418790 0.938829
O17   O     O_3   0.019555 0.586315 0.840581 -0.595227
C113  C     C_3   0.062981 0.609656 0.816746 0.091126
H49   H     H_    0.055714 0.631202 0.766635 0.135673
H50   H     H_    0.093109 0.582951 0.806307 0.123328
C114  C     C_3   0.080325 0.644905 0.875383 -0.814462
H51   H     H_    0.088615 0.624490 0.926113 0.246675
H52   H     H_    0.113997 0.664106 0.856984 0.197370
H53   H     H_    0.051467 0.672515 0.886737 0.262914
O18   O     O_3   0.984019 0.413038 0.159362 -0.594936
C115  C     C_3   0.941029 0.388467 0.182118 0.092181
H54   H     H_    0.909952 0.414270 0.191362 0.121689
H55   H     H_    0.948270 0.367384 0.232661 0.134215
C116  C     C_3   0.925623 0.352481 0.123284 -0.813824
H56   H     H_    0.955318 0.325491 0.113513 0.262290
H57   H     H_    0.892071 0.332612 0.140512 0.205607
H58   H     H_    0.917828 0.372412 0.071957 0.248943
O19   O     O_3   0.980335 0.413737 0.840623 -0.594913
C117  C     C_3   0.936767 0.390571 0.816976 0.091478
H59   H     H_    0.943818 0.369082 0.766756 0.136340
H60   H     H_    0.906699 0.417391 0.806794 0.123226
C118  C     C_3   0.919472 0.355289 0.875612 -0.814183
H61   H     H_    0.911405 0.375650 0.926457 0.246657
H62   H     H_    0.885677 0.336238 0.857366 0.197387
H63   H     H_    0.948264 0.327558 0.886700 0.262994
O20   O     O_3   0.015997 0.586965 0.159351 -0.594780
C119  C     C_3   0.059093 0.611416 0.181948 0.092753
H64   H     H_    0.090138 0.585535 0.190956 0.121868
H65   H     H_    0.052027 0.632438 0.232591 0.134803
C120  C     C_3   0.074426 0.647457 0.123135 -0.813547
H66   H     H_    0.044770 0.674533 0.113613 0.262458
H67   H     H_    0.108072 0.667220 0.140231 0.205466
H68   H     H_    0.082035 0.627589 0.071703 0.248961
O21   O     O_3   0.527723 0.084017 0.840684 -0.594366
C121  C     C_3   0.573111 0.103152 0.816649 0.091525
H69   H     H_    0.567784 0.125445 0.766717 0.135660
H70   H     H_    0.600492 0.073706 0.805822 0.122999
C122  C     C_3   0.593972 0.136394 0.875346 -0.813941
H71   H     H_    0.600329 0.115132 0.925926 0.247093
H72   H     H_    0.629327 0.152231 0.856839 0.196934
H73   H     H_    0.568003 0.166683 0.886992 0.263352
O22   O     O_3   0.472654 0.915814 0.159570 -0.594370
C123  C     C_3   0.426289 0.898002 0.181650 0.090525
H74   H     H_    0.399275 0.928191 0.189640 0.120732
H75   H     H_    0.429760 0.876560 0.232762 0.137354
C124  C     C_3   0.406298 0.864140 0.123069 -0.810526
H76   H     H_    0.431279 0.832471 0.115452 0.262731
H77   H     H_    0.369570 0.850402 0.139215 0.195558
H78   H     H_    0.402898 0.884281 0.070874 0.249584
O23   O     O_3   0.472343 0.915948 0.840715 -0.594705
C125  C     C_3   0.427031 0.896697 0.816564 0.091323
H79   H     H_    0.432485 0.874359 0.766719 0.135189
H80   H     H_    0.399608 0.926077 0.805549 0.122974
C126  C     C_3   0.406143 0.863479 0.875279 -0.814236
H81   H     H_    0.399654 0.884785 0.925769 0.247126
H82   H     H_    0.370854 0.847543 0.856679 0.196928
H83   H     H_    0.432158 0.833260 0.887119 0.263267
O24   O     O_3   0.527354 0.084193 0.159543 -0.594474
C127  C     C_3   0.573688 0.102046 0.181702 0.090010
H84   H     H_    0.600712 0.071877 0.189812 0.120365
H85   H     H_    0.570153 0.123517 0.232766 0.137031
C128  C     C_3   0.593717 0.135883 0.123109 -0.810630
H86   H     H_    0.568725 0.167534 0.115375 0.262577
H87   H     H_    0.630421 0.149651 0.139319 0.195525
H88   H     H_    0.597179 0.115712 0.070958 0.249610
C129  C     C_3   0.184758 0.669943 0.361516 -0.430181
C130  C     C_3   0.151010 0.705656 0.321312 -0.330933
C131  C     C_3   0.174387 0.723290 0.250665 -0.901546
H89   H     H_    0.208511 0.744086 0.262368 0.262432
H90   H     H_    0.183192 0.691659 0.215055 0.258343
H91   H     H_    0.148505 0.747743 0.221538 0.250234
H92   H     H_    0.115627 0.687326 0.308572 0.211281
H93   H     H_    0.143403 0.737952 0.356309 0.224135
H94   H     H_    0.221477 0.686883 0.368273 0.217300
H95   H     H_    0.190451 0.636634 0.327765 0.191245
C132  C     C_3   0.828040 0.317936 0.639996 -0.431391
C133  C     C_3   0.792854 0.352726 0.679238 -0.331515
C134  C     C_3   0.774948 0.330670 0.750653 -0.894594
H96   H     H_    0.754174 0.296369 0.740195 0.261248
H97   H     H_    0.806455 0.322590 0.786897 0.257710
H98   H     H_    0.750362 0.357056 0.778483 0.249280
H99   H     H_    0.811731 0.387992 0.690823 0.215224
H100  H     H_    0.760610 0.360306 0.644074 0.223666
H101  H     H_    0.810433 0.281500 0.633809 0.217138
H102  H     H_    0.861173 0.311948 0.674092 0.189807
C135  C     C_3   0.815099 0.330269 0.361461 -0.429941
C136  C     C_3   0.848807 0.294547 0.321225 -0.331185
C137  C     C_3   0.825394 0.276963 0.250579 -0.901799
H103  H     H_    0.791248 0.256202 0.262284 0.262475
H104  H     H_    0.816618 0.308616 0.214979 0.258379
H105  H     H_    0.851241 0.252489 0.221440 0.250080
H106  H     H_    0.884201 0.312852 0.308480 0.210953
H107  H     H_    0.856398 0.262228 0.356201 0.224031
H108  H     H_    0.778365 0.313362 0.368210 0.217266
H109  H     H_    0.809434 0.363603 0.327737 0.190952
C138  C     C_3   0.171828 0.682127 0.640059 -0.431180
C139  C     C_3   0.207086 0.647374 0.679256 -0.331741
C140  C     C_3   0.224962 0.669408 0.750697 -0.894750
H110  H     H_    0.245654 0.703766 0.740283 0.261271
H111  H     H_    0.193446 0.677384 0.786964 0.257723
H112  H     H_    0.249615 0.643055 0.778480 0.249136
H113  H     H_    0.188277 0.612064 0.690800 0.214873
H114  H     H_    0.239339 0.639881 0.644080 0.223575
H115  H     H_    0.189369 0.718598 0.633897 0.217062
H116  H     H_    0.138695 0.688036 0.674174 0.189548
C141  C     C_3   0.821390 0.675790 0.639702 -0.428796
C142  C     C_3   0.855479 0.714658 0.672288 -0.330608
C143  C     C_3   0.835372 0.734113 0.744038 -0.878282
H117  H     H_    0.799255 0.751895 0.735282 0.257678
H118  H     H_    0.831216 0.703804 0.783853 0.264584
H119  H     H_    0.861105 0.761680 0.766762 0.249149
H120  H     H_    0.892316 0.698556 0.681960 0.222651
H121  H     H_    0.859533 0.745754 0.633773 0.221309
H122  H     H_    0.783753 0.690834 0.634863 0.214573
H123  H     H_    0.818606 0.644108 0.677508 0.195897
C144  C     C_3   0.157912 0.305046 0.364568 -0.423784
C145  C     C_3   0.203123 0.325088 0.324979 -0.324488
C146  C     C_3   0.206588 0.304352 0.248168 -0.893397
H124  H     H_    0.206307 0.263701 0.249690 0.268963
H125  H     H_    0.175191 0.317223 0.214849 0.265821
H126  H     H_    0.241123 0.316941 0.222235 0.247657
H127  H     H_    0.201043 0.365698 0.321531 0.223264
H128  H     H_    0.236862 0.315119 0.355209 0.230800
H129  H     H_    0.161841 0.265118 0.373943 0.200994
H130  H     H_    0.125416 0.309131 0.328524 0.201192
C147  C     C_3   0.192249 0.338685 0.635930 -0.425183
C148  C     C_3   0.171620 0.293399 0.674623 -0.323540
C149  C     C_3   0.191557 0.289502 0.751871 -0.892218
H131  H     H_    0.232240 0.289968 0.751345 0.268066
H132  H     H_    0.178192 0.320611 0.785307 0.264807
H133  H     H_    0.178827 0.254770 0.777014 0.248523
H134  H     H_    0.130960 0.295601 0.677170 0.224661
H135  H     H_    0.181788 0.259788 0.644292 0.230011
H136  H     H_    0.232206 0.334460 0.626880 0.201209
H137  H     H_    0.188294 0.370921 0.672460 0.199517
C150  C     C_3   0.825393 0.679814 0.360302 -0.427016
C151  C     C_3   0.786529 0.645853 0.327389 -0.331332
C152  C     C_3   0.767176 0.666143 0.255680 -0.881981
H138  H     H_    0.749325 0.702187 0.264590 0.259163
H139  H     H_    0.797572 0.670452 0.216025 0.264790
H140  H     H_    0.739658 0.640469 0.232673 0.248157
H141  H     H_    0.802635 0.609057 0.317574 0.220591
H142  H     H_    0.755354 0.641716 0.365770 0.222087
H143  H     H_    0.810354 0.717427 0.365233 0.214496
H144  H     H_    0.857178 0.682649 0.322669 0.197567
C153  C     C_3   0.673133 0.181504 0.360664 -0.432393
C154  C     C_3   0.639518 0.222819 0.334534 -0.329222
C155  C     C_3   0.658468 0.245447 0.264112 -0.889920
H145  H     H_    0.695106 0.262207 0.273008 0.260583
H146  H     H_    0.661210 0.217146 0.220995 0.259165
H147  H     H_    0.632820 0.274429 0.245643 0.249842
H148  H     H_    0.602008 0.208131 0.325189 0.216035
H149  H     H_    0.637328 0.251940 0.376584 0.224150
H150  H     H_    0.711537 0.194811 0.363695 0.215211
H151  H     H_    0.673094 0.151484 0.319773 0.187827
C156  C     C_3   0.324889 0.821100 0.640364 -0.430054
C157  C     C_3   0.284262 0.854649 0.668960 -0.330248
C158  C     C_3   0.263381 0.835522 0.740455 -0.894552
H152  H     H_    0.246657 0.798806 0.732381 0.261657
H153  H     H_    0.292705 0.832982 0.782127 0.257629
H154  H     H_    0.234646 0.860946 0.760388 0.248619
H155  H     H_    0.299155 0.892113 0.677762 0.215212
H156  H     H_    0.254120 0.856930 0.628475 0.224709
H157  H     H_    0.311113 0.782905 0.636950 0.215353
H158  H     H_    0.355729 0.820390 0.679919 0.188996
C159  C     C_3   0.326633 0.818681 0.360751 -0.432621
C160  C     C_3   0.360252 0.777417 0.334486 -0.329020
C161  C     C_3   0.341229 0.754821 0.264089 -0.889706
H159  H     H_    0.304625 0.738008 0.273070 0.260544
H160  H     H_    0.338387 0.783153 0.221016 0.259119
H161  H     H_    0.366886 0.725886 0.245508 0.250012
H162  H     H_    0.397735 0.792146 0.325057 0.216466
H163  H     H_    0.362523 0.748269 0.376499 0.224201
H164  H     H_    0.288245 0.805334 0.363847 0.215312
H165  H     H_    0.326595 0.848740 0.319908 0.188040
C162  C     C_3   0.675029 0.179022 0.640273 -0.430222
C163  C     C_3   0.715713 0.145520 0.668838 -0.330051
C164  C     C_3   0.736614 0.164669 0.740304 -0.894280
H166  H     H_    0.753299 0.201401 0.732193 0.261624
H167  H     H_    0.707310 0.167184 0.782002 0.257623
H168  H     H_    0.765385 0.139274 0.760223 0.248770
H169  H     H_    0.700868 0.108039 0.677670 0.215650
H170  H     H_    0.745833 0.143275 0.628323 0.224797
H171  H     H_    0.688753 0.217234 0.636846 0.215402
H172  H     H_    0.644207 0.179685 0.679853 0.189207
C165  C     C_3   0.340553 0.193869 0.364562 -0.423224
C166  C     C_3   0.295653 0.173540 0.324512 -0.325317
C167  C     C_3   0.292260 0.194452 0.247789 -0.894509
H173  H     H_    0.292272 0.235098 0.249522 0.269386
H174  H     H_    0.323835 0.181876 0.214605 0.265043
H175  H     H_    0.257880 0.181707 0.221569 0.247586
H176  H     H_    0.298100 0.132959 0.320857 0.222800
H177  H     H_    0.261725 0.183130 0.354531 0.230759
H178  H     H_    0.336201 0.233718 0.374242 0.201209
H179  H     H_    0.373178 0.190242 0.328678 0.201295
C168  C     C_3   0.675726 0.821264 0.360341 -0.425952
C169  C     C_3   0.716512 0.854079 0.330095 -0.330970
C170  C     C_3   0.736374 0.834027 0.258560 -0.883962
H180  H     H_    0.752598 0.797173 0.267043 0.259855
H181  H     H_    0.706587 0.831502 0.217569 0.264045
H182  H     H_    0.765314 0.858883 0.237488 0.247845
H183  H     H_    0.702037 0.891615 0.320831 0.219740
H184  H     H_    0.747115 0.856464 0.369773 0.223064
H185  H     H_    0.689010 0.782963 0.364660 0.213649
H186  H     H_    0.644599 0.820341 0.321309 0.197112
C171  C     C_3   0.678776 0.824283 0.639713 -0.428764
C172  C     C_3   0.646241 0.783236 0.669819 -0.328692
C173  C     C_3   0.666428 0.763464 0.741341 -0.879632
H187  H     H_    0.703462 0.747600 0.732898 0.258257
H188  H     H_    0.668650 0.793194 0.782420 0.263983
H189  H     H_    0.641800 0.734290 0.762279 0.249259
H190  H     H_    0.608566 0.797402 0.679056 0.222537
H191  H     H_    0.644111 0.752680 0.630076 0.222463
H192  H     H_    0.717212 0.811322 0.635427 0.213474
H193  H     H_    0.679431 0.855345 0.678826 0.194949
C174  C     C_3   0.304876 0.157983 0.634922 -0.425984
C175  C     C_3   0.324581 0.203126 0.674991 -0.322244
C176  C     C_3   0.303709 0.206123 0.751775 -0.893733
H194  H     H_    0.263041 0.205365 0.750165 0.268131
H195  H     H_    0.316917 0.174796 0.784915 0.263882
H196  H     H_    0.315877 0.240701 0.777962 0.248914
H197  H     H_    0.365226 0.201312 0.678543 0.224924
H198  H     H_    0.314415 0.236902 0.645045 0.230318
H199  H     H_    0.264958 0.161806 0.625127 0.201120
H200  H     H_    0.308883 0.125433 0.670837 0.198701

loop_
_geom_bond_atom_site_label_1
_geom_bond_atom_site_label_2
_ccdc_geom_bond_type
C173  H189  S    
C115  H55   S    
C22   H38   S    
C4    O7    A    
C143  H117  S    
C53   C69   A    
C148  H135  S    
C146  H124  S    
C140  H112  S    
C156  H158  S    
C77   C89   A    
O11   Zn3   S    
C16   H32   S    
C172  H191  S    
C163  H169  S    
C38   H2    S    
C115  C116  S    
C137  H103  S    
C7    O13   A    
C162  H171  S    
C116  H57   S    
C139  H113  S    
C79   C90   A    
C9    C19   A    
C11   C17   A    
C10   C20   A    
C56   C72   A    
C127  H85   S    
C36   C97   A    
C84   C91   A    
C151  H142  S    
C69   C129  S    
C118  H62   S    
C128  H86   S    
C17   C30   A    
C125  H80   S    
C30   C89   S    
C41   C49   A    
C9    C26   A    
C120  H67   S    
C164  H168  S    
C55   H11   S    
C127  C128  S    
C154  C155  S    
N3    Zn3   S    
C33   C102  S    
C60   H16   S    
C157  C158  S    
C35   C104  S    
O10   Zn4   S    
C3    O5    A    
C6    O10   A    
C38   N2    A    
C60   C76   A    
C49   O21   S    
C125  C126  S    
C23   C31   A    
C24   C32   A    
C40   N2    A    
C175  H197  S    
C66   C82   A    
C15   C27   A    
C54   C70   A    
C71   C135  S    
C60   C107  A    
C70   C132  S    
C39   H3    S    
C170  H180  S    
C5    O12   A    
C133  H100  S    
C145  C146  S    
C39   C47   A    
C146  H126  S    
O12   Zn4   S    
C159  H165  S    
C40   H4    S    
O13   Zn4   S    
C171  H192  S    
C51   O23   S    
C141  H122  S    
C93   H41   S    
C52   O24   S    
C45   O17   S    
C96   H44   S    
C171  C172  S    
C36   C99   A    
C160  C161  S    
O5    Zn2   S    
C67   C112  A    
O18   C115  S    
C128  H88   S    
C162  C163  S    
C10   H26   S    
C84   C174  S    
C113  H49   S    
C55   C71   A    
C169  C170  S    
C145  H127  S    
C14   H30   S    
C67   C83   A    
C159  C160  S    
C99   H47   S    
C6    C111  S    
C62   H18   S    
C161  H159  S    
O2    Zn2   S    
C129  H95   S    
C144  H129  S    
C33   C94   A    
C176  H194  S    
C161  H161  S    
C20   C30   A    
C129  C130  S    
C4    O6    A    
C142  H121  S    
C143  H118  S    
C124  H78   S    
C57   H13   S    
C134  H96   S    
C42   N4    A    
C11   C25   A    
C59   H15   S    
C174  C175  S    
C82   C168  S    
C13   C23   A    
O24   C127  S    
C14   C24   A    
C114  H52   S    
C132  H102  S    
C66   H22   S    
O8    Zn1   S    
C165  H179  S    
C61   C77   A    
C170  H182  S    
C20   H36   S    
C21   H37   S    
O23   C125  S    
C61   H17   S    
C167  H175  S    
C174  H199  S    
C126  H81   S    
C114  H51   S    
C153  H150  S    
C163  C164  S    
C141  C142  S    
C158  H153  S    
C130  H93   S    
C169  H184  S    
C98   H46   S    
C139  C140  S    
C81   C165  S    
C131  H91   S    
O21   C121  S    
C12   C26   A    
C138  H115  S    
C122  H71   S    
C71   C86   A    
C147  H137  S    
C121  H70   S    
C152  H140  S    
C28   C87   S    
O20   C119  S    
C135  H108  S    
C18   C29   A    
C76   C87   A    
C42   C50   A    
C15   H31   S    
C10   C25   A    
C150  H143  S    
C58   H14   S    
C13   H29   S    
C154  H148  S    
C149  H132  S    
C157  H155  S    
C35   C100  A    
C33   C96   A    
C166  C167  S    
C97   C100  A    
C69   C85   A    
C58   C74   A    
C121  C122  S    
O15   Zn4   S    
C173  H188  S    
C5    O9    A    
C136  H106  S    
C62   C78   A    
O14   Zn3   S    
C175  C176  S    
C134  H98   S    
C79   C159  S    
C5    C112  S    
C140  H111  S    
C119  C120  S    
C156  H157  S    
C119  H65   S    
C7    C110  S    
C133  C134  S    
C163  H170  S    
C64   C109  A    
C160  H162  S    
C26   C85   S    
C7    O16   A    
N1    Zn1   S    
C116  H56   S    
C155  H147  S    
C139  H114  S    
C38   C46   A    
C75   C147  S    
C53   C105  A    
C48   O20   S    
C123  H74   S    
C126  H83   S    
C73   C141  S    
C41   H5    S    
C43   H7    S    
C137  H105  S    
C50   C104  A    
C168  H186  S    
C176  H196  S    
C168  C169  S    
C76   C150  S    
C120  H66   S    
C78   C90   A    
C164  H167  S    
C117  H60   S    
C36   C103  S    
C56   H12   S    
C122  H73   S    
C3    O8    A    
C158  H154  S    
C37   H1    S    
C6    O11   A    
C44   H8    S    
C51   C103  A    
C167  H173  S    
C98   C99   A    
C82   C92   A    
C142  C143  S    
C153  C154  S    
C80   C89   A    
C11   H27   S    
C73   C87   A    
C175  H198  S    
C24   H40   S    
C9    H25   S    
C64   H20   S    
C117  C118  S    
C138  C139  S    
C12   H28   S    
C13   C28   A    
C63   H19   S    
C14   C27   A    
C35   C98   A    
C2    O2    A    
C166  H176  S    
C115  H54   S    
C135  C136  S    
C64   C80   A    
C29   C90   S    
C72   C85   A    
C148  H134  S    
C146  H125  S    
C3    C106  S    
C83   C171  S    
C34   C101  S    
C54   C106  A    
C55   C106  A    
C68   C84   A    
C34   C95   A    
C131  H89   S    
C117  H59   S    
C159  H164  S    
C172  H190  S    
C42   H6    S    
C1    O4    A    
C130  C131  S    
C118  H61   S    
C19   H35   S    
C162  H172  S    
C77   C153  S    
C116  H58   S    
C17   H33   S    
C155  H145  S    
C65   C81   A    
C156  C157  S    
C48   C102  A    
C127  H84   S    
C151  H141  S    
C45   C101  A    
O4    Zn2   S    
C128  H87   S    
C125  H79   S    
C113  H50   S    
C19   C29   A    
C37   N1    A    
C164  H166  S    
C120  H68   S    
C145  H128  S    
C148  C149  S    
C52   C104  A    
C16   C22   A    
C1    O1    A    
C129  H94   S    
C49   C103  A    
C161  H160  S    
C172  C173  S    
C152  H138  S    
C113  C114  S    
C124  H77   S    
C53   H9    S    
C151  C152  S    
C8    O15   A    
C43   C51   A    
O17   C113  S    
C58   C108  A    
C94   C95   A    
C56   C105  A    
C132  H101  S    
C80   C162  S    
C150  C151  S    
C81   C91   A    
C165  H178  S    
O9    Zn3   S    
C170  H181  S    
C136  C137  S    
C50   O22   S    
C44   N4    A    
C74   C88   A    
C133  H99   S    
C43   N3    A    
C16   C28   A    
C149  H131  S    
C47   C101  A    
O19   C117  S    
O7    Zn2   S    
C67   H23   S    
C34   C93   A    
C144  C145  S    
C61   C109  A    
C173  H187  S    
C63   C79   A    
C147  C148  S    
C83   C92   A    
C46   C102  A    
C171  H193  S    
C124  H76   S    
C141  H123  S    
N2    Zn2   S    
C144  H130  S    
C131  H90   S    
C32   C91   S    
C57   C73   A    
C2    C107  S    
C47   O19   S    
C40   C48   A    
C65   C111  A    
C147  H136  S    
C152  H139  S    
C135  H109  S    
C39   N1    A    
O16   Zn3   S    
C54   H10   S    
C154  H149  S    
C74   C144  S    
C157  H156  S    
C176  H195  S    
C21   C32   A    
C22   C31   A    
C142  H120  S    
C136  H107  S    
C68   H24   S    
C143  H119  S    
C134  H97   S    
C167  H174  S    
C140  H110  S    
C68   C111  A    
C97   H45   S    
C114  H53   S    
N4    Zn4   S    
C100  H48   S    
C62   C110  A    
C160  H163  S    
C94   H42   S    
O22   C123  S    
C155  H146  S    
C174  H200  S    
C57   C107  A    
C31   C92   S    
C93   C96   A    
C123  H75   S    
C126  H82   S    
O6    Zn1   S    
C132  C133  S    
C70   C86   A    
C59   C75   A    
C153  H151  S    
C46   O18   S    
C165  C166  S    
C118  H63   S    
C130  H92   S    
C137  H104  S    
C23   H39   S    
C168  H185  S    
C78   C156  S    
C18   H34   S    
C123  C124  S    
C4    C105  S    
C59   C108  A    
C72   C138  S    
O1    Zn1   S    
C138  H116  S    
C63   C110  A    
C41   N3    A    
C122  H72   S    
C8    C109  S    
C44   C52   A    
C121  H69   S    
O3    Zn1   S    
C25   C86   S    
C169  H183  S    
C95   H43   S    
C27   C88   S    
C166  H177  S    
C1    C108  S    
C8    O14   A    
C75   C88   A    
C15   C21   A    
C150  H144  S    
C119  H64   S    
C149  H133  S    
C12   C18   A    
C158  H152  S    
C66   C112  A    
C37   C45   A    
C2    O3    A    
C65   H21   S    
