data_mof_unit_61693.cif
_audit_creation_date              2012-12-10T17:19:56-0500
_audit_creation_method            fapswitch 2.2
_symmetry_space_group_name_H-M    P1
_symmetry_Int_Tables_number       1
_space_group_crystal_system       triclinic
_cell_length_a                    38.715057
_cell_length_b                    21.721342
_cell_length_c                    21.693813
_cell_angle_alpha                 89.999499
_cell_angle_beta                  124.233987
_cell_angle_gamma                 90.000232
_cell_volume                      15082.5606843

loop_
_atom_site_label
_atom_site_type_symbol
_atom_type_description
_atom_site_fract_x
_atom_site_fract_y
_atom_site_fract_z
_atom_type_partial_charge
C1    C     C_R   0.999849 0.999964 0.118517 0.843801
C2    C     C_3   0.774160 0.980958 0.844509 0.848877
C3    C     C_3   0.274518 0.562912 0.761398 -0.455454
C4    C     C_3   0.273795 0.064454 0.282256 -0.385662
C5    C     C_3   0.726205 0.064435 0.717597 -0.385676
C6    C     C_3   0.773795 0.564452 0.282268 -0.385671
C7    C     C_3   0.226205 0.564437 0.717632 -0.385682
C8    C     C_1   0.375107 0.999894 0.374730 -0.176661
C9    C     C_1   0.624892 0.999896 0.625271 -0.176665
C10   C     C_1   0.875107 0.499894 0.374729 -0.176664
C11   C     C_1   0.124893 0.499894 0.625271 -0.176664
C12   C     C_3   0.208563 0.997873 0.204509 0.186763
C13   C     C_3   0.725842 0.480822 0.155525 0.848863
C14   C     C_3   0.791437 0.997882 0.795491 0.186778
C15   C     C_3   0.708564 0.497875 0.204507 0.186770
C16   C     C_3   0.291437 0.497879 0.795495 0.186771
C17   C     C_3   0.274455 0.956555 0.324647 -0.386553
C18   C     C_3   0.725543 0.956443 0.675451 -0.386515
C19   C     C_3   0.774455 0.456546 0.324637 -0.386554
C20   C     C_3   0.225545 0.456467 0.675431 -0.386558
C21   C     C_3   0.291243 0.998727 0.289652 0.197555
C22   C     C_3   0.708757 0.998732 0.710352 0.197530
C23   C     C_3   0.791243 0.498728 0.289650 0.197560
C24   C     C_3   0.274159 0.480923 0.844503 0.848869
C25   C     C_3   0.208758 0.498729 0.710351 0.197548
C26   C     C_3   0.084585 0.909757 0.275984 0.055970
C27   C     C_3   0.120482 0.895457 0.268347 -0.760283
C28   C     C_3   0.915200 0.910044 0.723631 0.055964
C29   C     C_3   0.879396 0.895767 0.731536 -0.760431
C30   C     C_3   0.584606 0.409802 0.276005 0.055972
C31   C     C_3   0.620510 0.395520 0.268380 -0.760293
C32   C     C_3   0.415407 0.409805 0.724046 0.055944
C33   C     C_3   0.379471 0.395551 0.731590 -0.760264
C34   C     C_3   0.961502 0.824430 0.329342 0.100054
C35   C     C_1   0.337385 0.999460 0.336518 -0.060886
C36   C     C_3   0.930587 0.858492 0.257412 -0.764386
C37   C     C_3   0.038498 0.824437 0.670652 0.100117
C38   C     C_3   0.069421 0.858477 0.742596 -0.764409
C39   C     C_3   0.461426 0.324437 0.329320 0.100148
C40   C     C_3   0.430494 0.358521 0.257418 -0.764417
C41   C     C_3   0.538622 0.324392 0.670729 0.100166
C42   C     C_3   0.569549 0.358548 0.742575 -0.764474
C43   C     C_3   0.222989 0.902976 0.075172 0.017370
C44   C     C_3   0.188214 0.871130 0.004589 -0.801240
C45   C     C_3   0.777014 0.903291 0.925034 0.017366
C46   C     C_1   0.662615 0.999463 0.663485 -0.060889
C47   C     C_3   0.811790 0.871518 0.995680 -0.801265
C48   C     C_3   0.722989 0.403006 0.075150 0.017384
C49   C     C_3   0.688213 0.371169 0.004560 -0.801280
C50   C     C_3   0.277011 0.403222 0.924992 0.017375
C51   C     C_3   0.311787 0.371435 0.995627 -0.801275
C52   C     C_3   0.178386 0.031089 0.037648 0.084096
C53   C     C_3   0.159776 0.095442 0.022535 -0.840386
C54   C     C_3   0.821624 0.031378 0.962286 0.084073
C55   C     C_3   0.840242 0.095717 0.977260 -0.840349
C56   C     C_3   0.678387 0.531120 0.037654 0.084104
C57   C     C_1   0.837385 0.499460 0.336517 -0.060892
C58   C     C_3   0.659779 0.595473 0.022555 -0.840390
C59   C     C_3   0.321619 0.531316 0.962301 0.084084
C60   C     C_3   0.340234 0.595659 0.977306 -0.840353
C61   C     C_1   0.162615 0.499460 0.663483 -0.060887
C62   C     C_1   0.162413 0.999135 0.160544 -0.072044
C63   C     C_1   0.837587 0.999139 0.839452 -0.072076
C64   C     C_1   0.662413 0.499136 0.160542 -0.072045
C65   C     C_R   0.000154 0.999965 0.881486 0.843907
C66   C     C_1   0.337587 0.499137 0.839458 -0.072035
C67   C     C_1   0.124739 0.999792 0.124251 -0.175275
C68   C     C_1   0.875262 0.999793 0.875745 -0.175222
C69   C     C_1   0.624739 0.499793 0.124249 -0.175308
C70   C     C_1   0.375262 0.499793 0.875751 -0.175346
C71   C     C_R   0.963654 0.014512 0.180461 -0.269985
C72   C     C_R   0.036365 0.014414 0.819559 -0.270123
C73   C     C_R   0.463650 0.514487 0.180456 -0.270018
C74   C     C_R   0.536350 0.514478 0.819545 -0.269968
C75   C     C_R   0.963366 0.013739 0.244151 -0.178954
C76   C     C_R   0.499849 0.499964 0.118517 0.843819
C77   C     C_R   0.036651 0.013644 0.755868 -0.178942
C78   C     C_R   0.463361 0.513714 0.244146 -0.178938
C79   C     C_R   0.536639 0.513706 0.755855 -0.178966
C80   C     C_R   0.999944 0.999221 0.313346 -0.079899
C81   C     C_R   0.000055 0.999223 0.686655 -0.079816
C82   C     C_R   0.499944 0.499219 0.313346 -0.079903
C83   C     C_R   0.500055 0.499218 0.686654 -0.079933
C84   C     C_R   0.036679 0.984661 0.318056 -0.278001
C85   C     C_R   0.963303 0.984762 0.681929 -0.278234
C86   C     C_R   0.536683 0.484682 0.318060 -0.278004
C87   C     C_R   0.500149 0.499965 0.881481 0.843794
C88   C     C_R   0.463315 0.484690 0.681938 -0.277910
C89   C     C_R   0.036759 0.983322 0.253719 0.436445
C90   C     C_R   0.963221 0.983419 0.746267 0.436568
C91   C     C_R   0.536763 0.483343 0.253723 0.436440
C92   C     C_R   0.463234 0.483351 0.746273 0.436412
C93   C     C_R   0.079923 0.999983 0.080116 0.842525
C94   C     C_R   0.920077 0.999983 0.919882 0.842624
C95   C     C_R   0.579923 0.499983 0.080116 0.842564
C96   C     C_R   0.420077 0.499983 0.919884 0.842551
C97   C     C_R   0.000230 0.999687 0.185389 -0.076741
C98   C     C_3   0.274733 0.973563 0.210692 -0.443987
C99   C     C_R   0.999771 0.999689 0.814614 -0.076541
C100  C     C_R   0.500230 0.499686 0.185388 -0.076731
C101  C     C_R   0.499769 0.499687 0.814610 -0.076762
C102  C     C_R   0.500000 0.185853 0.499999 -0.241674
C103  C     C_R   1.000000 0.685855 0.499999 -0.241740
C104  C     C_R   0.500000 0.881221 0.500000 0.780268
C105  C     C_R   1.000000 0.381221 0.500000 0.780266
C106  C     C_R   0.420011 0.000202 0.419947 0.816970
C107  C     C_R   0.579988 0.000203 0.580053 0.816970
C108  C     C_R   0.920012 0.500202 0.419947 0.816977
C109  C     C_3   0.725268 0.973708 0.789368 -0.443985
C110  C     C_R   0.079988 0.500202 0.580053 0.816976
C111  C     C_R   0.500000 0.119018 0.499999 0.835034
C112  C     C_R   1.000000 0.619019 0.499999 0.835033
C113  C     C_R   1.000000 0.880855 0.499999 0.873258
C114  C     C_R   0.500000 0.380854 0.500002 0.873240
C115  C     C_R   0.999967 0.999735 0.380622 0.806189
C116  C     C_R   0.000033 0.999737 0.619378 0.806200
C117  C     C_R   0.499967 0.499734 0.380622 0.806184
C118  C     C_R   0.500033 0.499734 0.619378 0.806195
C119  C     C_R   1.000000 0.119128 0.500000 0.788700
C120  C     C_3   0.774733 0.473575 0.210686 -0.443985
C121  C     C_R   0.500000 0.619129 0.500000 0.788705
C122  C     C_R   0.526868 0.782213 0.487446 -0.174812
C123  C     C_R   0.473133 0.782212 0.512555 -0.174815
C124  C     C_R   0.026868 0.282213 0.487446 -0.174812
C125  C     C_R   0.973133 0.282212 0.512555 -0.174813
C126  C     C_R   0.027388 0.218156 0.488753 -0.174458
C127  C     C_R   0.972612 0.218155 0.511248 -0.174460
C128  C     C_R   0.527388 0.718156 0.488753 -0.174458
C129  C     C_R   0.472612 0.718155 0.511248 -0.174458
C130  C     C_3   0.225913 0.952544 0.272585 -0.055438
C131  C     C_3   0.225267 0.473673 0.789355 -0.443983
C132  C     C_3   0.774085 0.952447 0.727512 -0.055411
C133  C     C_3   0.725913 0.452535 0.272573 -0.055433
C134  C     C_3   0.274087 0.452465 0.727496 -0.055423
C135  C     C_R   1.000000 0.186041 0.500000 -0.014021
C136  C     C_R   0.500000 0.686041 0.500000 -0.014025
C137  C     C_R   0.500000 0.814318 0.500001 -0.009693
C138  C     C_R   0.000000 0.314318 0.500001 -0.009693
C139  C     C_R   0.470410 0.218113 0.434364 0.040278
C140  C     C_R   0.529593 0.218111 0.565632 0.040233
C141  C     C_R   0.970433 0.718117 0.434346 0.040276
C142  C     C_3   0.225842 0.980807 0.155530 0.848867
C143  C     C_R   0.029567 0.718116 0.565652 0.040297
C144  C     C_R   0.971362 0.782214 0.433926 0.409824
C145  C     C_R   0.028639 0.782212 0.566072 0.409808
C146  C     C_R   0.471339 0.282210 0.433941 0.409825
C147  C     C_R   0.528666 0.282208 0.566056 0.409811
C148  C     C_R   0.000000 0.814132 0.499999 -0.352820
C149  C     C_R   0.500001 0.314129 0.500000 -0.352823
C150  C     C_3   0.225482 0.062935 0.238496 -0.455453
C151  C     C_3   0.774518 0.062908 0.761366 -0.455469
C152  C     C_3   0.725482 0.562933 0.238507 -0.455451
Cu1   Cu    Cu3+1 0.000000 0.938160 0.000000 0.948878
Cu2   Cu    Cu3+1 0.041320 0.999890 0.541290 0.960707
Cu3   Cu    Cu3+1 0.458680 0.499890 0.458710 0.960689
Cu4   Cu    Cu3+1 0.541320 0.499890 0.541290 0.960693
Cu5   Cu    Cu3+1 0.500000 0.438160 0.000000 0.948792
Cu6   Cu    Cu3+1 0.000000 0.061840 0.000000 0.973314
Cu7   Cu    Cu3+1 0.500000 0.561840 0.000000 0.973307
Cu8   Cu    Cu3+1 0.500000 0.000210 0.561820 0.941248
Cu9   Cu    Cu3+1 0.500000 0.000210 0.438180 0.941251
Cu10  Cu    Cu3+1 0.000000 0.500210 0.561820 0.941253
Cu11  Cu    Cu3+1 0.000000 0.500210 0.438180 0.941247
Cu12  Cu    Cu3+1 0.958680 0.999890 0.458710 0.960651
H1    H     H_    0.283948 0.975351 0.379827 0.162305
H2    H     H_    0.709520 0.998038 0.812305 0.170942
H3    H     H_    0.078664 0.902591 0.729912 0.256880
H4    H     H_    0.054854 0.868454 0.773356 0.196100
H5    H     H_    0.097741 0.829851 0.778343 0.247454
H6    H     H_    0.469714 0.280261 0.314555 0.139797
H7    H     H_    0.490019 0.353359 0.362475 0.107747
H8    H     H_    0.421282 0.402637 0.270161 0.256922
H9    H     H_    0.445038 0.368501 0.226620 0.196063
H10   H     H_    0.402157 0.329924 0.221681 0.247445
H11   H     H_    0.530403 0.280194 0.685574 0.139906
H12   H     H_    0.509992 0.353243 0.637586 0.107689
H13   H     H_    0.790485 0.497821 0.187702 0.170936
H14   H     H_    0.578663 0.402713 0.729744 0.256911
H15   H     H_    0.555042 0.368444 0.773455 0.196040
H16   H     H_    0.597941 0.330048 0.778275 0.247484
H17   H     H_    0.247776 0.868364 0.109141 0.152849
H18   H     H_    0.236430 0.939892 0.059111 0.161826
H19   H     H_    0.162762 0.904224 0.968533 0.231207
H20   H     H_    0.200705 0.852586 0.973134 0.207398
H21   H     H_    0.175267 0.832526 0.019201 0.257208
H22   H     H_    0.752224 0.868663 0.891141 0.152857
H23   H     H_    0.763576 0.940272 0.941021 0.161826
H24   H     H_    0.209517 0.497981 0.812302 0.170939
H25   H     H_    0.837245 0.904630 0.031661 0.231203
H26   H     H_    0.799302 0.853072 0.027182 0.207403
H27   H     H_    0.824731 0.832851 0.981144 0.257211
H28   H     H_    0.747776 0.368392 0.109112 0.152847
H29   H     H_    0.736431 0.439929 0.059097 0.161826
H30   H     H_    0.662762 0.404266 0.968511 0.231206
H31   H     H_    0.700705 0.352634 0.973101 0.207389
H32   H     H_    0.675266 0.332559 0.019163 0.257208
H33   H     H_    0.252223 0.368596 0.891082 0.152856
H34   H     H_    0.263572 0.440189 0.940992 0.161825
H35   H     H_    0.935359 0.026277 0.127271 0.138313
H36   H     H_    0.337241 0.404544 0.031625 0.231202
H37   H     H_    0.299297 0.352967 0.027116 0.207399
H38   H     H_    0.324731 0.332782 0.981077 0.257211
H39   H     H_    0.155521 0.998178 0.034473 0.174507
H40   H     H_    0.182286 0.019167 0.992127 0.156753
H41   H     H_    0.181765 0.129487 0.024456 0.260401
H42   H     H_    0.129958 0.096948 0.966476 0.205659
H43   H     H_    0.153348 0.107908 0.064768 0.246059
H44   H     H_    0.844484 0.998416 0.965529 0.174509
H45   H     H_    0.817725 0.019569 0.007835 0.156745
H46   H     H_    0.064675 0.026100 0.872764 0.138284
H47   H     H_    0.818262 0.129812 0.975278 0.260382
H48   H     H_    0.870065 0.097269 0.033309 0.205675
H49   H     H_    0.846665 0.108074 0.934991 0.246080
H50   H     H_    0.655521 0.498206 0.034471 0.174511
H51   H     H_    0.682287 0.519208 0.992131 0.156753
H52   H     H_    0.681768 0.629521 0.024485 0.260400
H53   H     H_    0.629961 0.596985 0.966495 0.205647
H54   H     H_    0.653350 0.607928 0.064790 0.246059
H55   H     H_    0.344481 0.498367 0.965532 0.174512
H56   H     H_    0.317718 0.519481 0.007843 0.156744
H57   H     H_    0.435351 0.526234 0.127262 0.138310
H58   H     H_    0.318250 0.629742 0.975336 0.260385
H59   H     H_    0.370055 0.597202 0.033359 0.205672
H60   H     H_    0.346658 0.608041 0.935047 0.246077
H61   H     H_    0.564651 0.526217 0.872740 0.138306
H62   H     H_    0.934741 0.025252 0.239412 0.159970
H63   H     H_    0.065291 0.025079 0.760621 0.159997
H64   H     H_    0.434733 0.525207 0.239403 0.159980
H65   H     H_    0.716044 0.975129 0.620222 0.162293
H66   H     H_    0.565269 0.525193 0.760600 0.159979
H67   H     H_    0.065268 0.974532 0.371449 0.159507
H68   H     H_    0.934700 0.974724 0.628520 0.159405
H69   H     H_    0.565275 0.474571 0.371455 0.159523
H70   H     H_    0.434721 0.474582 0.628542 0.159550
H71   H     H_    0.547858 0.806719 0.477971 0.138893
H72   H     H_    0.452143 0.806718 0.522030 0.138893
H73   H     H_    0.047858 0.306719 0.477971 0.138893
H74   H     H_    0.952143 0.306718 0.522030 0.138892
H75   H     H_    0.048560 0.193660 0.479727 0.141217
H76   H     H_    0.783947 0.475332 0.379821 0.162303
H77   H     H_    0.951440 0.193659 0.520274 0.141212
H78   H     H_    0.548560 0.693660 0.479726 0.141217
H79   H     H_    0.451440 0.693658 0.520274 0.141218
H80   H     H_    0.213530 0.967674 0.305703 0.166328
H81   H     H_    0.786462 0.967490 0.694353 0.166198
H82   H     H_    0.713529 0.467656 0.305694 0.166319
H83   H     H_    0.286469 0.467523 0.694350 0.166322
H84   H     H_    0.212014 0.098903 0.194444 0.215599
H85   H     H_    0.787984 0.098939 0.805342 0.215613
H86   H     H_    0.712015 0.598907 0.194463 0.215598
H87   H     H_    0.216051 0.475180 0.620215 0.162302
H88   H     H_    0.287984 0.598930 0.805389 0.215606
H89   H     H_    0.215946 0.075101 0.276753 0.173130
H90   H     H_    0.784057 0.074975 0.723087 0.173122
H91   H     H_    0.715946 0.575089 0.276766 0.173127
H92   H     H_    0.284056 0.574998 0.723123 0.173135
H93   H     H_    0.287022 0.084745 0.338415 0.173285
H94   H     H_    0.712979 0.084627 0.661392 0.173290
H95   H     H_    0.787022 0.584735 0.338430 0.173279
H96   H     H_    0.212979 0.584653 0.661437 0.173288
H97   H     H_    0.283266 0.094611 0.252707 0.198565
H98   H     H_    0.288834 0.910024 0.335369 0.183092
H99   H     H_    0.716731 0.094681 0.747073 0.198554
H100  H     H_    0.783266 0.594617 0.252725 0.198561
H101  H     H_    0.216732 0.594662 0.747124 0.198557
H102  H     H_    0.284098 0.924412 0.216725 0.133955
H103  H     H_    0.715899 0.924566 0.783446 0.133963
H104  H     H_    0.784098 0.424425 0.216709 0.133953
H105  H     H_    0.215900 0.424529 0.783408 0.133960
H106  H     H_    0.227589 0.868554 0.227967 0.262874
H107  H     H_    0.180353 0.886158 0.211196 0.247545
H108  H     H_    0.772428 0.868553 0.772324 0.262896
H109  H     H_    0.711169 0.909918 0.664847 0.183085
H110  H     H_    0.819655 0.886102 0.789018 0.247553
H111  H     H_    0.727589 0.368555 0.227938 0.262871
H112  H     H_    0.680353 0.386152 0.211171 0.247541
H113  H     H_    0.272419 0.368552 0.772262 0.262884
H114  H     H_    0.319651 0.386109 0.788988 0.247526
H115  H     H_    0.058024 0.878617 0.237641 0.143409
H116  H     H_    0.095266 0.900206 0.334565 0.137767
H117  H     H_    0.147510 0.925895 0.305591 0.246618
H118  H     H_    0.130309 0.846760 0.283875 0.198921
H119  H     H_    0.110442 0.902747 0.209845 0.252549
H120  H     H_    0.788834 0.410015 0.335350 0.183090
H121  H     H_    0.941707 0.878689 0.761610 0.143172
H122  H     H_    0.904343 0.900771 0.664906 0.137936
H123  H     H_    0.852434 0.926441 0.694695 0.246545
H124  H     H_    0.869396 0.847169 0.715654 0.198998
H125  H     H_    0.889614 0.902738 0.790183 0.252568
H126  H     H_    0.558053 0.378649 0.237665 0.143415
H127  H     H_    0.595285 0.400255 0.334586 0.137775
H128  H     H_    0.647531 0.425970 0.305623 0.246602
H129  H     H_    0.630346 0.346827 0.283919 0.198933
H130  H     H_    0.610472 0.402807 0.209880 0.252538
H131  H     H_    0.211168 0.409941 0.664796 0.183092
H132  H     H_    0.441958 0.378679 0.762465 0.143483
H133  H     H_    0.404767 0.400202 0.665497 0.137743
H134  H     H_    0.352451 0.425977 0.694268 0.246560
H135  H     H_    0.369649 0.346848 0.716101 0.198929
H136  H     H_    0.389468 0.402891 0.790060 0.252525
H137  H     H_    0.452658 0.162002 0.346325 0.232826
H138  H     H_    0.422658 0.156697 0.380882 0.214559
H139  H     H_    0.547355 0.161995 0.653672 0.232804
H140  H     H_    0.577348 0.156697 0.619100 0.214579
H141  H     H_    0.952724 0.662018 0.346318 0.232839
H142  H     H_    0.290484 0.997802 0.187703 0.170937
H143  H     H_    0.922686 0.656697 0.380800 0.214588
H144  H     H_    0.047277 0.662017 0.653681 0.232843
H145  H     H_    0.077313 0.656695 0.619197 0.214587
H146  H     H_    0.969808 0.780250 0.314618 0.139803
H147  H     H_    0.990089 0.853361 0.362517 0.107763
H148  H     H_    0.921380 0.902631 0.270117 0.256891
H149  H     H_    0.945144 0.868427 0.226625 0.196049
H150  H     H_    0.902246 0.829903 0.221681 0.247495
H151  H     H_    0.030176 0.780262 0.685359 0.139780
H152  H     H_    0.009921 0.853387 0.637480 0.107783
N1    N     N_3   0.212587 0.888335 0.250783 -0.588600
N2    N     N_3   0.787419 0.888259 0.749446 -0.588597
N3    N     N_3   0.712587 0.388328 0.250758 -0.588599
N4    N     N_3   0.287417 0.388271 0.749405 -0.588575
N5    N     N_3   0.438594 0.186990 0.367717 -0.540902
N6    N     N_3   0.561414 0.186986 0.632274 -0.540970
N7    N     N_3   0.938638 0.686996 0.367676 -0.540901
N8    N     N_3   0.061362 0.686994 0.632322 -0.540880
O1    O     O_R   0.999990 0.947780 0.090170 -0.591603
O2    O     O_R   0.965100 0.999930 0.555260 -0.595615
O3    O     O_R   0.534900 0.499930 0.444740 -0.595572
O4    O     O_R   0.465100 0.499930 0.555260 -0.595562
O5    O     O_R   0.965090 0.090120 0.465150 -0.587184
O6    O     O_R   0.034910 0.090120 0.534850 -0.587168
O7    O     O_R   0.465090 0.590120 0.465150 -0.587176
O8    O     O_R   0.534910 0.590120 0.534850 -0.587169
O9    O     O_R   0.999990 0.052220 0.090220 -0.581312
O10   O     O_R   0.000010 0.052220 0.909780 -0.581304
O11   O     O_R   0.499990 0.552220 0.090220 -0.581297
O12   O     O_R   0.000010 0.947780 0.909830 -0.591491
O13   O     O_R   0.500010 0.552220 0.909780 -0.581279
O14   O     O_R   0.060280 0.947780 0.060280 -0.587484
O15   O     O_R   0.939720 0.947780 0.939720 -0.587507
O16   O     O_R   0.560280 0.447780 0.060280 -0.587474
O17   O     O_R   0.439720 0.447780 0.939720 -0.587470
O18   O     O_R   0.060280 0.052220 0.060320 -0.580017
O19   O     O_R   0.939720 0.052220 0.939680 -0.580010
O20   O     O_R   0.560280 0.552220 0.060320 -0.580004
O21   O     O_R   0.439720 0.552220 0.939680 -0.580003
O22   O     O_R   0.500000 0.909980 0.552210 -0.583933
O23   O     O_R   0.499990 0.447780 0.090170 -0.591607
O24   O     O_R   0.500000 0.909980 0.447790 -0.583934
O25   O     O_R   0.000000 0.409980 0.552210 -0.583932
O26   O     O_R   0.000000 0.409980 0.447790 -0.583934
O27   O     O_R   0.439710 0.000200 0.491930 -0.580403
O28   O     O_R   0.560290 0.000200 0.508070 -0.580403
O29   O     O_R   0.939710 0.500200 0.491930 -0.580401
O30   O     O_R   0.060290 0.500200 0.508070 -0.580401
O31   O     O_R   0.439720 0.000170 0.387560 -0.581442
O32   O     O_R   0.560280 0.000170 0.612440 -0.581444
O33   O     O_R   0.939720 0.500170 0.387560 -0.581443
O34   O     O_R   0.500010 0.447780 0.909830 -0.591654
O35   O     O_R   0.060280 0.500170 0.612440 -0.581441
O36   O     O_R   0.500000 0.090430 0.552220 -0.594376
O37   O     O_R   0.500000 0.090430 0.447780 -0.594380
O38   O     O_R   1.000000 0.590430 0.552220 -0.594386
O39   O     O_R   1.000000 0.590430 0.447780 -0.594387
O40   O     O_R   0.965130 0.909670 0.465120 -0.554627
O41   O     O_R   0.034870 0.909670 0.534880 -0.554628
O42   O     O_R   0.465130 0.409670 0.465120 -0.554598
O43   O     O_R   0.534870 0.409670 0.534880 -0.554571
O44   O     O_3   0.073235 0.972210 0.257854 -0.588644
O45   O     O_R   0.965120 0.999890 0.374970 -0.592930
O46   O     O_3   0.926737 0.972401 0.742144 -0.588678
O47   O     O_3   0.573242 0.472250 0.257861 -0.588648
O48   O     O_3   0.426752 0.472264 0.742128 -0.588646
O49   O     O_3   0.943024 0.813670 0.368953 -0.532268
O50   O     O_3   0.056978 0.813667 0.631046 -0.532267
O51   O     O_3   0.442978 0.313664 0.368981 -0.532251
O52   O     O_3   0.557038 0.313665 0.631006 -0.532254
O53   O     O_3   0.206892 0.924723 0.115956 -0.637881
O54   O     O_3   0.793107 0.924914 0.884196 -0.637888
O55   O     O_3   0.706892 0.424742 0.115939 -0.637882
O56   O     O_R   0.034880 0.999890 0.625030 -0.592920
O57   O     O_3   0.293107 0.424872 0.884167 -0.637888
O58   O     O_3   0.218370 0.030780 0.106196 -0.622987
O59   O     O_3   0.781638 0.031016 0.893742 -0.622991
O60   O     O_3   0.718371 0.530803 0.106202 -0.622989
O61   O     O_3   0.281634 0.530964 0.893756 -0.622989
O62   O     O_R   0.465120 0.499890 0.374970 -0.592955
O63   O     O_R   0.534880 0.499890 0.625030 -0.592989
O64   O     O_R   0.034900 0.999930 0.444740 -0.595574

loop_
_geom_bond_atom_site_label_1
_geom_bond_atom_site_label_2
_ccdc_geom_bond_type
Cu7   O11   S    
C36   H148  S    
C112  O39   A    
C128  H78   S    
C18   C132  S    
Cu7   O13   S    
C26   H116  S    
C50   H34   S    
C94   O15   A    
C14   C132  S    
C111  O36   A    
C37   H151  S    
C12   C130  S    
C38   H5    S    
C143  N8    S    
Cu2   O6    S    
Cu5   O34   S    
C74   H61   S    
C58   H53   S    
C132  H81   S    
Cu11  O39   S    
Cu12  O5    S    
C26   O44   S    
C93   O14   A    
C106  O31   A    
C56   H51   S    
C39   H7    S    
C105  C138  S    
C54   H45   S    
C42   H16   S    
C14   C151  S    
C113  O40   A    
C91   C100  A    
Cu12  O40   S    
C116  O2    A    
C109  H103  S    
C133  H82   S    
C18   H109  S    
C90   O46   S    
C83   C88   A    
C9    C46   T    
C102  C111  S    
C39   O51   S    
C45   C47   S    
C38   H3    S    
C86   H69   S    
C12   C150  S    
C65   C99   S    
C141  C144  A    
C49   H31   S    
H106  N1    S    
Cu8   O22   S    
C60   H58   S    
C6    H95   S    
C8    C35   T    
C19   C23   S    
C120  H13   S    
Cu8   O36   S    
C37   C38   S    
C12   C62   S    
C78   C82   A    
Cu5   O17   S    
C114  O42   A    
C22   C109  S    
C48   O55   S    
C142  O53   S    
C89   O44   S    
C74   C101  A    
C41   H12   S    
Cu12  O2    S    
C29   H124  S    
C36   H150  S    
C74   C79   A    
C43   C44   S    
C13   O55   S    
Cu10  O38   S    
C145  C148  A    
C121  O7    A    
Cu5   O16   S    
Cu9   O24   S    
H141  N7    S    
C122  C137  A    
C69   C95   S    
C103  C143  A    
C85   C90   A    
C21   C35   S    
C125  C138  A    
C76   C100  S    
C4    C150  S    
C106  O27   A    
C5    C151  S    
C73   H57   S    
C86   C91   A    
C52   H39   S    
C34   O49   S    
C32   C33   S    
C40   H10   S    
C24   C131  S    
C66   C70   T    
C15   C152  S    
C145  O50   S    
C42   H14   S    
C95   O16   A    
C102  C139  A    
C2    C14   S    
Cu1   O1    S    
C109  H2    S    
C123  H72   S    
C33   H135  S    
C49   H30   S    
Cu11  O26   S    
Cu3   Cu4   S    
C5    H99   S    
C20   H131  S    
C6    H100  S    
C20   C134  S    
C125  H74   S    
C2    C109  S    
C48   H29   S    
C10   C108  S    
C142  O58   S    
C16   C134  S    
C152  H86   S    
C150  H84   S    
C117  O62   A    
C71   C97   A    
C28   O46   S    
C112  O38   A    
C113  C148  S    
Cu2   Cu12  S    
C108  O33   A    
C24   O57   S    
Cu1   Cu6   S    
Cu1   O15   S    
C65   O10   A    
C116  O56   A    
C87   C101  S    
C130  H80   S    
C76   O11   A    
C56   H50   S    
H144  N8    S    
C51   H38   S    
C44   H21   S    
C107  O32   A    
C28   H122  S    
Cu6   O19   S    
C98   C142  S    
C11   C110  S    
C122  C128  A    
H108  N2    S    
C103  C141  A    
C140  C147  A    
C91   O47   S    
C96   O21   A    
C132  N2    S    
Cu10  O29   S    
Cu2   O64   S    
C133  N3    S    
H138  N5    S    
C39   C40   S    
C45   H23   S    
Cu6   O9    S    
C43   H17   S    
C68   C94   S    
C70   C96   S    
Cu11  O30   S    
C1    O9    A    
C130  N1    S    
Cu4   O63   S    
C53   H42   S    
H107  N1    S    
C64   C69   T    
C87   O13   A    
C44   H19   S    
C30   H127  S    
C54   H44   S    
C45   O54   S    
C60   H59   S    
C90   C99   A    
C13   C120  S    
C52   C53   S    
C124  C126  A    
C23   C57   S    
C63   C68   T    
C118  O63   A    
C17   C130  S    
C18   C22   S    
C13   O60   S    
C24   O61   S    
C96   O17   A    
Cu8   O32   S    
Cu9   O31   S    
C55   H49   S    
C9    C107  S    
C123  C137  A    
C114  C149  S    
C47   H26   S    
C65   O12   A    
C58   H54   S    
Cu2   O41   S    
C104  O22   A    
C98   H102  S    
C81   C116  S    
C56   C58   S    
C34   C36   S    
C51   H36   S    
Cu4   O8    S    
Cu9   O28   S    
C31   H129  S    
C59   C60   S    
Cu5   Cu7   S    
C67   C93   S    
C115  O45   A    
C81   C85   A    
C3    C16   S    
Cu11  O33   S    
C72   C99   A    
C73   C100  A    
C139  C146  A    
C4    H93   S    
C120  H104  S    
C87   O34   A    
C41   C42   S    
Cu10  O35   S    
C127  H77   S    
C80   C84   A    
C27   H118  S    
C38   H4    S    
C95   O20   A    
C92   O48   S    
C26   C27   S    
C119  O6    A    
C124  C138  A    
C28   C29   S    
C147  C149  A    
C127  C135  A    
C34   H146  S    
C3    C7    S    
C59   H56   S    
C128  C136  A    
C30   C31   S    
C20   C25   S    
Cu8   O27   S    
C104  C137  S    
C7    H101  S    
H145  N8    S    
C3    H92   S    
C59   O61   S    
H113  N4    S    
C55   H48   S    
C54   C55   S    
C146  O51   S    
Cu3   O4    S    
H111  N3    S    
C114  O43   A    
C15   C64   S    
Cu1   O12   S    
C54   O59   S    
C6    C152  S    
C122  H71   S    
C41   H11   S    
C29   H123  S    
C7    H96   S    
C126  H75   S    
C26   H115  S    
C50   H33   S    
C32   H132  S    
C37   H152  S    
C37   O50   S    
C134  N4    S    
C104  O24   A    
C150  H89   S    
C11   C61   T    
C82   C86   A    
C119  C135  S    
C52   H40   S    
Cu6   O18   S    
C146  C149  A    
C117  O3    A    
C80   C115  S    
C77   C81   A    
C42   H15   S    
C113  O41   A    
C50   C51   S    
C102  C140  A    
Cu2   O56   S    
C92   C101  A    
C151  H90   S    
Cu12  O45   S    
C48   C49   S    
C22   C46   S    
C126  C135  A    
C77   H63   S    
C105  O25   A    
C16   C66   S    
C29   H125  S    
C134  H83   S    
C40   H8    S    
Cu9   O37   S    
Cu10  Cu11  S    
C18   H65   S    
C8    C106  S    
C152  H91   S    
C71   H35   S    
C49   H32   S    
C19   C133  S    
C88   H70   S    
C7    C25   S    
C2    O59   S    
H112  N3    S    
C17   H1    S    
C79   C83   A    
C21   C98   S    
C94   O19   A    
C14   C63   S    
C12   C142  S    
C30   O47   S    
C121  C136  S    
C47   H27   S    
Cu1   O14   S    
C17   C21   S    
C48   H28   S    
C36   H149  S    
C141  N7    S    
C52   O58   S    
C103  C112  S    
Cu7   O20   S    
C82   C117  S    
H140  N6    S    
C93   O18   A    
C51   H37   S    
C121  O8    A    
C124  H73   S    
C98   H142  S    
C144  C148  A    
C151  H85   S    
C50   O57   S    
C144  O49   S    
C32   O48   S    
C19   H120  S    
C62   C67   T    
C83   C118  S    
C39   H6    S    
C27   H119  S    
C40   H9    S    
C45   H22   S    
Cu6   O10   S    
C17   H98   S    
C84   H67   S    
C110  O35   A    
C33   H136  S    
C72   H46   S    
C5    C22   S    
C139  N5    S    
C4    H97   S    
C53   H41   S    
C73   C78   A    
C75   C80   A    
C44   H20   S    
H139  N6    S    
Cu10  O25   S    
C118  O4    A    
C131  H24   S    
C16   C24   S    
C123  C129  A    
C85   H68   S    
C60   H60   S    
C56   O60   S    
C41   O52   S    
C78   H64   S    
C76   O23   A    
Cu7   O21   S    
C105  O26   A    
C88   C92   A    
C10   C57   T    
C3    H88   S    
C107  O28   A    
C1    C97   S    
C23   C120  S    
C31   H128  S    
H110  N2    S    
C20   H87   S    
C25   C61   S    
C129  H79   S    
C55   H47   S    
Cu3   O42   S    
C89   C97   A    
C47   H25   S    
C79   H66   S    
C72   C77   A    
C129  C136  A    
C131  H105  S    
H143  N7    S    
C125  C127  A    
Cu3   O7    S    
C28   H121  S    
C111  O37   A    
C13   C15   S    
Cu4   O43   S    
H137  N5    S    
C84   C89   A    
C33   H134  S    
C25   C131  S    
C110  O30   A    
C143  C145  A    
Cu3   O62   S    
C140  N6    S    
C75   H62   S    
C27   H117  S    
C32   H133  S    
C31   H130  S    
C15   C133  S    
C43   O53   S    
C43   H18   S    
C119  O5    A    
Cu8   Cu9   S    
C34   H147  S    
C59   H55   S    
C19   H76   S    
C71   C75   A    
C4    C21   S    
C6    C23   S    
C5    H94   S    
C53   H43   S    
C147  O52   S    
C115  O64   A    
C2    O54   S    
Cu4   O3    S    
C108  O29   A    
C30   H126  S    
H114  N4    S    
Cu5   O23   S    
C1    O1    A    
C58   H52   S    
