data_mof_unit_68326.cif
_audit_creation_date              2012-12-10T16:57:03-0500
_audit_creation_method            fapswitch 2.2
_symmetry_space_group_name_H-M    P1
_symmetry_Int_Tables_number       1
_space_group_crystal_system       triclinic
_cell_length_a                    7.764249
_cell_length_b                    8.700368
_cell_length_c                    16.892115
_cell_angle_alpha                 85.660794
_cell_angle_beta                  86.558257
_cell_angle_gamma                 90.994148
_cell_volume                      1135.49534107

loop_
_atom_site_label
_atom_site_type_symbol
_atom_type_description
_atom_site_fract_x
_atom_site_fract_y
_atom_site_fract_z
_atom_type_partial_charge
C1    C     C_R   0.541606 0.794067 0.496787 0.921197
C2    C     C_R   0.349921 0.531672 0.223676 -0.067774
C3    C     C_R   0.587218 0.361993 0.864206 -0.023047
C4    C     C_R   0.303429 0.469939 0.153429 -0.026261
C5    C     C_R   0.461329 0.445134 0.904745 0.124484
C6    C     C_R   0.397410 0.348058 0.123678 0.086838
C7    C     C_R   0.358914 0.550320 0.864458 -0.227525
C8    C     C_R   0.531702 0.283407 0.165224 -0.218077
C9    C     C_R   0.372161 0.567515 0.782739 -0.224469
C10   C     C_R   0.581196 0.346774 0.233597 -0.254517
C11   C     C_2   0.455923 0.444801 0.990172 -0.208869
C12   C     C_R   0.457365 0.205311 0.507752 0.884795
C13   C     C_2   0.394863 0.326346 0.039267 -0.198969
C14   C     C_R   0.773728 0.331423 0.741366 0.110689
C15   C     C_R   0.936328 0.367087 0.768309 -0.156220
C16   C     C_R   0.084345 0.302651 0.735278 -0.129104
C17   C     C_R   0.075565 0.222852 0.667478 -0.112342
C18   C     C_R   0.917045 0.196655 0.636412 -0.112426
C19   C     C_R   0.765818 0.240229 0.676901 -0.043276
C20   C     C_R   0.254375 0.667458 0.248425 0.121538
C21   C     C_R   0.305849 0.812059 0.211109 -0.176118
C22   C     C_R   0.182949 0.924390 0.196502 -0.113820
C23   C     C_2   0.548292 0.943018 0.524319 -0.232190
C24   C     C_R   0.010746 0.896740 0.223584 -0.112956
C25   C     C_R   0.962595 0.759704 0.268466 -0.105200
C26   C     C_R   0.083703 0.644656 0.280516 -0.079468
C27   C     C_R   0.160382 0.536924 0.108442 0.160016
C28   C     C_R   0.996813 0.465956 0.117450 -0.163986
C29   C     C_R   0.863843 0.525844 0.073486 -0.139959
C30   C     C_R   0.894010 0.652489 0.018454 -0.157032
C31   C     C_R   0.055190 0.726998 0.011159 -0.167299
C32   C     C_R   0.187349 0.671033 0.056955 -0.124365
C33   C     C_R   0.674754 0.235771 0.909415 0.148373
C34   C     C_2   0.436142 0.047168 0.494806 -0.254599
C35   C     C_R   0.586338 0.094027 0.926382 -0.156098
C36   C     C_R   0.641665 0.986708 0.984578 -0.175350
C37   C     C_R   0.787985 0.018736 0.025100 -0.149810
C38   C     C_R   0.881873 0.155931 0.006001 -0.151698
C39   C     C_R   0.823908 0.265296 0.949384 -0.137555
C40   C     C_R   0.594246 0.936127 0.609173 0.102726
C41   C     C_R   0.463542 0.949853 0.669464 -0.194668
C42   C     C_R   0.496445 0.920316 0.749488 -0.162334
C43   C     C_R   0.657929 0.868631 0.770576 -0.068827
C44   C     C_R   0.785986 0.845429 0.711513 -0.134781
C45   C     C_R   0.487516 0.499290 0.653628 0.861258
C46   C     C_R   0.753594 0.876786 0.631459 -0.135688
C47   C     C_R   0.300854 0.020268 0.438262 0.143968
C48   C     C_R   0.136446 0.971229 0.470290 -0.089850
C49   C     C_R   0.989764 0.011943 0.430257 -0.150792
C50   C     C_R   0.005240 0.106864 0.359934 -0.129727
C51   C     C_R   0.168428 0.151078 0.326015 -0.122976
C52   C     C_R   0.315777 0.102213 0.363307 -0.116814
C53   C     C_R   0.512454 0.500010 0.346433 0.857355
C54   C     C_R   0.496693 0.487692 0.739981 -0.080851
C55   C     C_R   0.489603 0.468633 0.264280 -0.081383
C56   C     C_R   0.615343 0.391663 0.781140 -0.074958
H1    H     H_    0.948949 0.444596 0.814634 0.122374
H2    H     H_    0.040380 0.532378 0.307024 0.122029
H3    H     H_    0.686415 0.295535 0.264631 0.145809
H4    H     H_    0.283575 0.643411 0.752603 0.165807
H5    H     H_    0.345281 0.220287 0.018519 0.150115
H6    H     H_    0.503053 0.549504 0.013416 0.134787
H7    H     H_    0.265551 0.617085 0.896156 0.157632
H8    H     H_    0.607203 0.192301 0.141287 0.162956
H9    H     H_    0.972839 0.364232 0.157975 0.108834
H10   H     H_    0.739323 0.470208 0.079567 0.170273
H11   H     H_    0.792482 0.692605 0.981562 0.128224
H12   H     H_    0.206309 0.316579 0.760997 0.150487
H13   H     H_    0.078303 0.827180 0.969595 0.134761
H14   H     H_    0.311277 0.730596 0.051112 0.100785
H15   H     H_    0.466503 0.072261 0.899309 0.110956
H16   H     H_    0.567959 0.880952 0.999910 0.113793
H17   H     H_    0.826933 0.938593 0.072331 0.149656
H18   H     H_    0.995399 0.180176 0.037474 0.129698
H19   H     H_    0.890418 0.375492 0.940121 0.133387
H20   H     H_    0.333509 0.974046 0.654378 0.119110
H21   H     H_    0.393496 0.929821 0.794760 0.122190
H22   H     H_    0.681938 0.841145 0.832397 0.132457
H23   H     H_    0.191701 0.184055 0.638530 0.133190
H24   H     H_    0.909631 0.801164 0.727595 0.119798
H25   H     H_    0.852847 0.853802 0.586946 0.112167
H26   H     H_    0.121616 0.913884 0.529440 0.114616
H27   H     H_    0.863526 0.977742 0.455765 0.144607
H28   H     H_    0.890893 0.144153 0.331187 0.114950
H29   H     H_    0.180341 0.223573 0.271049 0.131795
H30   H     H_    0.441333 0.142214 0.338876 0.119973
H31   H     H_    0.024062 0.389120 0.442235 0.201263
H32   H     H_    0.976055 0.609093 0.558729 0.191680
H33   H     H_    0.911477 0.140712 0.581727 0.136997
H34   H     H_    0.642579 0.213449 0.654821 0.126242
H35   H     H_    0.435543 0.830392 0.184207 0.114570
H36   H     H_    0.220224 0.031226 0.162279 0.120203
H37   H     H_    0.915265 0.982995 0.211075 0.100374
H38   H     H_    0.829530 0.739478 0.290127 0.133385
N1    N     N_2   0.953500 0.457650 0.478520 -0.181640
N2    N     N_2   0.046500 0.542350 0.521480 -0.172808
O1    O     O_R   0.388470 0.738640 0.505270 -0.611703
O2    O     O_R   0.611530 0.261360 0.494730 -0.621709
O3    O     O_R   0.679650 0.711510 0.491500 -0.640201
O4    O     O_R   0.320350 0.288490 0.508500 -0.623262
O5    O     O_R   0.337210 0.515200 0.623500 -0.618299
O6    O     O_R   0.662790 0.484800 0.376500 -0.630842
O7    O     O_R   0.628380 0.488060 0.609730 -0.620399
O8    O     O_R   0.371620 0.511940 0.390270 -0.613576
Zn1   Zn    Zn3+2 0.305580 0.518120 0.509190 0.945008
Zn2   Zn    Zn3+2 0.694420 0.481880 0.490810 0.928293

loop_
_geom_bond_atom_site_label_1
_geom_bond_atom_site_label_2
_ccdc_geom_bond_type
C14   C56   S    
N2    Zn1   S    
H32   N2    S    
C41   C42   A    
N1    N2    D    
C11   H6    S    
C1    O3    A    
C50   H28   S    
C43   H22   S    
C40   C46   A    
C28   C29   A    
O4    Zn1   S    
C33   C39   A    
C36   C37   A    
C37   C38   A    
C5    C11   S    
C2    C55   A    
C38   H18   S    
C30   C31   A    
C3    C33   S    
C53   O8    A    
C15   C16   A    
C17   H23   S    
C18   C19   A    
C45   O7    A    
C31   C32   A    
C16   C17   A    
H31   N1    S    
C23   C40   S    
C16   H12   S    
C39   H19   S    
C12   O2    A    
C30   H11   S    
O1    Zn1   S    
C35   H15   S    
C25   H38   S    
C21   C22   A    
C15   H1    S    
C51   H29   S    
O8    Zn1   S    
C44   C46   A    
C50   C51   A    
C53   C55   S    
O5    Zn1   S    
C54   C56   A    
C2    C20   S    
C51   C52   A    
C44   H24   S    
C24   C25   A    
C4    C6    A    
C1    O1    A    
C5    C7    A    
C32   H14   S    
C25   C26   A    
C35   C36   A    
C2    C4    A    
C43   C44   A    
C29   C30   A    
N1    Zn2   S    
C46   H25   S    
C3    C56   A    
C47   C48   A    
C53   O6    A    
C23   C34   D    
C17   C18   A    
C10   C55   A    
C26   H2    S    
C7    H7    S    
C45   O5    A    
C8    H8    S    
C48   C49   A    
C45   C54   S    
C1    C23   S    
C22   C24   A    
C42   C43   A    
C12   C34   S    
C4    C27   S    
C21   H35   S    
C7    C9    A    
O3    Zn2   S    
C37   H17   S    
C40   C41   A    
C27   C32   A    
C18   H33   S    
C14   C19   A    
C3    C5    A    
C6    C8    A    
C47   C52   A    
C34   C47   S    
O2    Zn2   S    
C9    H4    S    
C49   H27   S    
C52   H30   S    
C28   H9    S    
C19   H34   S    
C24   H37   S    
C41   H20   S    
C11   C13   D    
C38   C39   A    
C20   C26   A    
C33   C35   A    
C48   H26   S    
O6    Zn2   S    
O7    Zn2   S    
C12   O4    A    
C29   H10   S    
C31   H13   S    
C13   H5    S    
C20   C21   A    
C42   H21   S    
C8    C10   A    
C49   C50   A    
C27   C28   A    
C22   H36   S    
C14   C15   A    
C9    C54   A    
C10   H3    S    
C36   H16   S    
C6    C13   S    
