data_mof_unit_60003.cif
_audit_creation_date              2012-12-10T17:00:07-0500
_audit_creation_method            fapswitch 2.2
_symmetry_space_group_name_H-M    P1
_symmetry_Int_Tables_number       1
_space_group_crystal_system       triclinic
_cell_length_a                    13.163217
_cell_length_b                    13.164515
_cell_length_c                    16.043794
_cell_angle_alpha                 80.313875
_cell_angle_beta                  100.485116
_cell_angle_gamma                 90.972992
_cell_volume                      2694.52526638

loop_
_atom_site_label
_atom_site_type_symbol
_atom_type_description
_atom_site_fract_x
_atom_site_fract_y
_atom_site_fract_z
_atom_type_partial_charge
C1    C     C_R   0.461763 0.777431 0.469363 0.501332
C2    C     C_2   0.052358 0.534868 0.480296 -0.039834
C3    C     C_2   0.886684 0.557369 0.526198 -0.110118
C4    C     C_R   0.537585 0.223331 0.532099 0.512107
C5    C     C_2   0.941739 0.513858 0.478817 -0.167091
C6    C     C_R   0.776898 0.534671 0.523430 0.512560
C7    C     C_R   0.223227 0.466159 0.475221 0.508917
C8    C     C_R   0.515698 0.487762 0.726972 0.501082
C9    C     C_R   0.484053 0.512447 0.273007 0.506804
C10   C     C_1   0.521942 0.482915 0.817686 0.014642
C11   C     C_2   0.533214 0.474161 0.985013 -0.118611
C12   C     C_1   0.471872 0.521955 0.105900 -0.040415
C13   C     C_2   0.465689 0.526775 0.014793 -0.120150
C14   C     C_R   0.094561 0.638077 0.493168 0.061592
C15   C     C_R   0.051994 0.726942 0.437283 -0.087086
C16   C     C_R   0.091879 0.823972 0.448127 -0.109651
C17   C     C_R   0.173982 0.833100 0.515090 -0.087232
C18   C     C_R   0.216000 0.745286 0.571645 -0.113894
C19   C     C_R   0.176146 0.648169 0.561230 -0.080880
C20   C     C_1   0.527120 0.478895 0.893928 -0.042999
C21   C     C_1   0.477312 0.517710 0.182194 0.019029
C22   C     C_2   0.553394 0.112409 0.543713 -0.108249
C23   C     C_2   0.476619 0.052453 0.515579 -0.116545
C24   C     C_2   0.438641 0.888611 0.462759 0.237528
C25   C     C_2   0.497344 0.942922 0.516611 -0.086297
C26   C     C_2   0.112070 0.457034 0.471105 -0.088411
H1    H     H_    0.405223 0.573884 0.970846 0.136130
H2    H     H_    0.988716 0.720908 0.384843 0.115674
H3    H     H_    0.059276 0.892102 0.404469 0.119321
H4    H     H_    0.204949 0.908224 0.523236 0.139916
H5    H     H_    0.279382 0.752476 0.623647 0.106273
H6    H     H_    0.208783 0.580995 0.606205 0.109593
H7    H     H_    0.079431 0.380999 0.468135 0.088367
H8    H     H_    0.593671 0.427059 0.028980 0.139885
H9    H     H_    0.564210 0.907018 0.561337 0.114883
H10   H     H_    0.400617 0.085823 0.487113 0.183417
H11   H     H_    0.631592 0.081466 0.565118 0.098536
H12   H     H_    0.906308 0.456791 0.441255 0.154934
H13   H     H_    0.922142 0.611953 0.566195 0.122104
H14   H     H_    0.320851 0.886665 0.369850 0.347823
O1    O     O_3   0.500000 0.500000 0.500000 -0.437738
O2    O     O_R   0.564890 0.556920 0.685230 -0.537448
O3    O     O_R   0.419250 0.562810 0.301190 -0.535573
O4    O     O_R   0.461010 0.422870 0.688230 -0.536908
O5    O     O_R   0.554850 0.457400 0.325340 -0.535583
O6    O     O_3   0.356871 0.937349 0.403564 -0.723150
O7    O     O_R   0.732880 0.470090 0.478000 -0.539279
O8    O     O_R   0.260330 0.535210 0.424090 -0.523575
O9    O     O_R   0.533020 0.732860 0.528350 -0.562604
O10   O     O_R   0.473780 0.261850 0.569570 -0.533308
O11   O     O_R   0.406490 0.723840 0.419860 -0.541252
O12   O     O_R   0.586720 0.281460 0.482230 -0.530195
O13   O     O_R   0.723810 0.584530 0.562340 -0.536000
O14   O     O_R   0.282980 0.410180 0.535580 -0.543224
Zn1   Zn    Zn3+2 0.592010 0.428480 0.447310 0.947878
Zn2   Zn    Zn3+2 0.579060 0.591980 0.567800 0.937424
Zn3   Zn    Zn3+2 0.430650 0.400450 0.572090 0.942996
Zn4   Zn    Zn3+2 0.398290 0.579090 0.412800 0.952554

loop_
_geom_bond_atom_site_label_1
_geom_bond_atom_site_label_2
_ccdc_geom_bond_type
H14   O6    S    
O1    Zn2   S    
O8    Zn4   S    
C22   H11   S    
O9    Zn2   S    
C4    C22   S    
C26   H7    S    
C7    O14   A    
O12   Zn1   S    
O4    Zn3   S    
C3    C6    S    
C24   O6    S    
C7    O8    A    
C17   C18   A    
C3    H13   S    
C2    C26   D    
O11   Zn4   S    
C5    H12   S    
C12   C13   S    
C9    O5    A    
C17   H4    S    
C1    O11   A    
C9    C21   S    
C15   H2    S    
C7    C26   S    
C4    O12   A    
C19   H6    S    
C12   C21   T    
O7    Zn1   S    
C8    O2    A    
O1    Zn4   S    
C18   C19   A    
C23   C25   S    
C2    C14   S    
C11   C20   S    
C9    O3    A    
C2    C5    S    
C6    O7    A    
C6    O13   A    
O1    Zn3   S    
C15   C16   A    
C11   C13   D    
C24   C25   D    
O5    Zn1   S    
C1    C24   S    
C8    C10   S    
C23   H10   S    
O13   Zn2   S    
C4    O10   A    
C25   H9    S    
C14   C15   A    
O1    Zn1   S    
C18   H5    S    
O3    Zn4   S    
O2    Zn2   S    
C16   H3    S    
C22   C23   D    
O10   Zn3   S    
C1    O9    A    
C14   C19   A    
C11   H8    S    
C13   H1    S    
C8    O4    A    
C10   C20   T    
C16   C17   A    
C3    C5    D    
O14   Zn3   S    
