data_mof_unit_7592.cif
_audit_creation_date              2013-03-05T15:53:28-0500
_audit_creation_method            fapswitch 2.2
_symmetry_space_group_name_H-M    P1
_symmetry_Int_Tables_number       1
_space_group_crystal_system       triclinic
_cell_length_a                    24.67102
_cell_length_b                    17.272408
_cell_length_c                    15.574923
_cell_angle_alpha                 89.318837
_cell_angle_beta                  129.309415
_cell_angle_gamma                 90.41358
_cell_volume                      5134.85336441

loop_
_atom_site_label
_atom_site_type_symbol
_atom_site_description
_atom_site_fract_x
_atom_site_fract_y
_atom_site_fract_z
_atom_type_partial_charge
C1    C     C_R   0.835092 0.883703 0.207388 -0.056223
C2    C     C_R   0.165936 0.886168 0.795029 -0.060841
C3    C     C_R   0.352709 0.356938 0.250674 -0.054803
C4    C     C_R   0.665886 0.386256 0.796088 -0.076526
H1    H     H_    0.784071 0.879015 0.185822 0.144779
H2    H     H_    0.216325 0.881869 0.814645 0.157074
H3    H     H_    0.308884 0.340089 0.246523 0.151117
H4    H     H_    0.717321 0.383028 0.819131 0.145060
N1    N     N_R   0.888400 0.921830 0.294620 -0.062792
N2    N     N_R   0.111600 0.921830 0.705380 -0.063996
N3    N     N_R   0.388400 0.421830 0.294620 -0.065084
N4    N     N_R   0.611600 0.421830 0.705380 -0.063594
C5    C     C_R   0.112720 0.897796 0.406600 0.355438
C6    C     C_R   0.887924 0.894820 0.593554 0.376464
C7    C     C_R   0.609918 0.387348 0.407904 0.322054
C8    C     C_R   0.386853 0.395297 0.592610 0.380939
N5    N     N_R   0.079940 0.922160 0.443410 -0.090709
N6    N     N_R   0.920060 0.922160 0.556590 -0.090123
N7    N     N_R   0.579940 0.422160 0.443410 -0.087967
N8    N     N_R   0.420060 0.422160 0.556590 -0.090761
C9    C     C_R   0.188019 0.898971 0.590418 -0.192372
C10   C     C_R   0.812129 0.898075 0.409964 -0.202149
C11   C     C_R   0.684023 0.386528 0.593109 -0.207310
C12   C     C_R   0.311813 0.400322 0.410399 -0.217838
H5    H     H_    0.235774 0.903612 0.675130 0.127286
H6    H     H_    0.764211 0.903185 0.325328 0.122371
H7    H     H_    0.730020 0.380211 0.679272 0.124251
H8    H     H_    0.264321 0.408317 0.326057 0.127307
N9    N     N_R   0.125650 0.922400 0.556620 -0.067931
N10   N     N_R   0.874350 0.922400 0.443380 -0.066188
N11   N     N_R   0.625650 0.422400 0.556620 -0.063575
N12   N     N_R   0.374350 0.422400 0.443380 -0.069829
C13   C     C_R   0.078802 0.890508 0.803492 -0.092781
C14   C     C_R   0.923215 0.887072 0.200627 -0.112975
C15   C     C_R   0.578201 0.390434 0.802978 -0.070676
C16   C     C_R   0.441348 0.357020 0.244814 -0.135729
H9    H     H_    0.053933 0.894475 0.840312 0.196309
H10   H     H_    0.949000 0.889064 0.165152 0.195674
H11   H     H_    0.554081 0.396223 0.840718 0.198074
H12   H     H_    0.475753 0.339155 0.229181 0.183276
N13   N     N_R   0.054230 0.922730 0.705400 -0.051953
N14   N     N_R   0.945770 0.922730 0.294600 -0.052276
N15   N     N_R   0.554230 0.422730 0.705400 -0.056862
N16   N     N_R   0.445770 0.422730 0.294600 -0.045257
C17   C     C_R   0.854612 0.862388 0.145366 0.113884
C18   C     C_R   0.148144 0.867986 0.860599 0.109583
C19   C     C_R   0.383603 0.315793 0.216419 0.138588
C20   C     C_R   0.646977 0.366904 0.859923 0.122725
C21   C     C_R   0.182119 0.885247 0.497156 -0.044414
C22   C     C_R   0.818449 0.882896 0.503609 -0.054645
C23   C     C_R   0.675050 0.362245 0.501154 -0.026420
C24   C     C_R   0.317191 0.383654 0.503141 -0.051582
C25   C     C_R   0.811831 0.099684 0.407705 -0.148528
C26   C     C_R   0.157875 0.145949 0.589811 -0.180348
C27   C     C_R   0.328796 0.635112 0.408936 -0.164581
C28   C     C_R   0.668064 0.638133 0.590919 -0.176967
H13   H     H_    0.764230 0.097090 0.322526 0.139926
H14   H     H_    0.191023 0.164796 0.673968 0.173055
H15   H     H_    0.284766 0.647163 0.324311 0.135157
H16   H     H_    0.710884 0.650926 0.675424 0.138909
N17   N     N_R   0.873790 0.077030 0.443380 -0.054130
N18   N     N_R   0.126210 0.077030 0.556620 -0.050231
N19   N     N_R   0.373790 0.577030 0.443380 -0.046696
N20   N     N_R   0.626210 0.577030 0.556620 -0.047843
C29   C     C_R   0.931426 0.131010 0.220009 -0.116056
C30   C     C_R   0.076035 0.103528 0.802412 -0.143555
C31   C     C_R   0.431942 0.628818 0.218503 -0.092226
C32   C     C_R   0.567801 0.627962 0.780786 -0.138682
H17   H     H_    0.960040 0.140132 0.189843 0.124641
H18   H     H_    0.045432 0.101363 0.830150 0.124287
H19   H     H_    0.462364 0.637708 0.191599 0.118754
H20   H     H_    0.536613 0.636977 0.806067 0.121410
N21   N     N_R   0.945200 0.076700 0.294600 -0.042494
N22   N     N_R   0.054800 0.076700 0.705400 -0.042393
N23   N     N_R   0.445200 0.576700 0.294600 -0.044055
N24   N     N_R   0.554800 0.576700 0.705400 -0.044058
C33   C     C_R   0.166946 0.102565 0.804089 -0.123171
C34   C     C_R   0.844631 0.133965 0.229165 -0.137231
C35   C     C_R   0.658350 0.628082 0.781289 -0.124588
C36   C     C_R   0.342331 0.629722 0.220433 -0.142022
H21   H     H_    0.219801 0.099426 0.832635 0.112998
H22   H     H_    0.796018 0.145831 0.212987 0.162769
H23   H     H_    0.710882 0.635363 0.809912 0.120580
H24   H     H_    0.290602 0.638393 0.194340 0.126186
N25   N     N_R   0.111030 0.077600 0.705380 -0.051850
N26   N     N_R   0.888970 0.077600 0.294620 -0.050063
N27   N     N_R   0.611030 0.577600 0.705380 -0.047172
N28   N     N_R   0.388970 0.577600 0.294620 -0.050797
C37   C     C_R   0.886881 0.106095 0.591896 -0.066201
C38   C     C_R   0.090556 0.140730 0.406257 -0.031744
C39   C     C_R   0.402586 0.633046 0.593705 -0.071603
C40   C     C_R   0.594999 0.637378 0.406405 -0.025486
H25   H     H_    0.909851 0.112845 0.677842 0.152975
H26   H     H_    0.069162 0.148817 0.321849 0.173408
H27   H     H_    0.425193 0.639503 0.678908 0.173036
H28   H     H_    0.572600 0.647035 0.321476 0.155264
N29   N     N_R   0.919490 0.077280 0.556590 -0.055706
N30   N     N_R   0.080510 0.077280 0.443410 -0.047600
N31   N     N_R   0.419490 0.577280 0.556590 -0.053175
N32   N     N_R   0.580510 0.577280 0.443410 -0.049073
Ni1   Ni    Ni4+2 0.882160 0.999430 0.370180 0.205519
Ni2   Ni    Ni4+2 0.117840 0.999430 0.629820 0.202971
Ni3   Ni    Ni4+2 0.382160 0.499430 0.370180 0.198358
Ni4   Ni    Ni4+2 0.617840 0.499430 0.629820 0.210184
Ni5   Ni    Ni4+2 0.012460 0.999430 0.370180 0.284172
Ni6   Ni    Ni4+2 0.987540 0.999430 0.629820 0.270974
Ni7   Ni    Ni4+2 0.512460 0.499430 0.370180 0.289490
Ni8   Ni    Ni4+2 0.487540 0.499430 0.629820 0.273282
C41   C     C_R   0.818837 0.119935 0.498676 0.104762
C42   C     C_R   0.136191 0.188116 0.496251 0.071471
C43   C     C_R   0.348298 0.674262 0.502227 0.093333
C44   C     C_R   0.647124 0.679811 0.497976 0.090625
C45   C     C_R   0.871277 0.170615 0.183954 0.134436
C46   C     C_R   0.146498 0.118205 0.866666 0.120918
C47   C     C_R   0.370047 0.665967 0.176606 0.131791
C48   C     C_R   0.630387 0.664185 0.824099 0.137799
C49   C     C_R   0.781706 0.832434 0.605220 0.133242
C50   C     C_R   0.218886 0.834055 0.396493 0.143004
C51   C     C_R   0.262929 0.349738 0.594027 0.070586
C52   C     C_R   0.709672 0.288274 0.413462 0.171813
C53   C     C_R   0.762404 0.864426 0.507372 0.083905
C54   C     C_R   0.238304 0.864813 0.494675 0.027140
C55   C     C_R   0.258747 0.360796 0.500641 0.081598
C56   C     C_R   0.712439 0.299115 0.503561 0.042975
C57   C     C_R   0.694322 0.853356 0.408470 -0.405813
C58   C     C_R   0.304056 0.846424 0.594799 -0.348132
C59   C     C_R   0.195469 0.337842 0.398348 -0.398147
C60   C     C_R   0.734873 0.238461 0.580786 -0.426629
H29   H     H_    0.678516 0.885020 0.335779 0.123616
H30   H     H_    0.321849 0.871664 0.672011 0.160560
H31   H     H_    0.186293 0.348964 0.321961 0.137954
H32   H     H_    0.727916 0.243345 0.642390 0.142138
C61   C     C_R   0.144845 0.294178 0.393068 0.555524
C62   C     C_R   0.767075 0.172541 0.578644 0.574280
C63   C     C_R   0.650354 0.796907 0.402784 0.560446
C64   C     C_R   0.344118 0.787404 0.599424 0.547209
C65   C     C_R   0.163893 0.262578 0.493522 -0.084878
C66   C     C_R   0.769497 0.167674 0.491152 -0.126322
C67   C     C_R   0.678652 0.751998 0.499770 -0.107681
C68   C     C_R   0.316426 0.745065 0.501909 -0.144522
C69   C     C_R   0.219329 0.298695 0.591006 -0.127212
C70   C     C_R   0.735315 0.222095 0.404921 -0.086379
C71   C     C_R   0.741945 0.773480 0.601395 -0.122082
C72   C     C_R   0.255820 0.771978 0.400119 -0.107341
C73   C     C_3   0.748854 0.807895 0.696257 0.370032
C74   C     C_3   0.253102 0.806168 0.308253 0.373798
C75   C     C_3   0.256855 0.304136 0.712954 0.378624
C76   C     C_3   0.761007 0.265839 0.352471 0.403163
C77   C     C_3   0.786898 0.875010 0.693632 -0.516628
C78   C     C_3   0.218229 0.876218 0.310849 -0.517734
C79   C     C_3   0.303344 0.365061 0.715873 -0.482430
C80   C     C_3   0.733719 0.339566 0.365110 -0.603178
H33   H     H_    0.697377 0.825219 0.671751 0.061412
H34   H     H_    0.306138 0.819446 0.335693 0.056838
H35   H     H_    0.222845 0.328928 0.729494 0.063115
H36   H     H_    0.819154 0.265751 0.405815 0.074532
H37   H     H_    0.755635 0.929410 0.661647 0.178448
H38   H     H_    0.252647 0.928194 0.345274 0.155729
H39   H     H_    0.293336 0.424477 0.729629 0.174813
H40   H     H_    0.776243 0.379502 0.427720 0.166493
H41   H     H_    0.841151 0.882533 0.771910 0.247893
H42   H     H_    0.165152 0.887660 0.231484 0.254592
H43   H     H_    0.358735 0.348667 0.774910 0.261297
H44   H     H_    0.691096 0.368088 0.285518 0.244895
H45   H     H_    0.805687 0.285251 0.195193 0.186546
H46   H     H_    0.286797 0.125492 0.013402 0.137744
H47   H     H_    0.305529 0.779869 0.188169 0.176267
H48   H     H_    0.697379 0.777276 0.815107 0.178974
C81   C     C_2   0.196496 0.838245 0.974526 -0.313665
C82   C     C_2   0.807824 0.828030 0.035171 -0.317007
C83   C     C_2   0.693860 0.335211 0.972640 -0.338552
C84   C     C_2   0.356245 0.243394 0.156102 -0.389703
C85   C     C_2   0.266362 0.847614 0.039008 0.579945
C86   C     C_2   0.738567 0.842127 0.965238 0.591920
C87   C     C_2   0.762980 0.349535 0.041900 0.580874
C88   C     C_2   0.286910 0.231455 0.087854 0.598773
H49   H     H_    0.842722 0.245710 0.045342 0.153535
H50   H     H_    0.164137 0.174409 0.005690 0.169757
H51   H     H_    0.344126 0.741755 0.040191 0.163608
H52   H     H_    0.655761 0.738791 0.959657 0.156431
C89   C     C_2   0.840758 0.239270 0.112805 -0.193414
C90   C     C_2   0.190548 0.145290 0.979762 -0.144112
C91   C     C_2   0.340954 0.734847 0.106316 -0.178564
C92   C     C_2   0.660014 0.732155 0.894855 -0.195734
C93   C     C_2   0.807761 0.291501 0.128043 -0.329512
C94   C     C_2   0.258261 0.157686 0.032743 -0.310634
C95   C     C_2   0.308684 0.787373 0.122415 -0.324484
C96   C     C_2   0.694165 0.784125 0.880583 -0.330782
H53   H     H_    0.174646 0.800118 0.001523 0.171976
H54   H     H_    0.829721 0.784510 0.015210 0.164835
H55   H     H_    0.671992 0.292897 0.995076 0.141817
H56   H     H_    0.392078 0.200035 0.167511 0.133553
O1    O     O_3   0.080597 0.275582 0.291998 -0.657758
C97   C     C_3   0.051816 0.337867 0.214859 0.255470
H57   H     H_    0.072977 0.337575 0.169609 0.110196
H58   H     H_    0.062126 0.395038 0.255345 0.091875
C98   C     C_3   0.973066 0.327674 0.130339 -0.904719
H59   H     H_    0.950778 0.329103 0.173579 0.265890
H60   H     H_    0.949713 0.375338 0.067923 0.220532
H61   H     H_    0.960303 0.271440 0.087411 0.249777
O2    O     O_3   0.795747 0.112323 0.656868 -0.624696
C99   C     C_3   0.819602 0.136772 0.762158 0.189187
H62   H     H_    0.774607 0.141544 0.761988 0.107472
H63   H     H_    0.848168 0.192988 0.786377 0.089481
C100  C     C_3   0.870084 0.077027 0.849881 -0.772343
H64   H     H_    0.917006 0.072489 0.855273 0.275395
H65   H     H_    0.887087 0.094864 0.931987 0.193377
H66   H     H_    0.844092 0.019733 0.828976 0.255299
O3    O     O_3   0.580994 0.783467 0.308373 -0.653183
C101  C     C_3   0.560733 0.821501 0.211149 0.245505
H67   H     H_    0.595772 0.805106 0.192302 0.105363
H68   H     H_    0.560274 0.885363 0.219505 0.107672
C102  C     C_3   0.486783 0.797219 0.113719 -0.898523
H69   H     H_    0.450759 0.812386 0.130527 0.265690
H70   H     H_    0.469681 0.828094 0.037276 0.215840
H71   H     H_    0.484758 0.733905 0.100570 0.256251
O4    O     O_3   0.404691 0.765214 0.702160 -0.641326
C103  C     C_3   0.459322 0.817390 0.736345 0.227458
H72   H     H_    0.441426 0.878652 0.711026 0.085071
H73   H     H_    0.484731 0.799269 0.701031 0.105603
C104  C     C_3   0.513307 0.814929 0.862344 -0.884497
H74   H     H_    0.531910 0.754724 0.891845 0.255017
H75   H     H_    0.558673 0.852169 0.891012 0.225906
H76   H     H_    0.489519 0.836406 0.898699 0.249697
O5    O     O_3   0.789901 0.765926 0.799243 -0.652951
C105  C     C_3   0.845486 0.721580 0.820379 0.311333
H77   H     H_    0.881694 0.757891 0.818372 0.177948
H78   H     H_    0.825378 0.674024 0.759678 0.091266
C106  C     C_3   0.887510 0.685354 0.935536 -0.944391
H79   H     H_    0.852314 0.651458 0.943050 0.257878
H80   H     H_    0.928143 0.646193 0.949999 0.222343
H81   H     H_    0.913798 0.731208 0.999494 0.271904
O6    O     O_3   0.211088 0.767036 0.204083 -0.652228
C107  C     C_3   0.153312 0.725298 0.180398 0.300123
H82   H     H_    0.117940 0.763418 0.181417 0.177273
H83   H     H_    0.170948 0.676854 0.240365 0.089660
C108  C     C_3   0.111220 0.690796 0.065077 -0.928350
H84   H     H_    0.145672 0.654815 0.058731 0.251589
H85   H     H_    0.068571 0.653901 0.048777 0.220314
H86   H     H_    0.087370 0.737683 0.001471 0.273888
O7    O     O_3   0.294305 0.237759 0.781789 -0.635484
C109  C     C_3   0.328243 0.192996 0.752214 0.318746
H87   H     H_    0.374402 0.223807 0.772023 0.158009
H88   H     H_    0.292721 0.177113 0.663204 0.102654
C110  C     C_3   0.354180 0.117950 0.819372 -0.950087
H89   H     H_    0.309174 0.083690 0.799082 0.246936
H90   H     H_    0.382486 0.083022 0.799429 0.222116
H91   H     H_    0.390364 0.130780 0.909526 0.272254
O8    O     O_3   0.729838 0.243470 0.241943 -0.666750
C111  C     C_3   0.655581 0.238986 0.166436 0.335075
H92   H     H_    0.634316 0.293034 0.115821 0.138318
H93   H     H_    0.630984 0.230669 0.205639 0.150489
C112  C     C_3   0.633330 0.170710 0.089479 -0.987210
H94   H     H_    0.648740 0.115534 0.136994 0.248099
H95   H     H_    0.575567 0.171178 0.023001 0.248396
H96   H     H_    0.658653 0.173703 0.050844 0.264176
O9    O     O_3   0.296023 0.896490 0.007462 -0.644557
C113  C     C_3   0.349024 0.941693 0.098409 0.269356
H97   H     H_    0.390857 0.905184 0.169911 0.108024
H98   H     H_    0.326138 0.980074 0.125133 0.098873
C114  C     C_3   0.382815 0.992080 0.063056 -0.929395
H99   H     H_    0.342303 0.026859 0.988407 0.257212
H100  H     H_    0.421531 0.031744 0.131314 0.215841
H101  H     H_    0.410011 0.955188 0.042896 0.261123
O10   O     O_3   0.709631 0.899210 0.987176 -0.643552
C115  C     C_3   0.663893 0.945636 0.891485 0.266623
H102  H     H_    0.616166 0.912644 0.825492 0.095954
H103  H     H_    0.690374 0.967613 0.858756 0.090156
C116  C     C_3   0.641547 0.015114 0.921608 -0.912866
H104  H     H_    0.688258 0.049639 0.986600 0.260876
H105  H     H_    0.605516 0.052333 0.847135 0.217412
H106  H     H_    0.614145 0.995433 0.953372 0.257520
O11   O     O_3   0.791627 0.405994 0.017285 -0.638994
C117  C     C_3   0.834496 0.455159 0.109378 0.290704
H107  H     H_    0.883041 0.424664 0.178889 0.101131
H108  H     H_    0.806148 0.476706 0.138570 0.087779
C118  C     C_3   0.855076 0.524957 0.075300 -0.923001
H109  H     H_    0.807341 0.557219 0.007334 0.255740
H110  H     H_    0.889280 0.564042 0.147131 0.219802
H111  H     H_    0.883853 0.505914 0.046152 0.256833
O12   O     O_3   0.240510 0.290801 0.061049 -0.648123
C119  C     C_3   0.223026 0.331317 0.967081 0.280955
H112  H     H_    0.194068 0.293182 0.893081 0.104867
H113  H     H_    0.270726 0.354324 0.982196 0.112581
C120  C     C_3   0.176252 0.399523 0.942109 -0.922371
H114  H     H_    0.204252 0.439165 0.014153 0.257912
H115  H     H_    0.162038 0.431829 0.868284 0.215733
H116  H     H_    0.127595 0.378560 0.924990 0.257562
N33   N     N_R   0.086269 0.912109 0.295817 0.207309
O13   O     O_R   0.068692 0.982111 0.255274 -0.443858
O14   O     O_R   0.064262 0.854089 0.228776 -0.491582
N34   N     N_R   0.916981 0.900088 0.706566 0.206194
O15   O     O_R   0.936741 0.966951 0.755070 -0.462189
O16   O     O_R   0.939645 0.837324 0.766837 -0.491271
N35   N     N_R   0.589004 0.401228 0.299789 0.211757
O17   O     O_R   0.566831 0.469763 0.255167 -0.425768
O18   O     O_R   0.575395 0.343238 0.236346 -0.484142
N36   N     N_R   0.418328 0.392030 0.706387 0.194108
O19   O     O_R   0.434210 0.456017 0.761005 -0.445835
O20   O     O_R   0.446714 0.327142 0.760106 -0.493884

loop_
_geom_bond_atom_site_label_1
_geom_bond_atom_site_label_2
_geom_bond_distance
_ccdc_geom_bond_type
C12   C24   1.390959 A    
C97   H58   1.115982 S    
C80   H40   1.112065 S    
C61   C65   1.420730 A    
C114  H99   1.109637 S    
H48   C96   1.079662 S    
C71   C73   1.505210 S    
C27   H15   1.069211 S    
C117  C118  1.519976 S    
N5    N9    1.364368 A    
O2    C99   1.415620 S    
C6    N6    1.322676 A    
N17   Ni1   1.864824 S    
C14   N14   1.347495 A    
C81   H53   1.084702 S    
C49   C77   1.500858 S    
C36   H24   1.077240 S    
N7    N11   1.364368 A    
C17   C82   1.460963 S    
C9    C21   1.388187 A    
C19   C84   1.454024 S    
C87   O11   1.386317 S    
N35   O18   1.300270 A    
C30   H18   1.081921 S    
C102  H69   1.107611 S    
C2    C18   1.375724 A    
C7    N7    1.321692 A    
N31   Ni8   1.870172 S    
C7    N35   1.431975 S    
N1    N14   1.415549 A    
C120  H114  1.111051 S    
N30   Ni5   1.872245 S    
C99   H63   1.115250 S    
C20   C83   1.460490 S    
C107  H83   1.110666 S    
C1    H1    1.080418 S    
N34   O15   1.299281 A    
C49   C71   1.384079 A    
C59   H31   1.075889 S    
O5    C105  1.418740 S    
N4    Ni4   1.842343 S    
C104  H76   1.109880 S    
C91   C95   1.337368 D    
N8    N12   1.364288 A    
C112  H94   1.110156 S    
C24   C55   1.468808 S    
C29   H17   1.077425 S    
C100  H66   1.109286 S    
C97   C98   1.516118 S    
C76   C80   1.516548 S    
C58   H30   1.081565 S    
C111  H93   1.108062 S    
C30   N22   1.335052 A    
C8    N36   1.414627 S    
C40   H28   1.073693 S    
O10   C115  1.411176 S    
C29   N21   1.350406 A    
C119  H113  1.114741 S    
C26   C42   1.390232 A    
C16   C19   1.388083 A    
C50   C78   1.503181 S    
O9    C113  1.410898 S    
C90   C94   1.330382 D    
C39   C43   1.379299 A    
C12   N12   1.334803 A    
C98   H60   1.110374 S    
C105  C106  1.519838 S    
C49   C53   1.385241 A    
N7    Ni7   1.855737 S    
N19   N31   1.364366 A    
C106  H80   1.110502 S    
C86   C96   1.458660 S    
C53   C57   1.398131 A    
N18   N30   1.364288 A    
C67   C71   1.398333 A    
C64   C68   1.418719 A    
C45   C89   1.457944 S    
C11   C23   1.373806 A    
C12   H8    1.079536 S    
C99   C100  1.520448 S    
C27   N19   1.332370 A    
C82   H54   1.085230 S    
C31   H19   1.076001 S    
C109  H88   1.109687 S    
C28   N20   1.328242 A    
N6    N10   1.364288 A    
C11   H7    1.081382 S    
C4    N4    1.327053 A    
C30   C46   1.372294 A    
O6    C107  1.418750 S    
C23   C56   1.418095 S    
C118  H110  1.110430 S    
C4    H4    1.079682 S    
C10   C22   1.386959 A    
C73   H33   1.112074 S    
C34   N26   1.327604 A    
C111  C112  1.522937 S    
C68   C72   1.397942 A    
C97   H57   1.111554 S    
C74   O6    1.431351 S    
C58   C64   1.394231 A    
N24   Ni8   1.857673 S    
C74   C78   1.505352 S    
C116  H104  1.111174 S    
C36   N28   1.332387 A    
N2    N13   1.415771 A    
C13   C18   1.393756 A    
C44   C67   1.455929 S    
C2    H2    1.078819 S    
C22   C53   1.453580 S    
N36   O20   1.301252 A    
C84   H56   1.086901 S    
C60   C62   1.405780 A    
C15   C20   1.387620 A    
C60   H32   1.080731 S    
N8    Ni8   1.857955 S    
C35   N27   1.334919 A    
N14   Ni5   1.843768 S    
C43   C68   1.456943 S    
C38   H26   1.069541 S    
H51   C91   1.086327 S    
C100  H65   1.110868 S    
C51   C79   1.508752 S    
C5    N33   1.424655 S    
C78   H42   1.108512 S    
C47   C91   1.454269 S    
C52   C80   1.498855 S    
C109  C110  1.521644 S    
C99   H62   1.112052 S    
C83   H55   1.083700 S    
C108  H84   1.110854 S    
C8    C24   1.379594 A    
N23   Ni7   1.854772 S    
C16   H12   1.068831 S    
C106  H81   1.110402 S    
C1    N1    1.324406 A    
C32   H20   1.076301 S    
N19   Ni3   1.864824 S    
C66   C70   1.394593 A    
C1    C17   1.378780 A    
N35   O17   1.300622 A    
C114  H100  1.110483 S    
C116  H105  1.110397 S    
C89   C93   1.339185 D    
C40   C44   1.382905 A    
C37   C41   1.375742 A    
C64   O4    1.380017 S    
C26   N18   1.335703 A    
C3    H3    1.079439 S    
O12   C119  1.413475 S    
C100  H64   1.109615 S    
C73   O5    1.431328 S    
N34   O16   1.299458 A    
H45   C93   1.083110 S    
C92   C96   1.336668 D    
C118  H111  1.110664 S    
C37   N29   1.330445 A    
C41   C66   1.416627 S    
C107  C108  1.520810 S    
C79   H39   1.111747 S    
C54   C58   1.398098 A    
C98   H61   1.110790 S    
C113  H98   1.114096 S    
C88   O12   1.391661 S    
N6    Ni6   1.857954 S    
C50   C54   1.391977 A    
C85   O9    1.387939 S    
C106  H79   1.109156 S    
N5    Ni5   1.855737 S    
N22   Ni6   1.857674 S    
C104  H74   1.109709 S    
H46   C94   1.083473 S    
C34   H22   1.078587 S    
C5    N5    1.325862 A    
C103  H73   1.112300 S    
O3    C101  1.412959 S    
C74   H34   1.112096 S    
C36   C47   1.378579 A    
N2    Ni2   1.842343 S    
C8    N8    1.331099 A    
H47   C95   1.081357 S    
N16   Ni7   1.843770 S    
C61   O1    1.391707 S    
C26   H14   1.068163 S    
C109  H87   1.106901 S    
O8    C111  1.419732 S    
N12   Ni3   1.829123 S    
C52   C70   1.358382 A    
N3    N16   1.415549 A    
C105  H77   1.104145 S    
C14   C17   1.392747 A    
C80   H44   1.107481 S    
C32   N24   1.344945 A    
C70   C76   1.508142 S    
H50   C90   1.087908 S    
C10   H6    1.080407 S    
C115  H103  1.115571 S    
C32   C48   1.380936 A    
C86   O10   1.387676 S    
C5    C21   1.380627 A    
N29   Ni6   1.870173 S    
C101  H68   1.113215 S    
C72   C74   1.503129 S    
C63   O3    1.399487 S    
C101  H67   1.113830 S    
C79   H43   1.095647 S    
C65   C69   1.394319 A    
C110  H90   1.110603 S    
C57   H29   1.077944 S    
C6    N34   1.422848 S    
C51   C69   1.363701 A    
C118  H109  1.110823 S    
C7    C23   1.384766 A    
N13   Ni6   1.840725 S    
C16   N16   1.346574 A    
C113  C114  1.521612 S    
C77   H41   1.108369 S    
C107  H82   1.105166 S    
C38   C42   1.384427 A    
C50   C72   1.389456 A    
C25   N17   1.313681 A    
C33   C46   1.381520 A    
C2    N2    1.321346 A    
C55   C59   1.409742 A    
N28   Ni3   1.856243 S    
C15   N15   1.347760 A    
C40   N32   1.333770 A    
C62   O2    1.398242 S    
C112  H95   1.110587 S    
C82   C86   1.344195 D    
C102  H71   1.109914 S    
C4    C20   1.376707 A    
C103  C104  1.521193 S    
N20   Ni4   1.843068 S    
C9    H5    1.080241 S    
C117  H107  1.112026 S    
C85   C95   1.457878 S    
N32   Ni7   1.872245 S    
C25   H13   1.080666 S    
C10   N10   1.336952 A    
C27   C43   1.390285 A    
C14   H10   1.075049 S    
C29   C45   1.391056 A    
C120  H116  1.110697 S    
C31   C47   1.382372 A    
C42   C65   1.464869 S    
N17   N29   1.364366 A    
C59   C61   1.411785 A    
C110  H89   1.110552 S    
C115  C116  1.521454 S    
C62   C66   1.404806 A    
C114  H101  1.110270 S    
N24   N27   1.387421 A    
C76   O8    1.427704 S    
C88   C94   1.450567 S    
C51   C55   1.402214 A    
C75   H35   1.111505 S    
N4    N15   1.415771 A    
C101  C102  1.517727 S    
N3    Ni3   1.864185 S    
C119  C120  1.520160 S    
C78   H38   1.112670 S    
C105  H78   1.110386 S    
C18   C81   1.463116 S    
C56   C60   1.409079 A    
N21   Ni5   1.854772 S    
C104  H75   1.108608 S    
C63   C67   1.419373 A    
C13   N13   1.350017 A    
N11   Ni4   1.850736 S    
C112  H96   1.109133 S    
C108  H85   1.110566 S    
C113  H97   1.113307 S    
O4    C103  1.413113 S    
C102  H70   1.109778 S    
C120  H115  1.110476 S    
C46   C90   1.445501 S    
C119  H112  1.113821 S    
C35   H23   1.077560 S    
C81   C85   1.346227 D    
C57   C63   1.414289 A    
C103  H72   1.116398 S    
C6    C22   1.379215 A    
C9    N9    1.336473 A    
O7    C109  1.420373 S    
H49   C89   1.086467 S    
C21   C54   1.456954 S    
C48   C92   1.457664 S    
N10   Ni1   1.829123 S    
C3    C19   1.379396 A    
C116  H106  1.110778 S    
N33   O14   1.299270 A    
C52   C56   1.376087 A    
C38   N30   1.326667 A    
N9    Ni2   1.850734 S    
C117  H108  1.115813 S    
N15   Ni8   1.840726 S    
N22   N25   1.387421 A    
C37   H25   1.080837 S    
C98   H59   1.107396 S    
H52   C92   1.086239 S    
C33   H21   1.080227 S    
C13   H9    1.075804 S    
N21   N26   1.387651 A    
C111  H92   1.110753 S    
C3    N3    1.319269 A    
C115  H102  1.112865 S    
C69   C75   1.499477 S    
C33   N25   1.331387 A    
N27   Ni4   1.878231 S    
C34   C45   1.377902 A    
C108  H86   1.110287 S    
C28   H16   1.067239 S    
N23   N28   1.387651 A    
N20   N32   1.364288 A    
C15   H11   1.074732 S    
C31   N23   1.345280 A    
C39   H27   1.072089 S    
N1    Ni1   1.864185 S    
O1    C97   1.415773 S    
N36   O19   1.300936 A    
C110  H91   1.110854 S    
C75   C79   1.530527 S    
C75   O7    1.431262 S    
N33   O13   1.300458 A    
C25   C41   1.363954 A    
C76   H36   1.112698 S    
C83   C87   1.342524 D    
C39   N31   1.326782 A    
C35   C48   1.381413 A    
N26   Ni1   1.856243 S    
C77   H37   1.112864 S    
C28   C44   1.383355 A    
C73   C77   1.502738 S    
N25   Ni2   1.878233 S    
C84   C88   1.339693 D    
C11   N11   1.322254 A    
N18   Ni2   1.843069 S    
C87   C93   1.459935 S    
O11   C117  1.411008 S    
