data_mof_unit_11662.cif
_audit_creation_date              2012-12-10T19:00:13-0500
_audit_creation_method            fapswitch 2.2
_symmetry_space_group_name_H-M    P1
_symmetry_Int_Tables_number       1
_space_group_crystal_system       triclinic
_cell_length_a                    9.621379
_cell_length_b                    10.810081
_cell_length_c                    13.387171
_cell_angle_alpha                 91.343008
_cell_angle_beta                  73.35621
_cell_angle_gamma                 89.494628
_cell_volume                      1333.49465075

loop_
_atom_site_label
_atom_site_type_symbol
_atom_type_description
_atom_site_fract_x
_atom_site_fract_y
_atom_site_fract_z
_atom_type_partial_charge
C1    C     C_R   0.498657 0.737422 0.502403 0.799442
C2    C     C_R   0.447554 0.423203 0.972244 0.081213
C3    C     C_R   0.491771 0.423864 0.861815 0.089999
C4    C     C_R   0.553554 0.439986 0.026195 0.069702
C5    C     C_R   0.701966 0.438737 0.969387 0.173829
C6    C     C_R   0.743332 0.406952 0.863563 -0.255334
C7    C     C_R   0.639746 0.399664 0.810072 -0.208539
C8    C     C_R   0.516300 0.464368 0.133941 -0.237781
C9    C     C_R   0.767942 0.491607 0.126433 -0.204566
C10   C     C_R   0.385287 0.443408 0.808219 -0.102995
C11   C     C_R   0.375048 0.937206 0.500512 0.015884
C12   C     C_R   0.424381 0.482518 0.698008 0.775121
C13   C     C_R   0.493632 0.870857 0.512773 -0.069939
C14   C     C_R   0.605865 0.935563 0.538157 -0.214119
C15   C     C_R   0.606809 0.064726 0.537463 -0.232670
C16   C     C_R   0.495773 0.129770 0.511097 -0.077694
C17   C     C_R   0.376983 0.064529 0.498826 0.026659
C18   C     C_3   0.301555 0.067036 0.415062 0.360102
C19   C     C_3   0.298443 0.925406 0.417965 -0.527877
C20   C     C_R   0.947955 0.408644 0.448171 0.237066
C21   C     C_R   0.899390 0.582945 0.558442 -0.072434
C22   C     C_R   0.044994 0.580778 0.563701 0.185657
C23   C     C_R   0.499856 0.262628 0.501455 0.824757
C24   C     C_R   0.095551 0.410186 0.446466 0.232674
C25   C     C_3   0.143240 0.386751 0.331712 -0.505315
C26   C     C_3   0.985449 0.379722 0.334392 -0.506332
C27   C     C_R   0.577636 0.498580 0.299816 0.810360
C28   C     C_R   0.807005 0.469099 0.018995 -0.210450
C29   C     C_R   0.622069 0.486086 0.185164 -0.055047
C30   C     C_R   0.239179 0.424122 0.862065 -0.203232
C31   C     C_R   0.199180 0.397240 0.967685 -0.155446
C32   C     C_R   0.300125 0.403459 0.023619 -0.183927
Cu1   Cu    Cu3+1 0.359330 0.500020 0.500010 0.937228
Cu2   Cu    Cu3+1 0.640670 0.499980 0.499990 0.924775
H1    H     H_    0.851462 0.514085 0.162934 0.145093
H2    H     H_    0.696957 0.112792 0.553121 0.158035
H3    H     H_    0.191242 0.109346 0.445353 0.083739
H4    H     H_    0.186988 0.889706 0.450279 0.163136
H5    H     H_    0.363143 0.873103 0.347506 0.196292
H6    H     H_    0.823789 0.653693 0.600194 0.158705
H7    H     H_    0.194614 0.469564 0.290558 0.201459
H8    H     H_    0.203543 0.297921 0.308497 0.243598
H9    H     H_    0.952627 0.454523 0.290270 0.215196
H10   H     H_    0.855979 0.389074 0.821738 0.135853
H11   H     H_    0.951908 0.285200 0.317576 0.196458
H12   H     H_    0.918226 0.479138 0.973376 0.131926
H13   H     H_    0.405063 0.469901 0.178756 0.144907
H14   H     H_    0.156462 0.426151 0.821990 0.138900
H15   H     H_    0.261556 0.385733 0.105767 0.138783
H16   H     H_    0.089321 0.372950 0.007895 0.141233
H17   H     H_    0.677725 0.370073 0.729192 0.182942
H18   H     H_    0.695713 0.886790 0.554069 0.155478
N1    N     N_R   0.852320 0.499070 0.499340 -0.209381
N2    N     N_R   0.148230 0.499110 0.499340 -0.209441
O1    O     O_R   0.381190 0.680360 0.500000 -0.596048
O2    O     O_R   0.618780 0.680320 0.499990 -0.585862
O3    O     O_R   0.323230 0.500000 0.650990 -0.599022
O4    O     O_R   0.560820 0.499960 0.650980 -0.592449
O5    O     O_R   0.381220 0.319680 0.500010 -0.567820
O6    O     O_R   0.618810 0.319640 0.500000 -0.596031
O7    O     O_R   0.439180 0.500040 0.349020 -0.572658
O8    O     O_R   0.676770 0.500000 0.349010 -0.581641
O9    O     O_3   0.381186 0.124614 0.321386 -0.575115
C33   C     C_3   0.510135 0.061878 0.264393 -0.289609
H19   H     H_    0.485283 0.989770 0.211932 0.165119
H20   H     H_    0.572047 0.021230 0.314292 0.167239
H21   H     H_    0.581967 0.129579 0.214174 0.181512
C34   C     C_3   0.077480 0.675278 0.639888 -0.372747
C35   C     C_3   0.001194 0.650076 0.755363 -0.377381
C36   C     C_3   0.849397 0.708281 0.796983 -0.820652
H22   H     H_    0.847696 0.804960 0.771168 0.242709
H23   H     H_    0.768162 0.653160 0.772123 0.259923
H24   H     H_    0.816687 0.709558 0.883562 0.246865
H25   H     H_    0.996664 0.549428 0.767443 0.213640
H26   H     H_    0.068167 0.689159 0.803480 0.211076
H27   H     H_    0.191345 0.677158 0.635811 0.242136
H28   H     H_    0.049865 0.769795 0.619797 0.163141

loop_
_geom_bond_atom_site_label_1
_geom_bond_atom_site_label_2
_ccdc_geom_bond_type
Cu1   O1    S    
Cu2   O2    S    
C27   C29   S    
C4    C8    A    
C22   N2    A    
C23   O5    A    
C28   H12   S    
C8    C29   A    
C19   H5    S    
C30   H14   S    
C19   H4    S    
C18   H3    S    
C3    C7    A    
C5    C6    A    
C18   O9    S    
C24   N2    A    
C15   C16   A    
Cu2   O8    S    
C2    C32   A    
C18   C19   S    
C27   O7    A    
C26   H11   S    
C34   C35   S    
C14   H18   S    
C20   C24   A    
C16   C17   A    
C36   H22   S    
C9    C29   A    
C12   O4    A    
Cu1   O5    S    
C6    H10   S    
C21   C22   A    
Cu2   O6    S    
C26   H9    S    
Cu1   Cu2   S    
C23   O6    A    
C34   H28   S    
C33   H21   S    
C24   C25   S    
C25   H7    S    
C20   N1    A    
C25   C26   S    
C33   H20   S    
C2    C4    A    
C27   O8    A    
C5    C28   A    
C10   C30   A    
C31   C32   A    
C11   C19   S    
C36   H24   S    
C17   C18   S    
C35   H25   S    
C22   C34   S    
C10   C12   S    
C12   O3    A    
C16   C23   S    
C1    C13   S    
C31   H16   S    
C15   H2    S    
C9    H1    S    
Cu1   N2    S    
C11   C17   A    
Cu1   O3    S    
C1    O2    A    
C4    C5    A    
C25   H8    S    
C6    C7    A    
C34   H27   S    
C33   H19   S    
C2    C3    A    
C1    O1    A    
C8    H13   S    
C7    H17   S    
C3    C10   A    
C21   N1    A    
C11   C13   A    
C30   C31   A    
C21   H6    S    
C20   C26   S    
C35   H26   S    
C35   C36   S    
C32   H15   S    
O9    C33   S    
Cu2   N1    S    
Cu1   O7    S    
Cu2   O4    S    
C14   C15   A    
C36   H23   S    
C13   C14   A    
C9    C28   A    
