data_mof_unit_13924.cif
_audit_creation_date              2012-12-10T20:25:44-0500
_audit_creation_method            fapswitch 2.2
_symmetry_space_group_name_H-M    P1
_symmetry_Int_Tables_number       1
_space_group_crystal_system       triclinic
_cell_length_a                    8.632824
_cell_length_b                    10.708103
_cell_length_c                    9.877771
_cell_angle_alpha                 89.756124
_cell_angle_beta                  98.075319
_cell_angle_gamma                 90.261745
_cell_volume                      904.043048309

loop_
_atom_site_label
_atom_site_type_symbol
_atom_type_description
_atom_site_fract_x
_atom_site_fract_y
_atom_site_fract_z
_atom_type_partial_charge
Br1   Br    Br    0.953736 0.417665 0.263244 -0.385334
Br2   Br    Br    0.103912 0.309398 0.813340 -0.439697
Br3   Br    Br    0.721051 0.145198 0.286099 -0.294621
Br4   Br    Br    0.132339 0.127402 0.481488 -0.409666
C1    C     C_R   0.504483 0.260058 0.500436 1.003365
C2    C     C_R   0.376222 0.450728 0.914394 0.205388
C3    C     C_3   0.318177 0.318995 0.904195 0.027598
C4    C     C_R   0.201846 0.496855 0.464271 0.906199
C5    C     C_3   0.324539 0.317291 0.058555 -0.443015
C6    C     C_R   0.504241 0.739415 0.500360 0.935112
C7    C     C_R   0.798423 0.498380 0.534475 1.000220
C8    C     C_2   0.038791 0.481189 0.442917 0.145191
C9    C     C_2   0.962451 0.504456 0.549030 -0.370667
C10   C     C_R   0.448082 0.061959 0.599956 -0.067636
C11   C     C_R   0.517971 0.127779 0.502579 -0.224775
C12   C     C_R   0.605744 0.934004 0.415734 0.618420
C13   C     C_R   0.605685 0.063709 0.414158 0.193683
C14   C     C_R   0.519171 0.870608 0.504166 -0.330728
C15   C     C_R   0.451039 0.934542 0.601855 -0.003340
C16   C     C_3   0.288281 0.922488 0.634330 0.472677
C17   C     C_3   0.282603 0.063719 0.630859 0.020507
C18   C     C_R   0.378080 0.449092 0.057010 0.176227
C19   C     C_R   0.612155 0.561945 0.085329 -0.004658
C20   C     C_R   0.612962 0.561071 0.941527 -0.050045
F1    F     F_    0.685282 0.870367 0.328797 -0.613984
F2    F     F_    0.286543 0.874575 0.764512 -0.615550
H1    H     H_    0.705956 0.608244 0.898575 0.171362
H2    H     H_    0.402706 0.254429 0.866425 0.159263
H3    H     H_    0.208840 0.308532 0.094791 0.272050
H4    H     H_    0.415976 0.253939 0.110519 0.225946
H5    H     H_    0.021730 0.535871 0.647515 0.190084
H6    H     H_    0.206801 0.874237 0.553813 0.099378
H7    H     H_    0.272770 0.103606 0.732156 0.207327
H8    H     H_    0.703919 0.610626 0.150469 0.197855
N1    N     N_R   0.498950 0.499140 0.142680 -0.116624
N2    N     N_R   0.498950 0.499180 0.857030 -0.134016
O1    O     O_R   0.500020 0.316790 0.614690 -0.618232
O2    O     O_R   0.500000 0.316760 0.385350 -0.596449
O3    O     O_R   0.271760 0.500010 0.587850 -0.614980
O4    O     O_R   0.271740 0.499970 0.358500 -0.596589
O5    O     O_R   0.500000 0.683240 0.614650 -0.597909
O6    O     O_R   0.499980 0.683210 0.385310 -0.575410
O7    O     O_R   0.728260 0.500030 0.641500 -0.619639
O8    O     O_R   0.728240 0.499990 0.412150 -0.578257
Zn1   Zn    Zn3+2 0.500010 0.500020 0.653130 1.022601
Zn2   Zn    Zn3+2 0.499990 0.499980 0.346870 1.051368

loop_
_geom_bond_atom_site_label_1
_geom_bond_atom_site_label_2
_ccdc_geom_bond_type
C19   C20   A    
C7    O7    A    
C2    C3    S    
Br4   C17   S    
C4    O3    A    
C1    O1    A    
C4    C8    S    
C6    O6    A    
O7    Zn1   S    
Br2   C3    S    
C20   H1    S    
C5    H3    S    
O3    Zn1   S    
C19   H8    S    
C7    O8    A    
C1    O2    A    
C8    C9    D    
C6    O5    A    
O4    Zn2   S    
C18   N1    A    
C7    C9    S    
C20   N2    A    
Br1   C8    S    
C16   F2    S    
C5    H4    S    
C6    C14   S    
C10   C17   S    
O8    Zn2   S    
Br3   C13   S    
C19   N1    A    
C16   H6    S    
C5    C18   S    
C1    C11   S    
O2    Zn2   S    
O1    Zn1   S    
C2    C18   A    
C3    C5    S    
N2    Zn1   S    
C17   H7    S    
C16   C17   S    
C12   C14   A    
C14   C15   A    
O6    Zn2   S    
C12   F1    S    
C11   C13   A    
O5    Zn1   S    
C10   C11   A    
C4    O4    A    
N1    Zn2   S    
C10   C15   A    
C9    H5    S    
C3    H2    S    
C15   C16   S    
C2    N2    A    
C12   C13   A    
