data_mof_unit_42232.cif
_audit_creation_date              2012-12-10T17:37:25-0500
_audit_creation_method            fapswitch 2.2
_symmetry_space_group_name_H-M    P1
_symmetry_Int_Tables_number       1
_space_group_crystal_system       triclinic
_cell_length_a                    12.000185
_cell_length_b                    12.867765
_cell_length_c                    16.836774
_cell_angle_alpha                 91.337448
_cell_angle_beta                  80.81313
_cell_angle_gamma                 93.030029
_cell_volume                      2562.63027748

loop_
_atom_site_label
_atom_site_type_symbol
_atom_type_description
_atom_site_fract_x
_atom_site_fract_y
_atom_site_fract_z
_atom_type_partial_charge
C1    C     C_R   0.521918 0.700307 0.498922 0.882891
C2    C     C_R   0.548876 0.132555 0.523889 -0.274906
C3    C     C_R   0.453001 0.974452 0.485347 0.093823
C4    C     C_R   0.544876 0.025434 0.516628 0.090709
C5    C     C_R   0.965454 0.401045 0.423849 -0.143286
C6    C     C_R   0.033295 0.594375 0.578973 -0.134776
C7    C     C_R   0.846553 0.409518 0.432498 0.320860
C8    C     C_R   0.151951 0.585400 0.571129 0.315292
C9    C     C_R   0.852925 0.542194 0.532138 -0.098738
C10   C     C_R   0.147522 0.459448 0.466344 -0.104192
C11   C     C_R   0.971397 0.535167 0.527606 -0.016021
C12   C     C_R   0.478090 0.299712 0.500758 0.923470
C13   C     C_R   0.028744 0.465230 0.471504 -0.020865
C14   C     C_R   0.484168 0.499024 0.653281 0.927718
C15   C     C_R   0.516929 0.507404 0.346100 0.884837
C16   C     C_R   0.476616 0.494445 0.739367 -0.182959
C17   C     C_R   0.532504 0.538567 0.260991 -0.219240
C18   C     C_R   0.500915 0.400208 0.772746 0.158961
C19   C     C_R   0.439290 0.539693 0.218265 0.122870
C20   C     C_R   0.534416 0.402189 0.849176 0.171009
C21   C     C_R   0.458081 0.566556 0.136996 0.227953
C22   C     C_R   0.539308 0.497852 0.891653 0.026968
C23   C     C_R   0.464862 0.188721 0.499489 -0.107814
C24   C     C_R   0.569078 0.590378 0.098247 0.026820
C25   C     C_R   0.505186 0.588570 0.859784 -0.199855
C26   C     C_R   0.658321 0.599481 0.141225 -0.274092
C27   C     C_R   0.476729 0.588382 0.783343 0.147699
C28   C     C_R   0.640870 0.577297 0.222824 0.181755
C29   C     C_2   0.565360 0.500536 0.973739 -0.181075
C30   C     C_2   0.593899 0.588479 0.010977 -0.238134
C31   C     C_3   0.391329 0.264035 0.713018 -0.803985
C32   C     C_3   0.262718 0.603313 0.287429 -0.713226
C33   C     C_3   0.230053 0.752766 0.612243 -0.754965
C34   C     C_R   0.534954 0.811341 0.500262 -0.104194
C35   C     C_3   0.793552 0.346963 0.304328 -0.726779
C36   C     C_R   0.021330 0.322391 0.367751 0.135810
C37   C     C_R   0.072255 0.350198 0.289708 -0.170396
C38   C     C_R   0.123623 0.275168 0.236735 -0.147553
C39   C     C_R   0.123873 0.172160 0.261243 -0.120669
C40   C     C_R   0.073103 0.144160 0.338851 -0.152813
C41   C     C_R   0.022993 0.219259 0.392299 -0.174932
C42   C     C_R   0.974194 0.661885 0.642770 0.128204
C43   C     C_R   0.951513 0.764134 0.625620 -0.171934
C44   C     C_R   0.894238 0.827048 0.685811 -0.155050
C45   C     C_R   0.630951 0.968230 0.539802 0.226594
C46   C     C_R   0.856477 0.787376 0.762543 -0.120695
C47   C     C_R   0.876999 0.684923 0.779470 -0.125242
C48   C     C_R   0.936204 0.622334 0.719867 -0.163256
C49   C     C_3   0.732567 0.699486 0.304640 -0.709826
C50   C     C_3   0.550564 0.754588 0.728321 -0.797977
C51   C     C_3   0.305281 0.471925 0.079975 -0.778346
C52   C     C_3   0.478978 0.243170 0.922839 -0.828230
C53   C     C_3   0.825321 0.031486 0.520771 -0.844920
C54   C     C_3   0.166356 0.982486 0.493335 -0.847802
C55   C     C_R   0.365025 0.031453 0.464597 0.224201
C56   C     C_R   0.625219 0.860689 0.531325 -0.277598
C57   C     C_R   0.372549 0.139245 0.470919 -0.266686
C58   C     C_R   0.450921 0.867557 0.475838 -0.282473
H1    H     H_    0.623012 0.659713 0.979223 0.149120
H2    H     H_    0.806551 0.595933 0.573613 0.157864
H3    H     H_    0.552084 0.249559 0.741366 0.256446
H4    H     H_    0.400613 0.190125 0.677811 0.243299
H5    H     H_    0.349979 0.319030 0.678750 0.258890
H6    H     H_    0.335937 0.248070 0.771198 0.233263
H7    H     H_    0.312162 0.448234 0.288470 0.236474
H8    H     H_    0.302703 0.642969 0.335799 0.247301
H9    H     H_    0.258769 0.659814 0.239213 0.238892
H10   H     H_    0.175094 0.577060 0.312945 0.216038
H11   H     H_    0.192597 0.621507 0.683647 0.206970
H12   H     H_    0.544658 0.430776 0.009339 0.176192
H13   H     H_    0.316211 0.779835 0.621641 0.246952
H14   H     H_    0.169032 0.794334 0.656743 0.228603
H15   H     H_    0.218988 0.773405 0.550371 0.246579
H16   H     H_    0.775680 0.263640 0.410960 0.209241
H17   H     H_    0.709228 0.346361 0.285246 0.241376
H18   H     H_    0.838412 0.279173 0.275373 0.223705
H19   H     H_    0.842253 0.419388 0.282909 0.225859
H20   H     H_    0.070633 0.429277 0.269629 0.134239
H21   H     H_    0.162288 0.296570 0.176474 0.132058
H22   H     H_    0.162944 0.113975 0.220009 0.121356
H23   H     H_    0.500353 0.660932 0.893880 0.154971
H24   H     H_    0.072142 0.064210 0.357416 0.141228
H25   H     H_    0.985199 0.197424 0.452597 0.126513
H26   H     H_    0.979323 0.795177 0.566111 0.130339
H27   H     H_    0.879625 0.906647 0.673089 0.135888
H28   H     H_    0.811361 0.836013 0.808867 0.119087
H29   H     H_    0.847224 0.654110 0.838787 0.129629
H30   H     H_    0.951756 0.543037 0.733463 0.124753
H31   H     H_    0.810330 0.583417 0.233466 0.204497
H32   H     H_    0.796822 0.704558 0.345463 0.232402
H33   H     H_    0.648690 0.713490 0.340583 0.237680
H34   H     H_    0.742493 0.621837 0.110826 0.152392
H35   H     H_    0.753548 0.760830 0.258490 0.213024
H36   H     H_    0.402105 0.677164 0.706566 0.240682
H37   H     H_    0.523643 0.827575 0.704829 0.237110
H38   H     H_    0.612367 0.718314 0.680900 0.245037
H39   H     H_    0.591797 0.774848 0.781554 0.245161
H40   H     H_    0.373752 0.621195 0.047088 0.226174
H41   H     H_    0.214329 0.477252 0.104744 0.245995
H42   H     H_    0.338946 0.405811 0.108604 0.228854
H43   H     H_    0.313592 0.455393 0.014292 0.231718
H44   H     H_    0.637647 0.319713 0.910620 0.225294
H45   H     H_    0.618299 0.173141 0.547548 0.198678
H46   H     H_    0.514510 0.172409 0.943341 0.240262
H47   H     H_    0.417630 0.218127 0.882730 0.259043
H48   H     H_    0.434227 0.284578 0.976173 0.232136
H49   H     H_    0.730148 0.984138 0.628441 0.220698
H50   H     H_    0.888342 0.074935 0.552120 0.237542
H51   H     H_    0.812822 0.076505 0.467633 0.251860
H52   H     H_    0.858718 0.954678 0.500551 0.240128
H53   H     H_    0.259914 0.005943 0.380359 0.222357
H54   H     H_    0.100563 0.931055 0.470912 0.234314
H55   H     H_    0.135950 0.062748 0.500879 0.243122
H56   H     H_    0.382941 0.827140 0.450446 0.187639
H57   H     H_    0.179418 0.954166 0.552783 0.259824
H58   H     H_    0.307480 0.184088 0.452258 0.168450
H59   H     H_    0.689459 0.815839 0.551068 0.164271
H60   H     H_    0.193995 0.406539 0.424236 0.155702
N1    N     N_R   0.206400 0.519440 0.514690 -0.117938
N2    N     N_2   0.569425 0.309295 0.880490 -0.320442
N3    N     N_2   0.719917 0.017860 0.575332 -0.318059
N4    N     N_2   0.270236 0.980929 0.436346 -0.320767
N5    N     N_R   0.793600 0.480560 0.485310 -0.118162
N6    N     N_2   0.501532 0.305805 0.726124 -0.304033
N7    N     N_2   0.325844 0.514892 0.254891 -0.282512
N8    N     N_2   0.215289 0.641448 0.624073 -0.264727
N9    N     N_2   0.779560 0.339150 0.391090 -0.254988
N10   N     N_2   0.732315 0.597692 0.266338 -0.276626
N11   N     N_2   0.452961 0.684231 0.750309 -0.308261
N12   N     N_2   0.364604 0.570022 0.094205 -0.288905
O1    O     O_R   0.421320 0.658850 0.503920 -0.601426
O2    O     O_R   0.578680 0.341150 0.496080 -0.607956
O3    O     O_R   0.609840 0.646370 0.494500 -0.628909
O4    O     O_R   0.390160 0.353630 0.505500 -0.632113
O5    O     O_R   0.394600 0.506990 0.621070 -0.621924
O6    O     O_R   0.605400 0.493010 0.378930 -0.557240
O7    O     O_R   0.583120 0.494520 0.611640 -0.609522
O8    O     O_R   0.416880 0.505480 0.388360 -0.630595
Zn1   Zn    Zn3+2 0.374120 0.508330 0.506290 0.939384
Zn2   Zn    Zn3+2 0.625880 0.491670 0.493710 0.967610

loop_
_geom_bond_atom_site_label_1
_geom_bond_atom_site_label_2
_ccdc_geom_bond_type
C53   H52   S    
C5    C36   S    
C34   C56   A    
C22   C29   S    
C56   H59   S    
C20   N2    S    
C49   H32   S    
O6    Zn2   S    
O5    Zn1   S    
C12   C23   S    
C35   H17   S    
C29   C30   D    
H3    N6    S    
C58   H56   S    
C36   C37   A    
C19   C21   A    
C24   C26   A    
C31   N6    S    
C38   C39   A    
C50   H37   S    
C38   H21   S    
C26   H34   S    
C41   H25   S    
C54   H55   S    
C23   C57   A    
C10   N1    A    
C33   H14   S    
C9    N5    A    
C3    C55   A    
O2    Zn2   S    
H16   N9    S    
C45   C56   A    
C22   C25   A    
C48   H30   S    
C5    C13   A    
C32   H10   S    
C15   O8    A    
C16   C27   A    
C54   N4    S    
C55   N4    S    
C52   H48   S    
C12   O4    A    
C30   H1    S    
H53   N4    S    
C25   H23   S    
C43   H26   S    
C31   H4    S    
C36   C41   A    
C49   H33   S    
C1    O3    A    
C51   N12   S    
C44   C46   A    
C1    C34   S    
C57   H58   S    
C4    C45   A    
C51   H41   S    
O7    Zn2   S    
C35   H18   S    
H36   N11   S    
C40   H24   S    
C6    C11   A    
C5    C7    A    
C6    C8    A    
C15   O6    A    
C45   N3    S    
N5    Zn2   S    
C19   N7    S    
H7    N7    S    
C32   N7    S    
C2    C4    A    
C43   C44   A    
C37   C38   A    
C10   H60   S    
C50   N11   S    
C31   H5    S    
C47   C48   A    
C14   O7    A    
C54   H57   S    
H40   N12   S    
C54   H54   S    
C42   C48   A    
C35   N9    S    
C9    C11   A    
C32   H9    S    
C44   H27   S    
C52   N2    S    
C33   H15   S    
C40   C41   A    
C20   C22   A    
C52   H47   S    
C55   C57   A    
C27   N11   S    
C14   C16   S    
C51   H43   S    
C42   C43   A    
H49   N3    S    
C3    C4    A    
O4    Zn1   S    
H44   N2    S    
C32   H8    S    
C29   H12   S    
C8    N8    S    
C51   H42   S    
C15   C17   S    
C49   N10   S    
C46   C47   A    
C52   H46   S    
C50   H39   S    
C12   O2    A    
C17   C28   A    
C31   H6    S    
C7    N5    A    
C1    O1    A    
C10   C13   A    
H11   N8    S    
C25   C27   A    
C37   H20   S    
C26   C28   A    
C49   H35   S    
C9    H2    S    
N1    Zn1   S    
C39   H22   S    
C53   N3    S    
C11   C13   A    
C53   H50   S    
C50   H38   S    
C2    H45   S    
C33   N8    S    
C17   C19   A    
C35   H19   S    
C18   C20   A    
C24   C30   S    
C21   N12   S    
O1    Zn1   S    
O8    Zn1   S    
C33   H13   S    
C39   C40   A    
C3    C58   A    
O3    Zn2   S    
C16   C18   A    
C6    C42   S    
C21   C24   A    
C2    C23   A    
C34   C58   A    
C53   H51   S    
C7    N9    S    
C14   O5    A    
C28   N10   S    
C8    N1    A    
C18   N6    S    
C46   H28   S    
H31   N10   S    
C47   H29   S    
