data_mof_unit_61187.cif
_audit_creation_date              2012-12-10T19:04:24-0500
_audit_creation_method            fapswitch 2.2
_symmetry_space_group_name_H-M    P1
_symmetry_Int_Tables_number       1
_space_group_crystal_system       triclinic
_cell_length_a                    10.689531
_cell_length_b                    13.04472
_cell_length_c                    13.626162
_cell_angle_alpha                 85.672364
_cell_angle_beta                  89.928495
_cell_angle_gamma                 92.625622
_cell_volume                      1892.63096523

loop_
_atom_site_label
_atom_site_type_symbol
_atom_type_description
_atom_site_fract_x
_atom_site_fract_y
_atom_site_fract_z
_atom_type_partial_charge
C1    C     C_R   0.499513 0.481118 0.685129 0.893135
C2    C     C_1   0.499189 0.465686 0.788203 -0.189919
C3    C     C_2   0.464398 0.033166 0.473202 -0.233322
C4    C     C_R   0.742693 0.499331 0.496732 0.853312
C5    C     C_2   0.535883 0.966878 0.526626 -0.242489
C6    C     C_1   0.525981 0.854775 0.519433 0.135534
C7    C     C_1   0.474160 0.145244 0.480488 0.147473
C8    C     C_R   0.501392 0.518827 0.314866 0.886355
C9    C     C_R   0.257614 0.500913 0.498358 0.870302
C10   C     C_3   0.925209 0.460632 0.604438 0.029060
C11   C     C_3   0.070845 0.478372 0.608690 0.002438
C12   C     C_3   0.121809 0.500311 0.500850 0.091942
C13   C     C_3   0.929768 0.429924 0.415087 0.005382
C14   C     C_3   0.934776 0.608071 0.471973 -0.526679
C15   C     C_3   0.878872 0.496095 0.497502 0.113863
C16   C     C_3   0.877446 0.351470 0.644431 -0.864176
C17   C     C_3   0.140074 0.395569 0.672405 -0.863747
C18   C     C_3   0.862579 0.325914 0.396078 -0.858486
C19   C     C_3   0.069409 0.416807 0.433757 -0.378619
C20   C     C_3   0.076876 0.606848 0.460145 -0.492208
C21   C     C_1   0.502470 0.533593 0.211762 -0.160273
C22   C     C_2   0.503128 0.540837 0.020755 -0.238313
C23   C     C_2   0.499487 0.451507 0.979378 0.208967
C24   C     C_1   0.499156 0.455545 0.875563 -0.018290
C25   C     C_1   0.503043 0.541101 0.124343 0.057951
H1    H     H_    0.103116 0.621361 0.381025 0.193627
H2    H     H_    0.894164 0.642670 0.402552 0.197929
H3    H     H_    0.912593 0.658578 0.531454 0.203550
H4    H     H_    0.120507 0.670565 0.500185 0.207348
H5    H     H_    0.894628 0.340870 0.724748 0.238539
H6    H     H_    0.775078 0.339321 0.636858 0.257053
H7    H     H_    0.925622 0.290680 0.608836 0.250834
H8    H     H_    0.138001 0.320883 0.638462 0.257178
H9    H     H_    0.239121 0.421158 0.682773 0.233475
H10   H     H_    0.098850 0.384783 0.747424 0.244422
H11   H     H_    0.842773 0.276441 0.464111 0.261874
H12   H     H_    0.922216 0.476424 0.343358 0.159222
H13   H     H_    0.773437 0.338726 0.356197 0.261442
H14   H     H_    0.921017 0.282797 0.347349 0.235565
H15   H     H_    0.119578 0.422929 0.361638 0.151090
H16   H     H_    0.505833 0.614024 0.976745 0.146110
H17   H     H_    0.604086 0.996725 0.577474 0.164598
H18   H     H_    0.396196 0.003327 0.422353 0.167583
H19   H     H_    0.884797 0.513177 0.655761 0.120224
H20   H     H_    0.089518 0.550207 0.646813 0.139699
H21   H     H_    0.084786 0.338801 0.469306 0.205719
I1    I     I_    0.494087 0.304718 0.058925 -0.364270
N1    N     N_1   0.479840 0.234530 0.484780 -0.093559
N2    N     N_1   0.520150 0.765470 0.515220 -0.095191
O1    O     O_R   0.492620 0.402510 0.634760 -0.606166
O2    O     O_R   0.505570 0.572960 0.644530 -0.604153
O3    O     O_R   0.678730 0.414780 0.495130 -0.614934
O4    O     O_R   0.691680 0.585220 0.504900 -0.627844
O5    O     O_R   0.494430 0.427040 0.355470 -0.592850
O6    O     O_R   0.507380 0.597490 0.365240 -0.611810
O7    O     O_R   0.308320 0.414780 0.495100 -0.617569
O8    O     O_R   0.321270 0.585220 0.504870 -0.626349
Zn1   Zn    Zn3+2 0.491360 0.386190 0.493470 0.967146
Zn2   Zn    Zn3+2 0.508640 0.613810 0.506530 0.961274

loop_
_geom_bond_atom_site_label_1
_geom_bond_atom_site_label_2
_ccdc_geom_bond_type
C11   C12   S    
N1    Zn1   S    
O6    Zn2   S    
C4    O4    A    
C16   H7    S    
C1    O1    A    
C14   H2    S    
C13   H12   S    
N2    Zn2   S    
C10   H19   S    
C18   H14   S    
C10   C11   S    
C7    N1    T    
C12   C20   S    
C4    C15   S    
C8    C21   S    
O4    Zn2   S    
C19   H21   S    
C20   H1    S    
C9    O7    A    
C10   C16   S    
C16   H6    S    
C2    C24   T    
C1    O2    A    
C3    H18   S    
C17   H8    S    
C13   C18   S    
C4    O3    A    
C19   H15   S    
C8    O6    A    
C5    H17   S    
O7    Zn1   S    
C3    C7    S    
C20   H4    S    
C13   C15   S    
C6    N2    T    
C18   H13   S    
C5    C6    S    
O3    Zn1   S    
C9    C12   S    
C11   H20   S    
C22   H16   S    
O8    Zn2   S    
C17   H9    S    
C13   C19   S    
C23   C24   S    
C16   H5    S    
O1    Zn1   S    
C14   C20   S    
O2    Zn2   S    
C12   C19   S    
C9    O8    A    
C1    C2    S    
O5    Zn1   S    
C8    O5    A    
C21   C25   T    
C14   C15   S    
C11   C17   S    
C17   H10   S    
C14   H3    S    
C10   C15   S    
C22   C23   D    
C18   H11   S    
C3    C5    D    
C22   C25   S    
C23   I1    S    
