data_mof_unit_35754.cif
_audit_creation_date              2012-12-11T14:27:50-0500
_audit_creation_method            fapswitch 2.2
_symmetry_space_group_name_H-M    P1
_symmetry_Int_Tables_number       1
_space_group_crystal_system       triclinic
_cell_length_a                    6.939476
_cell_length_b                    14.860731
_cell_length_c                    16.078937
_cell_angle_alpha                 90.885153
_cell_angle_beta                  89.628043
_cell_angle_gamma                 89.534651
_cell_volume                      1657.86254852

loop_
_atom_site_label
_atom_site_type_symbol
_atom_type_description
_atom_site_fract_x
_atom_site_fract_y
_atom_site_fract_z
_atom_type_partial_charge
O1    O     O_R   0.494510 0.415970 0.413200 -0.543719
O2    O     O_R   0.823800 0.407430 0.586200 -0.558619
O3    O     O_R   0.994130 0.584030 0.586800 -0.530150
C1    C     C_R   0.654796 0.390416 0.617705 0.590196
O4    O     O_R   0.824220 0.405090 0.413820 -0.504904
O5    O     O_R   0.994560 0.581670 0.413190 -0.512715
C2    C     C_R   0.655896 0.381586 0.386547 0.776720
O6    O     O_R   0.494090 0.418330 0.586810 -0.558241
O7    O     O_3   0.660810 0.557940 0.500000 -0.363851
V1    V     V_3+5 0.935650 0.489250 0.500000 1.502915
O8    O     O_R   0.324270 0.592570 0.413800 -0.555156
C3    C     C_R   0.154985 0.616583 0.387319 0.691202
O9    O     O_R   0.323850 0.594910 0.586180 -0.541112
C4    C     C_R   0.154492 0.614437 0.616589 0.752570
V2    V     V_3+5 0.435660 0.510750 0.500000 1.447543
O10   O     O_3   0.160630 0.442060 0.500000 -0.382643
C5    C     C_3   0.061902 0.667868 0.776600 0.426581
C6    C     C_3   0.237430 0.715795 0.816309 -0.333281
H1    H     H_    0.320425 0.693864 0.871288 0.120554
C7    C     C_3   0.125459 0.806577 0.809466 -0.225997
C8    C     C_3   0.947617 0.757895 0.772162 -0.263754
C9    C     C_3   0.034597 0.771728 0.684605 0.247708
C10   C     C_3   0.209599 0.819989 0.721308 0.413250
C11   C     C_3   0.317569 0.729558 0.727166 0.347876
C12   C     C_3   0.143380 0.681256 0.687860 -0.222167
H2    H     H_    0.797677 0.772866 0.792331 0.176163
C13   C     C_2   0.003487 0.693085 0.267527 0.299173
C14   C     C_2   0.142835 0.692310 0.326670 0.298832
C15   C     C_2   0.983089 0.770514 0.209322 -0.284998
C16   C     C_2   0.131532 0.800058 0.162652 0.349406
H3    H     H_    0.839946 0.798955 0.200962 0.105021
C17   C     C_2   0.776536 0.207213 0.777170 0.296091
C18   C     C_2   0.613284 0.167154 0.804940 0.311644
C19   C     C_2   0.772376 0.266440 0.702737 -0.278929
C20   C     C_2   0.643592 0.333943 0.693233 0.348465
H4    H     H_    0.881377 0.253740 0.655048 0.072501
C21   C     C_2   0.766566 0.194661 0.220426 -0.225885
C22   C     C_2   0.615297 0.187519 0.168005 0.154467
H5    H     H_    0.883747 0.146148 0.213988 0.104034
C23   C     C_2   0.793043 0.267739 0.284522 0.515466
C24   C     C_2   0.641351 0.308353 0.323481 -0.365091
H6    H     H_    0.496918 0.284578 0.311707 0.159291
O11   O     O_R   0.771000 0.074870 0.906030 -0.518739
O12   O     O_R   0.440710 0.088040 0.078970 -0.546586
O13   O     O_R   0.270540 0.911420 0.079570 -0.523769
C25   C     C_R   0.608788 0.112092 0.105925 0.655480
O14   O     O_R   0.441280 0.085700 0.906600 -0.527876
O15   O     O_R   0.271110 0.909060 0.905960 -0.538692
C26   C     C_R   0.609945 0.106032 0.877380 0.679850
O16   O     O_R   0.770430 0.077230 0.079640 -0.543200
O17   O     O_3   0.604340 0.935220 0.992820 -0.377456
V3    V     V_3+5 0.329430 0.003850 0.992770 1.495991
O18   O     O_R   0.941400 0.898110 0.906530 -0.550375
C27   C     C_R   0.111499 0.876590 0.877777 0.756914
O19   O     O_R   0.940830 0.900450 0.078910 -0.562191
C28   C     C_R   0.110926 0.876502 0.104822 0.622205
V4    V     V_3+5 0.829450 0.982250 0.992700 1.454664
O20   O     O_3   0.104410 0.051000 0.992740 -0.354712
O21   O     O_3   0.310823 0.758896 0.168944 -0.535640
C29   C     C_3   0.337195 0.699749 0.100288 -0.269387
H7    H     H_    0.342605 0.736803 0.040715 0.123947
H8    H     H_    0.222594 0.647741 0.097949 0.135574
H9    H     H_    0.477308 0.664276 0.107218 0.157140
O22   O     O_3   0.951138 0.187739 0.813882 -0.643235
H10   H     H_    0.052289 0.222866 0.785595 0.309486
O23   O     O_3   0.440373 0.184404 0.765389 -0.558638
C30   C     C_3   0.392493 0.109603 0.715201 -0.259281
H11   H     H_    0.346253 0.052913 0.754406 0.209865
H12   H     H_    0.513724 0.088722 0.673225 0.116066
H13   H     H_    0.268922 0.128320 0.675423 0.160093
O24   O     O_3   0.528628 0.359552 0.761320 -0.547024
C31   C     C_3   0.334455 0.373877 0.738783 -0.086635
H14   H     H_    0.283720 0.324638 0.690930 0.125408
H15   H     H_    0.311342 0.443691 0.717710 0.111983
H16   H     H_    0.243003 0.365546 0.794913 0.160846
O25   O     O_3   0.472720 0.253189 0.169058 -0.638838
H17   H     H_    0.381891 0.241346 0.122983 0.307764
O26   O     O_3   0.979158 0.293773 0.303559 -0.528068
C32   C     C_3   0.059931 0.230834 0.358456 -0.192728
H18   H     H_    0.100006 0.167407 0.324936 0.118790
H19   H     H_    0.962235 0.216562 0.411879 0.092089
H20   H     H_    0.193528 0.259623 0.384873 0.154890
O27   O     O_3   0.986387 0.584593 0.801578 -0.564268
C33   C     C_3   0.954182 0.586444 0.888201 -0.265844
H21   H     H_    0.869011 0.646662 0.908850 0.122707
H22   H     H_    0.092986 0.583259 0.922144 0.143238
H23   H     H_    0.870211 0.526086 0.904930 0.178512
O28   O     O_3   0.929487 0.800505 0.615928 -0.633674
H24   H     H_    0.882415 0.861755 0.631137 0.295728
O29   O     O_3   0.281629 0.902703 0.693534 -0.575453
C34   C     C_3   0.368439 0.891017 0.614513 -0.248590
H25   H     H_    0.279640 0.850192 0.570884 0.168616
H26   H     H_    0.514113 0.860620 0.620469 0.195927
H27   H     H_    0.386378 0.958054 0.586303 0.135987
O30   O     O_3   0.509838 0.714799 0.701412 -0.557162
C35   C     C_3   0.575539 0.631824 0.732536 -0.098580
H28   H     H_    0.704922 0.610289 0.696651 0.194275
H29   H     H_    0.468876 0.577115 0.726368 0.107165
H30   H     H_    0.613758 0.639270 0.799094 0.128887
O31   O     O_3   0.878175 0.621510 0.260789 -0.660108
H31   H     H_    0.789067 0.633343 0.214162 0.282565
O32   O     O_3   0.247449 0.771273 0.339068 -0.565190
C36   C     C_3   0.445670 0.754281 0.350713 -0.134539
H32   H     H_    0.501115 0.697549 0.311001 0.158733
H33   H     H_    0.475817 0.742958 0.417513 0.137795
H34   H     H_    0.526515 0.815074 0.332531 0.150842

loop_
_geom_bond_atom_site_label_1
_geom_bond_atom_site_label_2
_ccdc_geom_bond_type
O19   C28   A    
C13   C15   S    
C24   H6    S    
O30   C35   S    
C33   H23   S    
C1    O6    A    
V4    O20   S    
O14   C26   A    
C22   O25   S    
O18   C27   A    
O15   C27   A    
C21   C22   D    
C3    C14   S    
C29   H9    S    
C6    C11   S    
C33   H22   S    
C6    H1    S    
C21   C23   S    
O5    C3    A    
C18   C26   S    
V2    O10   S    
C35   H30   S    
C29   H8    S    
C19   C20   D    
O8    V2    S    
C33   H21   S    
O13   C28   A    
C9    C12   S    
C35   H29   S    
C10   C11   S    
O17   V4    S    
C9    O28   S    
O7    V1    S    
C19   H4    S    
O12   V3    S    
O23   C30   S    
C1    C20   S    
C20   O24   S    
O21   C29   S    
O9    C4    A    
C16   O21   S    
C31   H16   S    
C8    H2    S    
O12   C25   A    
C18   O23   S    
C13   O31   S    
O17   V3    S    
C11   C12   S    
C17   O22   S    
C7    C27   S    
C11   O30   S    
C34   H25   S    
O4    C2    A    
O18   V4    S    
O26   C32   S    
O11   C26   A    
O13   V3    S    
C16   C28   S    
C5    C8    S    
C30   H11   S    
C29   H7    S    
C5    O27   S    
C17   C19   S    
O2    C1    A    
C15   C16   D    
C34   H26   S    
O27   C33   S    
C7    C10   S    
C35   H28   S    
C7    C8    S    
C5    C6    S    
C10   O29   S    
C36   H33   S    
O25   H17   S    
O3    C4    A    
V3    O20   S    
O1    V2    S    
C31   H15   S    
C23   C24   D    
O6    V2    S    
O19   V4    S    
C23   O26   S    
O2    V1    S    
C36   H32   S    
C32   H19   S    
O1    C2    A    
O16   V4    S    
C31   H14   S    
O5    V1    S    
C32   H20   S    
O8    C3    A    
O14   V3    S    
C25   O16   A    
C30   H13   S    
C5    C12   S    
C17   C18   D    
O9    V2    S    
O7    V2    S    
O4    V1    S    
C15   H3    S    
O3    V1    S    
V1    O10   S    
O22   H10   S    
C34   H27   S    
O29   C34   S    
O31   H31   S    
C36   H34   S    
C6    C7    S    
C2    C24   S    
C4    C12   S    
O32   C36   S    
C22   C25   S    
O11   V4    S    
C32   H18   S    
C14   O32   S    
O15   V3    S    
O24   C31   S    
O28   H24   S    
C21   H5    S    
C13   C14   D    
C9    C10   S    
C30   H12   S    
C8    C9    S    
