data_mof_unit_29075.cif
_audit_creation_date              2013-03-05T15:42:35-0500
_audit_creation_method            fapswitch 2.2
_symmetry_space_group_name_H-M    P1
_symmetry_Int_Tables_number       1
_space_group_crystal_system       triclinic
_cell_length_a                    29.019506
_cell_length_b                    17.443273
_cell_length_c                    18.748757
_cell_angle_alpha                 89.658201
_cell_angle_beta                  139.041602
_cell_angle_gamma                 90.126906
_cell_volume                      6220.99699018

loop_
_atom_site_label
_atom_site_type_symbol
_atom_site_description
_atom_site_fract_x
_atom_site_fract_y
_atom_site_fract_z
_atom_type_partial_charge
C1    C     C_R   0.686297 0.898004 0.799733 -0.137976
C2    C     C_R   0.669141 0.078119 0.814006 -0.126403
C3    C     C_R   0.186316 0.397942 0.799658 -0.137380
C4    C     C_R   0.169132 0.578104 0.814005 -0.125922
H1    H     H_    0.736331 0.926303 0.852108 0.090032
H2    H     H_    0.715672 0.043517 0.875274 0.098097
H3    H     H_    0.236346 0.426262 0.852092 0.089795
H4    H     H_    0.215654 0.543487 0.875270 0.098142
N1    N     N_R   0.625250 0.928170 0.708660 -0.033581
N2    N     N_R   0.625250 0.071830 0.708660 -0.042800
N3    N     N_R   0.125250 0.428170 0.708660 -0.033513
N4    N     N_R   0.125250 0.571830 0.708660 -0.042872
C5    C     C_R   0.329192 0.102962 0.414744 -0.133631
C6    C     C_R   0.357783 0.924683 0.484328 -0.072334
C7    C     C_R   0.829197 0.602958 0.414764 -0.133070
C8    C     C_R   0.857792 0.424692 0.484342 -0.072332
H5    H     H_    0.278282 0.075811 0.355383 0.096909
H6    H     H_    0.316568 0.961750 0.455209 0.091105
H7    H     H_    0.778286 0.575810 0.355403 0.096910
H8    H     H_    0.816575 0.461756 0.455221 0.091056
N5    N     N_R   0.386350 0.070500 0.452620 -0.045742
N6    N     N_R   0.386350 0.929500 0.452620 -0.042645
N7    N     N_R   0.886350 0.570500 0.452620 -0.045767
N8    N     N_R   0.886350 0.429500 0.452620 -0.042658
C9    C     C_R   0.440413 0.831924 0.572785 -0.075434
C10   C     C_R   0.411206 0.194561 0.503198 -0.047985
C11   C     C_R   0.940433 0.331944 0.572820 -0.075322
C12   C     C_R   0.911213 0.694557 0.503222 -0.048261
N9    N     N_R   0.437960 0.869720 0.507940 -0.049295
N10   N     N_R   0.437960 0.130280 0.507940 -0.049341
N11   N     N_R   0.937960 0.369720 0.507940 -0.049294
N12   N     N_R   0.937960 0.630280 0.507940 -0.049320
C13   C     C_R   0.586264 0.170325 0.725543 -0.094425
C14   C     C_R   0.604202 0.807218 0.712159 -0.045861
C15   C     C_R   0.086259 0.670315 0.725545 -0.094481
C16   C     C_R   0.104218 0.307171 0.712028 -0.044970
H9    H     H_    0.557433 0.221437 0.705819 0.148855
H10   H     H_    0.578273 0.752368 0.685407 0.099832
H11   H     H_    0.057429 0.721427 0.705825 0.148834
H12   H     H_    0.078242 0.252348 0.685177 0.098502
N13   N     N_R   0.573630 0.128950 0.653340 -0.055138
N14   N     N_R   0.573630 0.871050 0.653340 -0.046782
N15   N     N_R   0.073630 0.628950 0.653340 -0.055171
N16   N     N_R   0.073630 0.371050 0.653340 -0.046642
C17   C     C_R   0.674527 0.822605 0.804366 0.022505
C18   C     C_R   0.647284 0.140895 0.827749 0.065030
C19   C     C_R   0.174577 0.322483 0.804149 0.022530
C20   C     C_R   0.147275 0.640880 0.827751 0.065255
C21   C     C_R   0.342948 0.180012 0.444584 0.091285
C22   C     C_R   0.391874 0.865730 0.561745 0.065916
C23   C     C_R   0.842960 0.680004 0.444626 0.091694
C24   C     C_R   0.891894 0.365751 0.561779 0.065976
C25   C     C_R   0.667141 0.103749 0.585027 -0.136445
C26   C     C_R   0.639167 0.923787 0.516715 -0.122655
C27   C     C_R   0.167145 0.603749 0.585041 -0.136486
C28   C     C_R   0.139172 0.423781 0.516724 -0.122660
H13   H     H_    0.717880 0.075849 0.643970 0.088067
H14   H     H_    0.680033 0.961299 0.545463 0.098947
H15   H     H_    0.217883 0.575845 0.643983 0.088092
H16   H     H_    0.180039 0.461292 0.545473 0.098966
N17   N     N_R   0.609990 0.071870 0.547380 -0.041085
N18   N     N_R   0.609990 0.928130 0.547380 -0.044383
N19   N     N_R   0.109990 0.571870 0.547380 -0.041090
N20   N     N_R   0.109990 0.428130 0.547380 -0.044427
C29   C     C_R   0.312010 0.893750 0.197137 -0.127249
C30   C     C_R   0.329428 0.081970 0.186356 -0.125382
C31   C     C_R   0.812010 0.393753 0.197135 -0.127346
C32   C     C_R   0.829498 0.581936 0.186367 -0.124935
H17   H     H_    0.260833 0.920632 0.140895 0.104291
H18   H     H_    0.280973 0.050523 0.124226 0.098843
H19   H     H_    0.760834 0.420639 0.140892 0.104455
H20   H     H_    0.781034 0.550511 0.124148 0.098823
N21   N     N_R   0.371090 0.922150 0.291340 -0.041580
N22   N     N_R   0.371090 0.077850 0.291340 -0.035983
N23   N     N_R   0.871090 0.422150 0.291340 -0.041614
N24   N     N_R   0.871090 0.577850 0.291340 -0.035782
C33   C     C_R   0.557628 0.830937 0.429927 -0.138645
C34   C     C_R   0.585279 0.195315 0.497351 -0.162985
C35   C     C_R   0.057634 0.330931 0.429937 -0.138730
C36   C     C_R   0.085289 0.695319 0.497379 -0.162892
H21   H     H_    0.524377 0.782822 0.379908 0.089725
H22   H     H_    0.560990 0.250771 0.476246 0.101778
H23   H     H_    0.024383 0.282815 0.379921 0.089703
H24   H     H_    0.061008 0.750776 0.476295 0.101425
N25   N     N_R   0.558380 0.869490 0.492060 -0.046900
N26   N     N_R   0.558380 0.130510 0.492060 -0.046684
N27   N     N_R   0.058380 0.369490 0.492060 -0.046956
N28   N     N_R   0.058380 0.630510 0.492060 -0.046667
C37   C     C_R   0.415141 0.165533 0.278153 -0.022669
C38   C     C_R   0.398428 0.811080 0.289827 -0.118677
C39   C     C_R   0.915173 0.665558 0.278220 -0.022865
C40   C     C_R   0.898428 0.311082 0.289826 -0.118665
H25   H     H_    0.446801 0.214591 0.301488 0.102291
H26   H     H_    0.426576 0.757247 0.322025 0.091347
H27   H     H_    0.946863 0.714604 0.301643 0.101371
H28   H     H_    0.926575 0.257249 0.322022 0.091261
N29   N     N_R   0.422710 0.124520 0.346660 -0.042439
N30   N     N_R   0.422710 0.875480 0.346660 -0.042591
N31   N     N_R   0.922710 0.624520 0.346660 -0.042387
N32   N     N_R   0.922710 0.375480 0.346660 -0.042611
Ni1   Ni    Ni4+2 0.616550 0.000000 0.626870 0.209824
Ni2   Ni    Ni4+2 0.116550 0.500000 0.626870 0.209914
Ni3   Ni    Ni4+2 0.379790 0.000000 0.373130 0.245082
Ni4   Ni    Ni4+2 0.879790 0.500000 0.373130 0.245401
Ni5   Ni    Ni4+2 0.498170 0.870760 0.500000 0.225561
Ni6   Ni    Ni4+2 0.498170 0.129240 0.500000 0.235616
Ni7   Ni    Ni4+2 0.998170 0.370760 0.500000 0.225495
Ni8   Ni    Ni4+2 0.998170 0.629240 0.500000 0.235424
C41   C     C_R   0.653546 0.180918 0.555624 0.077950
C42   C     C_R   0.606076 0.864788 0.440837 0.064805
C43   C     C_R   0.153557 0.680920 0.555657 0.077965
C44   C     C_R   0.106085 0.364778 0.440852 0.064859
C45   C     C_R   0.328566 0.822094 0.193920 0.067265
C46   C     C_R   0.355596 0.139585 0.174250 -0.005896
C47   C     C_R   0.828567 0.322098 0.193918 0.067270
C48   C     C_R   0.855664 0.639615 0.174320 -0.005871
C49   C     C_3   0.662987 0.201095 0.967444 0.107217
C50   C     C_3   0.709952 0.785208 0.966342 0.117096
C51   C     C_3   0.162983 0.701086 0.967451 0.107366
C52   C     C_3   0.210629 0.285996 0.966883 0.117396
H29   H     H_    0.661536 0.144621 0.993758 0.140882
H30   H     H_    0.722113 0.846397 0.992140 0.129023
H31   H     H_    0.161532 0.644614 0.993768 0.141028
H32   H     H_    0.223431 0.347148 0.992829 0.128703
C53   C     C_3   0.212399 0.756378 0.066327 0.099823
C54   C     C_3   0.260063 0.234156 0.068618 0.110565
C55   C     C_3   0.712401 0.256385 0.066321 0.099932
C56   C     C_3   0.759575 0.733478 0.068187 0.110693
H33   H     H_    0.685398 0.312724 0.040400 0.124560
H34   H     H_    0.727243 0.690350 0.059605 0.126702
H35   H     H_    0.185396 0.812717 0.040405 0.124520
H36   H     H_    0.227579 0.191481 0.060248 0.126905
H37   H     H_    0.660875 0.295976 0.838364 0.194583
H38   H     H_    0.661220 0.666812 0.812058 0.194571
H39   H     H_    0.160871 0.795961 0.838365 0.194526
H40   H     H_    0.160472 0.167021 0.812526 0.194766
H41   H     H_    0.234841 0.868193 0.987806 0.172640
H42   H     H_    0.230257 0.097326 0.965756 0.177241
H43   H     H_    0.734846 0.368206 0.987808 0.172737
H44   H     H_    0.730872 0.597067 0.965486 0.177600
C57   C     C_3   0.709608 0.262502 0.905556 -0.362562
C58   C     C_3   0.715939 0.687558 0.870407 -0.357711
C59   C     C_3   0.209604 0.762487 0.905558 -0.362669
C60   C     C_3   0.215245 0.187307 0.870194 -0.358849
C61   C     C_3   0.266419 0.644201 0.023217 -0.445850
C62   C     C_3   0.301652 0.295051 0.975523 -0.450138
C63   C     C_3   0.766424 0.144215 0.023212 -0.446039
C64   C     C_3   0.801593 0.795954 0.976413 -0.450474
C65   C     C_3   0.694438 0.186222 0.928342 0.158036
C66   C     C_3   0.723907 0.773072 0.901346 0.168634
C67   C     C_3   0.194432 0.686208 0.928347 0.157817
C68   C     C_3   0.223933 0.272959 0.901161 0.168534
H45   H     H_    0.291734 0.632420 0.000447 0.173160
H46   H     H_    0.312196 0.291134 0.929582 0.182308
H47   H     H_    0.791742 0.132440 0.000445 0.173160
H48   H     H_    0.812556 0.792838 0.930986 0.182034
H49   H     H_    0.758757 0.088447 0.042339 0.191963
H50   H     H_    0.811869 0.855780 0.005697 0.177152
H51   H     H_    0.258751 0.588435 0.042348 0.192168
H52   H     H_    0.312452 0.354987 0.004688 0.176730
C69   C     C_3   0.280646 0.770713 0.101367 0.173831
C70   C     C_3   0.309844 0.187835 0.075905 0.177100
C71   C     C_3   0.780649 0.270721 0.101364 0.173869
C72   C     C_3   0.809891 0.687912 0.076030 0.177109
C73   C     C_3   0.260291 0.811784 0.006995 -0.447796
C74   C     C_3   0.263699 0.136809 0.972977 -0.441212
C75   C     C_3   0.760295 0.311797 0.006995 -0.447823
C76   C     C_3   0.764309 0.636974 0.973139 -0.441060
C77   C     C_3   0.316956 0.693876 0.124783 -0.364996
C78   C     C_3   0.352338 0.242070 0.075770 -0.353913
C79   C     C_3   0.816959 0.193886 0.124780 -0.365085
C80   C     C_3   0.852348 0.742878 0.076496 -0.353878
H53   H     H_    0.334995 0.662568 0.194227 0.210825
H54   H     H_    0.390315 0.277876 0.149740 0.192163
H55   H     H_    0.834996 0.162575 0.194220 0.210745
H56   H     H_    0.889996 0.778666 0.150536 0.192134
H57   H     H_    0.364601 0.704893 0.147431 0.152628
H58   H     H_    0.383660 0.207553 0.073968 0.169450
H59   H     H_    0.864606 0.204905 0.147432 0.152605
H60   H     H_    0.884016 0.708921 0.074945 0.169399
H61   H     H_    0.732982 0.249958 0.879695 0.166534
H62   H     H_    0.730162 0.680721 0.829817 0.165057
H63   H     H_    0.232977 0.749940 0.879697 0.166522
H64   H     H_    0.228866 0.179794 0.828836 0.165066
H65   H     H_    0.308052 0.823294 0.030093 0.181932
H66   H     H_    0.297541 0.100716 0.977713 0.180072
H67   H     H_    0.808057 0.323307 0.030096 0.181946
H68   H     H_    0.798556 0.601321 0.978349 0.179961
C81   C     C_R   0.622440 0.839226 0.387290 0.123360
C82   C     C_R   0.704124 0.238566 0.589604 0.120848
C83   C     C_R   0.122451 0.339212 0.387309 0.123373
C84   C     C_R   0.204138 0.738568 0.589649 0.120880
C85   C     C_R   0.292587 0.237886 0.410894 0.145853
C86   C     C_R   0.375777 0.839973 0.615890 0.118528
C87   C     C_R   0.792603 0.737878 0.410948 0.146395
C88   C     C_R   0.875796 0.340000 0.615925 0.118774
C89   C     C_R   0.273134 0.361928 0.442527 -0.193019
C90   C     C_R   0.377124 0.735717 0.703425 -0.213724
C91   C     C_R   0.773147 0.861924 0.442568 -0.193049
C92   C     C_R   0.877131 0.235738 0.703440 -0.213684
C93   C     C_R   0.315019 0.313069 0.451501 -0.092574
C94   C     C_R   0.407416 0.773323 0.681032 -0.091728
C95   C     C_R   0.815037 0.813059 0.451563 -0.093064
C96   C     C_R   0.907436 0.273353 0.681072 -0.092383
C97   C     C_R   0.223817 0.216237 0.348053 -0.241280
C98   C     C_R   0.321116 0.875341 0.589774 -0.246078
C99   C     C_R   0.723828 0.716234 0.348089 -0.240565
C100  C     C_R   0.821123 0.375360 0.589786 -0.245965
C101  C     C_R   0.183034 0.263449 0.343332 0.179529
C102  C     C_R   0.288092 0.835882 0.606278 0.182944
C103  C     C_R   0.683038 0.763453 0.343346 0.179200
C104  C     C_R   0.788088 0.335891 0.606263 0.182854
C105  C     C_R   0.709616 0.835161 0.395931 0.170763
C106  C     C_R   0.814217 0.263568 0.658418 0.175278
C107  C     C_R   0.209613 0.335157 0.395916 0.170710
C108  C     C_R   0.314221 0.763558 0.658431 0.175147
C109  C     C_R   0.677257 0.874222 0.413555 -0.247833
C110  C     C_R   0.772986 0.216370 0.652981 -0.266631
C111  C     C_R   0.177262 0.374211 0.413562 -0.247830
C112  C     C_R   0.272996 0.716367 0.653012 -0.266563
C113  C     C_R   0.590241 0.773473 0.321480 -0.171063
C114  C     C_R   0.681918 0.314050 0.548852 -0.168569
C115  C     C_R   0.090253 0.273457 0.321502 -0.171094
C116  C     C_R   0.181936 0.814055 0.548907 -0.168675
C117  C     C_R   0.620138 0.736121 0.298590 -0.202680
C118  C     C_R   0.724333 0.362973 0.558802 -0.204835
C119  C     C_R   0.120142 0.236110 0.298596 -0.202779
C120  C     C_R   0.224347 0.862972 0.558843 -0.204890
H69   H     H_    0.700364 0.927130 0.458846 0.121155
H70   H     H_    0.792309 0.159653 0.688609 0.118388
H71   H     H_    0.200370 0.427119 0.458853 0.121183
H72   H     H_    0.292316 0.659648 0.688636 0.118414
H73   H     H_    0.545199 0.747248 0.294007 0.114111
H74   H     H_    0.630110 0.334228 0.502668 0.121965
H75   H     H_    0.045215 0.247227 0.294040 0.114078
H76   H     H_    0.130131 0.834238 0.502736 0.121772
H77   H     H_    0.793490 0.917556 0.481229 0.141944
H78   H     H_    0.898910 0.181279 0.746373 0.143117
H79   H     H_    0.293477 0.417561 0.481186 0.142021
H80   H     H_    0.398902 0.681258 0.746355 0.143291
H81   H     H_    0.097949 0.182234 0.255201 0.129899
H82   H     H_    0.204273 0.918997 0.520279 0.130152
H83   H     H_    0.597945 0.682245 0.255194 0.129961
H84   H     H_    0.704257 0.418997 0.520235 0.130221
H85   H     H_    0.366660 0.333063 0.496981 0.130827
H86   H     H_    0.452141 0.746594 0.707976 0.167540
H87   H     H_    0.866684 0.833047 0.497061 0.130709
H88   H     H_    0.952169 0.246633 0.708034 0.166936
H89   H     H_    0.204308 0.159841 0.312439 0.118337
H90   H     H_    0.298500 0.928941 0.545164 0.119706
H91   H     H_    0.704317 0.659840 0.312470 0.118307
H92   H     H_    0.798507 0.428959 0.545174 0.119681
N33   N     N_R   0.227685 0.727869 0.156516 0.242283
O1    O     O_R   0.214097 0.771014 0.195338 -0.377608
O2    O     O_R   0.251929 0.658927 0.195707 -0.398396
N34   N     N_R   0.298438 0.279062 0.166979 0.237361
O3    O     O_R   0.291096 0.262857 0.225813 -0.394358
O4    O     O_R   0.336922 0.337452 0.193513 -0.431962
N35   N     N_R   0.727685 0.227873 0.156508 0.242273
O5    O     O_R   0.714096 0.271016 0.195328 -0.377585
O6    O     O_R   0.751929 0.158931 0.195696 -0.398593
N36   N     N_R   0.797438 0.778302 0.166393 0.237479
O7    O     O_R   0.790005 0.761476 0.224986 -0.394614
O8    O     O_R   0.835508 0.837222 0.192985 -0.431525
H93   H     H_    0.475768 0.785082 0.625622 0.123147
H94   H     H_    0.435739 0.249851 0.525106 0.096263
H95   H     H_    0.975810 0.285122 0.625689 0.122657
H96   H     H_    0.935746 0.749847 0.525131 0.096052
N37   N     N_R   0.590701 0.231109 0.881146 0.229739
O9    O     O_R   0.577213 0.300510 0.843260 -0.440412
O10   O     O_R   0.539488 0.189395 0.845930 -0.371150
N38   N     N_R   0.636212 0.772272 0.900765 0.229673
O11   O     O_R   0.608323 0.704297 0.865451 -0.453139
O12   O     O_R   0.598840 0.828942 0.881575 -0.386391
N39   N     N_R   0.090697 0.731101 0.881153 0.229740
O13   O     O_R   0.077210 0.800501 0.843265 -0.440659
O14   O     O_R   0.039485 0.689388 0.845939 -0.371023
N40   N     N_R   0.136910 0.274097 0.901897 0.230139
O15   O     O_R   0.108383 0.206420 0.866670 -0.453236
O16   O     O_R   0.100176 0.331460 0.883009 -0.384907

loop_
_geom_bond_atom_site_label_1
_geom_bond_atom_site_label_2
_geom_bond_distance
_ccdc_geom_bond_type
H44   C76   1.111138 S    
C99   C103  1.389930 A    
C60   H64   1.113114 S    
N24   Ni4   1.910818 S    
C76   H68   1.113286 S    
N6    N9    1.433182 A    
C27   H15   1.079462 S    
N19   N28   1.418820 A    
C89   H79   1.084041 S    
C6    H6    1.076854 S    
C1    C17   1.376746 A    
N17   Ni1   1.838271 S    
N39   O13   1.301996 A    
C24   C88   1.469859 S    
C3    N3    1.325187 A    
C56   C72   1.569973 S    
C36   H24   1.079959 S    
C90   C108  1.397434 A    
C35   N27   1.334410 A    
C29   N21   1.318103 A    
N26   Ni6   1.862322 S    
C2    C18   1.386029 A    
N24   N31   1.280806 A    
C7    H7    1.079520 S    
N31   Ni8   1.886978 S    
N1    N14   1.404111 A    
C101  C107  1.411872 A    
N30   Ni5   1.885904 S    
C35   C44   1.389438 A    
C78   H58   1.113063 S    
C1    H1    1.079465 S    
C27   N19   1.338108 A    
C8    H8    1.076848 S    
N39   O14   1.301132 A    
C64   C66   1.559806 S    
N4    N15   1.400033 A    
C3    H3    1.079434 S    
C82   C114  1.407418 A    
C50   H30   1.115529 S    
N33   O1    1.301144 A    
C61   H51   1.113461 S    
C12   C23   1.381654 A    
C115  C119  1.389105 A    
C46   C70   1.469643 S    
C31   H19   1.081349 S    
C87   C95   1.408126 A    
C114  C118  1.388706 A    
C79   H55   1.109420 S    
C86   C94   1.407253 A    
C91   H77   1.084041 S    
C40   H28   1.079478 S    
C36   N28   1.333234 A    
C85   C93   1.408127 A    
C39   C48   1.381249 A    
C26   C42   1.398156 A    
C16   C19   1.378425 A    
C6    N6    1.338334 A    
C17   C66   1.468829 S    
C100  H92   1.081073 S    
C38   C45   1.368198 A    
C70   C78   1.554085 S    
C50   C66   1.562856 S    
C49   H29   1.113992 S    
C9    C22   1.391573 A    
C110  H70   1.080855 S    
C31   C47   1.357965 A    
C92   H78   1.083928 S    
C109  H69   1.081214 S    
C70   C74   1.556138 S    
C25   N17   1.338114 A    
C2    N2    1.318223 A    
C11   H95   1.077315 S    
C63   C79   1.524383 S    
N38   O11   1.301952 A    
C55   N35   1.470171 S    
C14   N14   1.324767 A    
C90   C94   1.389591 A    
C92   C106  1.397443 A    
C28   N20   1.337620 A    
C89   C93   1.387810 A    
C56   N36   1.471923 S    
C4    N4    1.318233 A    
C15   N15   1.322396 A    
N20   N27   1.422952 A    
C57   H61   1.114324 S    
C89   C107  1.395617 A    
C4    H4    1.076942 S    
C87   C99   1.401468 A    
N18   Ni1   1.849788 S    
C104  C118  1.396532 A    
C9    H93   1.077294 S    
C34   N26   1.333221 A    
C7    N7    1.340340 A    
C60   C68   1.555778 S    
C33   N25   1.334413 A    
C43   C84   1.469728 S    
C8    N8    1.338332 A    
C74   H66   1.113167 S    
N37   O9    1.301994 A    
N10   Ni6   1.862377 S    
N2    N13   1.400033 A    
C91   C95   1.387801 A    
C13   C18   1.392258 A    
N9    Ni5   1.862284 S    
C2    H2    1.076922 S    
C57   C75   1.519444 S    
C50   C56   1.538213 S    
N19   Ni2   1.838271 S    
N25   Ni5   1.862435 S    
C15   C20   1.392274 A    
C82   C110  1.402391 A    
C12   N12   1.329044 A    
C77   H57   1.114437 S    
C100  C104  1.389345 A    
N14   Ni5   1.884682 S    
C81   C109  1.400626 A    
C38   H26   1.079480 S    
N22   N29   1.280806 A    
C50   N38   1.472797 S    
C69   C77   1.549160 S    
C9    N9    1.333331 A    
N21   N30   1.277154 A    
C94   H86   1.080135 S    
N18   N25   1.422952 A    
C61   C77   1.524408 S    
C52   C68   1.562496 S    
C93   H85   1.079693 S    
N13   Ni6   1.884616 S    
C112  H72   1.080856 S    
C27   C43   1.391554 A    
N17   N26   1.418820 A    
C8    C24   1.400301 A    
C16   H12   1.079613 S    
C1    N1    1.324955 A    
C98   C102  1.389342 A    
C84   C116  1.407418 A    
C106  C110  1.390050 A    
C10   C21   1.381656 A    
C83   C111  1.400629 A    
C102  C108  1.411484 A    
N33   O2    1.301335 A    
N37   O10   1.301134 A    
C25   H13   1.079462 S    
N36   O8    1.301727 A    
C26   N18   1.337613 A    
N35   O6    1.301335 A    
C51   N39   1.469978 S    
C37   H25   1.077823 S    
C73   H65   1.114494 S    
N6    Ni3   1.822168 S    
C28   H16   1.077221 S    
C113  C117  1.389107 A    
N34   O4    1.301526 A    
C32   H20   1.079591 S    
N8    Ni4   1.822168 S    
N11   Ni7   1.862284 S    
C59   H63   1.114326 S    
C88   C100  1.401513 A    
C71   C75   1.549518 S    
C55   H33   1.112901 S    
N4    Ni2   1.849838 S    
C107  C111  1.389062 A    
H38   C58   1.107991 S    
C58   C76   1.536359 S    
C105  C109  1.389051 A    
C88   C96   1.407245 A    
C53   H35   1.112902 S    
C118  H84   1.084011 S    
N7    Ni4   1.833563 S    
C62   H46   1.113118 S    
C97   C101  1.389934 A    
C41   C82   1.469739 S    
C92   C96   1.389604 A    
C103  C105  1.411870 A    
C75   H67   1.114494 S    
N34   O3    1.301157 A    
C49   C65   1.565762 S    
C5    N5    1.340340 A    
N3    N16   1.404111 A    
C14   C17   1.378382 A    
C64   H50   1.112450 S    
C19   C68   1.468998 S    
C53   N33   1.470168 S    
C49   C55   1.556670 S    
C78   H54   1.107623 S    
N3    Ni2   1.838168 S    
C61   C67   1.563255 S    
C52   C54   1.538240 S    
C90   H80   1.083927 S    
C32   C48   1.375771 A    
C5    C21   1.395706 A    
N29   Ni6   1.886978 S    
C51   C53   1.556680 S    
C72   C76   1.556196 S    
N38   O12   1.301519 A    
C120  H82   1.084012 S    
C58   H62   1.113323 S    
C104  C106  1.411483 A    
N20   Ni2   1.849788 S    
C10   N10   1.329050 A    
C7    C23   1.395711 A    
C62   C78   1.536204 S    
C11   N11   1.333347 A    
N12   Ni8   1.862377 S    
N23   Ni4   1.922988 S    
N40   O16   1.301266 A    
C16   N16   1.324686 A    
C45   C69   1.454849 S    
C31   N23   1.318085 A    
C29   C45   1.357976 A    
C84   C112  1.402381 A    
N35   O5    1.301140 A    
C63   H49   1.113461 S    
H41   C73   1.113882 S    
C83   C115  1.407762 A    
C71   C79   1.549152 S    
C11   C24   1.391591 A    
C40   N32   1.330608 A    
H43   C75   1.113880 S    
C4    C20   1.386039 A    
C26   H14   1.077219 S    
N16   Ni7   1.884682 S    
C25   C41   1.391569 A    
C59   C73   1.519446 S    
C37   C46   1.381494 A    
C52   N40   1.472533 S    
N32   Ni7   1.885904 S    
C55   C71   1.565591 S    
C59   C67   1.556116 S    
C30   C46   1.375652 A    
C63   C65   1.563259 S    
C14   H10   1.079668 S    
C102  C120  1.396531 A    
C48   C72   1.469499 S    
N2    Ni1   1.849838 S    
C53   C69   1.565594 S    
C117  H83   1.083949 S    
C116  C120  1.388703 A    
C79   H59   1.114436 S    
C111  H71   1.081214 S    
C34   H22   1.079960 S    
N27   Ni7   1.862435 S    
C56   H34   1.114667 S    
C119  H81   1.083948 S    
C49   N37   1.469976 S    
N23   N32   1.277154 A    
N36   O7    1.301261 A    
C51   H31   1.113993 S    
C63   H47   1.113361 S    
C32   N24   1.321445 A    
C114  H74   1.080041 S    
C101  C119  1.396681 A    
N5    N10   1.437351 A    
C57   C65   1.556106 S    
C42   C81   1.469220 S    
H37   C57   1.109953 S    
C96   H88   1.080136 S    
C5    H5    1.079522 S    
H42   C74   1.110923 S    
C13   N13   1.322387 A    
N7    N12   1.437351 A    
C58   C66   1.556015 S    
C91   C105  1.395609 A    
C116  H76   1.080039 S    
N8    N11   1.433182 A    
C61   H45   1.113360 S    
C12   H96   1.079692 S    
H40   C60   1.107760 S    
C86   C98   1.401507 A    
C23   C87   1.469226 S    
C44   C83   1.469229 S    
C35   H23   1.074243 S    
C22   C86   1.469847 S    
C77   H53   1.109418 S    
C80   H60   1.113215 S    
C6    C22   1.400307 A    
C21   C85   1.469233 S    
C62   C68   1.559588 S    
C97   H89   1.080973 S    
C29   H17   1.081345 S    
C15   H11   1.078737 S    
C36   C43   1.382480 A    
C3    C19   1.376847 A    
H39   C59   1.109953 S    
C64   C80   1.535742 S    
C60   C74   1.535991 S    
C38   N30   1.330621 A    
C34   C41   1.382498 A    
C81   C113  1.407758 A    
N15   Ni8   1.884616 S    
C95   H87   1.079694 S    
C47   C71   1.454814 S    
C115  H75   1.079990 S    
C98   H90   1.081074 S    
C40   C47   1.368198 A    
C13   H9    1.078738 S    
C51   C67   1.565760 S    
C72   C80   1.554338 S    
C54   H36   1.114558 S    
C39   H27   1.077741 S    
N5    Ni3   1.833563 S    
N28   Ni8   1.862322 S    
C52   H32   1.115324 S    
N21   Ni3   1.922988 S    
C18   C65   1.472983 S    
C62   H52   1.112114 S    
C30   H18   1.079499 S    
C85   C97   1.401468 A    
N1    Ni1   1.838168 S    
C33   H21   1.074244 S    
C103  C117  1.396685 A    
C20   C67   1.473016 S    
C37   N29   1.331691 A    
C113  H73   1.079994 S    
N40   O15   1.301662 A    
C54   N34   1.471782 S    
C64   H48   1.113322 S    
C39   N31   1.331408 A    
C54   C70   1.569794 S    
C108  C112  1.390039 A    
C99   H91   1.080971 S    
C33   C42   1.389433 A    
C28   C44   1.398162 A    
C69   C73   1.549509 S    
C80   H56   1.107699 S    
N22   Ni3   1.910818 S    
C10   H94   1.079693 S    
C30   N22   1.321202 A    
