data_mof_unit_28613.cif
_audit_creation_date              2013-03-05T16:50:06-0500
_audit_creation_method            fapswitch 2.2
_symmetry_space_group_name_H-M    P1
_symmetry_Int_Tables_number       1
_space_group_crystal_system       triclinic
_cell_length_a                    27.818091
_cell_length_b                    10.826463
_cell_length_c                    26.44281
_cell_angle_alpha                 90.160332
_cell_angle_beta                  90.031817
_cell_angle_gamma                 89.818935
_cell_volume                      7963.74948702

loop_
_atom_site_label
_atom_site_type_symbol
_atom_site_description
_atom_site_fract_x
_atom_site_fract_y
_atom_site_fract_z
_atom_type_partial_charge
O1    O     O_R   0.500000 0.319660 0.542350 -0.587129
O2    O     O_R   0.500000 0.680340 0.457650 -0.587434
O3    O     O_R   0.500000 0.319630 0.457650 -0.579138
O4    O     O_R   0.500000 0.680370 0.542350 -0.578983
C1    C     C_R   0.498688 0.262015 0.499874 0.799617
C2    C     C_R   0.501277 0.737993 0.500124 0.799354
O5    O     O_R   0.430260 0.500030 0.542340 -0.589648
O6    O     O_R   0.569740 0.499970 0.457660 -0.589363
O7    O     O_R   0.430270 0.500010 0.457650 -0.584215
O8    O     O_R   0.569730 0.499990 0.542350 -0.584569
C3    C     C_R   0.407314 0.500412 0.499967 0.820284
C4    C     C_R   0.592685 0.499680 0.500035 0.820201
Cu1   Cu    Cu3+1 0.500000 0.500020 0.550150 0.947383
Cu2   Cu    Cu3+1 0.500000 0.499980 0.449850 0.947559
O9    O     O_2   0.444399 0.343194 0.784921 -0.545043
O10   O     O_2   0.561930 0.641250 0.215109 -0.546552
C5    C     C_R   0.433958 0.351620 0.054099 -0.306388
C6    C     C_R   0.559413 0.666841 0.945924 -0.306464
H1    H     H_    0.448521 0.641513 0.628223 0.128755
H2    H     H_    0.551138 0.357634 0.371793 0.128875
C7    C     C_R   0.178223 0.392189 0.504897 0.557702
C8    C     C_R   0.821673 0.609607 0.499446 0.563815
O11   O     O_2   0.203330 0.285879 0.509317 -0.531050
O12   O     O_2   0.796525 0.716422 0.499057 -0.529818
N1    N     N_R   0.202039 0.501726 0.499951 -0.449381
N2    N     N_R   0.797894 0.499370 0.500128 -0.449060
C9    C     C_R   0.177758 0.611085 0.495326 0.593258
C10   C     C_R   0.822159 0.389427 0.500601 0.586941
C11   C     C_R   0.278537 0.515880 0.453776 0.475010
C12   C     C_R   0.721460 0.484193 0.546217 0.474275
C13   C     C_R   0.329064 0.515851 0.454242 -0.342462
C14   C     C_R   0.670933 0.484069 0.545753 -0.341853
C15   C     C_R   0.328826 0.487601 0.545205 -0.215628
C16   C     C_R   0.671170 0.513525 0.454845 -0.214549
C17   C     C_R   0.278762 0.487762 0.544972 -0.197591
C18   C     C_R   0.721236 0.513670 0.455099 -0.199508
C19   C     C_R   0.253568 0.501857 0.499519 0.339092
C20   C     C_R   0.746398 0.499068 0.500527 0.342574
C21   C     C_R   0.101881 0.501237 0.500209 -0.043063
C22   C     C_R   0.898024 0.499998 0.499985 -0.042998
C23   C     C_R   0.127762 0.389872 0.505066 -0.024913
C24   C     C_R   0.872132 0.612004 0.499340 -0.026357
C25   C     C_R   0.102891 0.278883 0.510118 -0.140553
C26   C     C_R   0.896992 0.723720 0.498985 -0.139925
C27   C     C_R   0.127290 0.612891 0.495360 -0.033592
C28   C     C_R   0.872625 0.387666 0.500595 -0.031408
C29   C     C_R   0.354406 0.501261 0.499831 -0.078162
C30   C     C_R   0.645591 0.499106 0.500183 -0.078088
H3    H     H_    0.347468 0.476345 0.580874 0.170700
H4    H     H_    0.652527 0.525182 0.419199 0.171174
H5    H     H_    0.259391 0.477039 0.580189 0.157874
H6    H     H_    0.740628 0.525052 0.419930 0.156584
H7    H     H_    0.121950 0.192134 0.514531 0.187510
H8    H     H_    0.877921 0.811149 0.499128 0.187578
C31   C     C_R   0.974651 0.386405 0.501903 0.043909
C32   C     C_R   0.025256 0.614591 0.496487 0.043199
C33   C     C_R   0.974159 0.614554 0.498242 0.043064
C34   C     C_R   0.025741 0.387000 0.503834 0.043495
C35   C     C_R   0.949163 0.500321 0.500039 0.071073
C36   C     C_R   0.050741 0.500944 0.500183 0.071321
C37   C     C_R   0.947881 0.275340 0.501433 -0.198485
C38   C     C_R   0.052043 0.724725 0.490820 -0.198964
C39   C     C_R   0.897971 0.276263 0.500923 -0.140595
C40   C     C_R   0.101953 0.723622 0.490394 -0.139979
H9    H     H_    0.407075 0.297017 0.035330 0.134384
H10   H     H_    0.581066 0.735137 0.964667 0.133970
O13   O     O_2   0.797482 0.282294 0.501026 -0.523654
O14   O     O_2   0.202418 0.717672 0.490892 -0.521217
C41   C     C_R   0.052986 0.277209 0.509645 -0.200405
C42   C     C_R   0.946898 0.725276 0.498573 -0.199921
H11   H     H_    0.651534 0.471912 0.580890 0.150208
H12   H     H_    0.348468 0.527436 0.419075 0.150904
H13   H     H_    0.879283 0.188595 0.500728 0.186802
H14   H     H_    0.120648 0.810595 0.486026 0.187687
H15   H     H_    0.964260 0.185191 0.500628 0.135368
H16   H     H_    0.035682 0.814023 0.485757 0.136376
H17   H     H_    0.036991 0.187760 0.514771 0.136477
H18   H     H_    0.962875 0.815638 0.499346 0.135629
H19   H     H_    0.388659 0.281674 0.303116 0.181476
H20   H     H_    0.610419 0.718476 0.697406 0.179054
C43   C     C_R   0.388298 0.249665 0.383387 -0.127648
C44   C     C_R   0.611181 0.750337 0.617123 -0.128710
H21   H     H_    0.356306 0.304474 0.389844 0.139940
H22   H     H_    0.643169 0.695377 0.610843 0.140261
C45   C     C_R   0.411328 0.191928 0.423994 -0.086186
C46   C     C_R   0.588378 0.808114 0.576384 -0.085471
H23   H     H_    0.397010 0.203336 0.461813 0.113571
H24   H     H_    0.602878 0.796651 0.538644 0.113698
C47   C     C_R   0.452875 0.120458 0.415749 0.121837
C48   C     C_R   0.546795 0.879607 0.584392 0.121710
C49   C     C_R   0.470458 0.105903 0.366295 -0.184316
C50   C     C_R   0.528937 0.894146 0.633734 -0.186281
H25   H     H_    0.502254 0.050544 0.359232 0.132634
H26   H     H_    0.497061 0.949353 0.640611 0.134015
C51   C     C_R   0.447445 0.164363 0.325846 -0.109951
C52   C     C_R   0.551774 0.835854 0.674321 -0.106016
H27   H     H_    0.461431 0.153942 0.287884 0.167566
H28   H     H_    0.537600 0.846466 0.712191 0.174959
C53   C     C_R   0.406479 0.236475 0.334416 -0.078257
C54   C     C_R   0.592770 0.763668 0.665996 -0.078149
C55   C     C_R   0.481119 0.933090 0.459405 -0.223395
C56   C     C_R   0.518794 0.066930 0.540588 -0.223168
H29   H     H_    0.465353 0.880956 0.428500 0.155275
H30   H     H_    0.534547 0.119050 0.571506 0.155652
C57   C     C_R   0.502262 0.871780 0.500319 -0.084434
C58   C     C_R   0.497663 0.128238 0.499676 -0.084538
C59   C     C_R   0.521800 0.939036 0.541269 0.002337
C60   C     C_R   0.478070 0.060995 0.458747 0.002258
H31   H     H_    0.420716 0.271175 0.870404 0.183309
H32   H     H_    0.590144 0.701535 0.129649 0.183483
H33   H     H_    0.419205 0.266487 0.959696 0.141406
H34   H     H_    0.592246 0.704735 0.040383 0.141639
C61   C     C_R   0.466645 0.425494 0.188567 0.565356
C62   C     C_R   0.530537 0.582991 0.811482 0.562874
O15   O     O_2   0.435727 0.355358 0.215126 -0.504390
O16   O     O_2   0.558952 0.659814 0.784949 -0.508679
N3    N     N_R   0.498908 0.497493 0.214269 -0.467532
N4    N     N_R   0.501322 0.502869 0.785758 -0.467297
C63   C     C_R   0.530749 0.570534 0.188852 0.527624
C64   C     C_R   0.472587 0.421777 0.811176 0.530907
C65   C     C_R   0.529524 0.413644 0.295988 0.014944
C66   C     C_R   0.470317 0.585909 0.704031 0.013336
C67   C     C_R   0.528905 0.418532 0.349488 0.060284
C68   C     C_R   0.470922 0.581017 0.650526 0.059814
C69   C     C_R   0.470722 0.578759 0.348842 0.035430
C70   C     C_R   0.529468 0.421683 0.651148 0.035403
C71   C     C_R   0.470031 0.578436 0.295972 -0.253447
C72   C     C_R   0.530230 0.422120 0.704019 -0.252846
C73   C     C_R   0.499489 0.496162 0.269068 0.326855
C74   C     C_R   0.500659 0.504083 0.730948 0.326545
C75   C     C_R   0.498767 0.498469 0.108013 -0.121548
C76   C     C_R   0.501269 0.502536 0.892026 -0.121872
C77   C     C_R   0.465780 0.424020 0.134777 -0.065799
C78   C     C_R   0.531008 0.585495 0.865263 -0.064519
C79   C     C_R   0.432873 0.351071 0.107278 0.453721
C80   C     C_R   0.559898 0.668963 0.892748 0.453484
C81   C     C_R   0.531338 0.572226 0.135550 -0.001188
C82   C     C_R   0.472036 0.420043 0.864487 -0.002104
N5    N     N_R   0.500000 0.499970 0.374520 -0.182456
N6    N     N_R   0.500000 0.500030 0.625480 -0.182283
H35   H     H_    0.447785 0.642111 0.369453 0.131465
H36   H     H_    0.552520 0.358628 0.630525 0.131353
H37   H     H_    0.446727 0.641934 0.275947 0.152320
H38   H     H_    0.553716 0.359027 0.724025 0.152440
C83   C     C_R   0.469526 0.419529 0.972333 0.082950
C84   C     C_R   0.531937 0.577755 0.027709 0.083365
C85   C     C_R   0.531071 0.582506 0.973623 -0.004003
C86   C     C_R   0.467434 0.422513 0.026412 -0.004376
C87   C     C_R   0.500647 0.501585 0.946173 0.065374
C88   C     C_R   0.499349 0.499530 0.053866 0.065395
C89   C     C_R   0.441767 0.336110 0.943183 -0.201619
C90   C     C_R   0.564727 0.648036 0.056871 -0.201785
C91   C     C_R   0.442923 0.336927 0.890606 -0.146258
C92   C     C_R   0.564223 0.645499 0.109442 -0.147938
O17   O     O_3   0.399585 0.279777 0.132728 -0.670786
H39   H     H_    0.379500 0.233765 0.108131 0.318192
O18   O     O_3   0.588276 0.753078 0.867286 -0.672134
H40   H     H_    0.606408 0.804196 0.891877 0.317936
C93   C     C_3   0.438527 0.675195 0.733468 -0.413498
C94   C     C_3   0.406350 0.759813 0.701331 -0.391924
C95   C     C_3   0.376400 0.845779 0.734671 -0.784823
H41   H     H_    0.352774 0.791314 0.760019 0.254140
H42   H     H_    0.400200 0.905559 0.757892 0.258485
H43   H     H_    0.353512 0.905649 0.710508 0.248811
H44   H     H_    0.428937 0.817355 0.676063 0.219045
H45   H     H_    0.381541 0.702992 0.677974 0.225215
H46   H     H_    0.415146 0.620482 0.759041 0.221930
H47   H     H_    0.462025 0.734292 0.757352 0.218696
C96   C     C_3   0.560794 0.323188 0.266536 -0.413151
C97   C     C_3   0.592163 0.236581 0.298662 -0.391892
C98   C     C_3   0.621390 0.149007 0.265312 -0.785319
H48   H     H_    0.597093 0.090680 0.242041 0.257420
H49   H     H_    0.645511 0.202162 0.240012 0.254668
H50   H     H_    0.643726 0.087770 0.289469 0.249158
H51   H     H_    0.617441 0.291849 0.322086 0.225969
H52   H     H_    0.569054 0.180321 0.323871 0.218662
H53   H     H_    0.536929 0.265716 0.242368 0.213111
H54   H     H_    0.584754 0.376944 0.241232 0.226106
O19   O     O_3   0.747267 0.470443 0.590457 -0.709307
H55   H     H_    0.724476 0.461566 0.619033 0.320733
O20   O     O_3   0.252763 0.528695 0.409464 -0.707478
H56   H     H_    0.275570 0.537011 0.380873 0.321299

loop_
_geom_bond_atom_site_label_1
_geom_bond_atom_site_label_2
_geom_bond_distance
_ccdc_geom_bond_type
C65   C96   1.520972 S    
C98   H48   1.110981 S    
O18   H40   0.991429 S    
C31   C35   1.421620 A    
C42   H18   1.075944 S    
C14   C30   1.405328 A    
C96   C97   1.536486 S    
C41   H17   1.075965 S    
C4    C30   1.471729 S    
C95   H43   1.110408 S    
C95   H41   1.110883 S    
C21   C23   1.408472 A    
C97   H52   1.110792 S    
O20   H56   0.991715 S    
C69   N5    1.360244 A    
C22   C28   1.408565 A    
C98   H49   1.110886 S    
C10   C28   1.403926 A    
C11   O20   1.380452 S    
H32   C92   1.083518 S    
H19   C53   1.081891 S    
C17   C19   1.399460 A    
C86   C88   1.418106 A    
C48   C59   1.482587 S    
N3    C63   1.367379 A    
C46   H24   1.083250 S    
C33   C35   1.421636 A    
C97   C98   1.526055 S    
C15   H3    1.083090 S    
C67   N5    1.361943 A    
C50   C52   1.397917 A    
C79   O17   1.383576 S    
C32   C33   1.422230 A    
C12   C20   1.403426 A    
O4    Cu1   1.963989 S    
C37   C39   1.388455 A    
H2    C67   1.079015 S    
C38   C40   1.388469 A    
C9    O14   1.349752 S    
N1    C19   1.433493 S    
C84   C88   1.423470 A    
C3    C29   1.471799 S    
C25   H7    1.083597 S    
C69   H35   1.081728 S    
C16   C30   1.403809 A    
C52   H28   1.082092 S    
C5    C79   1.406588 A    
C70   C72   1.398202 A    
C66   C93   1.521038 S    
H34   C90   1.075993 S    
C6    C80   1.406445 A    
C94   H45   1.111882 S    
C33   C42   1.416437 A    
C47   C49   1.404715 A    
N3    C73   1.449235 S    
C16   C18   1.392753 A    
C18   H6    1.082878 S    
C43   C45   1.398068 A    
C97   H51   1.111869 S    
C32   C38   1.416398 A    
C9    C27   1.403976 A    
C55   C60   1.387250 A    
C22   C24   1.408579 A    
C25   C41   1.388469 A    
C22   C35   1.422613 A    
C61   C77   1.422592 A    
Cu1   Cu2   2.652215 S    
H20   C54   1.081943 S    
C76   C87   1.431976 A    
C23   C25   1.395236 A    
C38   H16   1.075921 S    
O2    C2    1.283935 A    
C24   C26   1.395198 A    
C96   H53   1.111844 S    
C95   H42   1.110987 S    
C14   H11   1.083281 S    
C1    C58   1.448700 S    
C45   H23   1.083251 S    
C55   C57   1.399209 A    
C98   H50   1.110408 S    
H1    C68   1.079005 S    
C16   H4    1.083085 S    
C63   C81   1.409709 A    
Cu1   N6    1.991937 S    
C5    C86   1.414470 A    
O4    C2    1.281112 A    
C6    C85   1.414456 A    
C46   C48   1.405615 A    
O10   C63   1.349480 S    
C45   C47   1.405604 A    
N2    C20   1.432588 S    
C78   C80   1.411014 A    
C39   H13   1.083616 S    
C75   C77   1.414631 A    
C44   C46   1.398093 A    
C70   H36   1.081731 S    
C37   H15   1.075969 S    
C32   C36   1.421647 A    
H33   C89   1.076048 S    
C83   C89   1.416327 A    
O5    C3    1.289235 A    
O7    Cu2   1.950806 S    
C71   C73   1.401250 A    
N4    C74   1.449536 S    
C49   H25   1.082886 S    
C57   C59   1.412659 A    
O9    C64   1.349447 S    
C48   C50   1.404634 A    
C93   C94   1.536542 S    
O6    C4    1.289260 A    
C70   N6    1.360270 A    
C10   O13   1.349732 S    
C50   H26   1.082969 S    
C62   C78   1.422357 A    
C56   C59   1.387063 A    
C71   H37   1.082642 S    
C94   H44   1.111122 S    
C56   H30   1.085086 S    
C72   H38   1.082640 S    
C62   N4    1.369723 A    
O3    Cu2   1.963991 S    
O8    C4    1.288620 A    
C61   N3    1.369595 A    
C80   O18   1.383611 S    
C82   C91   1.396920 A    
C76   C78   1.414508 A    
C13   H12   1.083268 S    
C90   C92   1.390558 A    
C93   H47   1.111491 S    
C44   H22   1.081529 S    
O7    C3    1.288683 A    
C17   H5    1.082890 S    
C15   C29   1.403697 A    
C8    O12   1.349723 S    
O1    Cu1   1.962950 S    
C31   C37   1.416400 A    
C66   C68   1.415762 A    
C96   H54   1.111661 S    
O1    C1    1.283958 A    
C83   C86   1.431489 A    
H31   C91   1.083514 S    
C26   C42   1.388497 A    
C69   C71   1.398134 A    
C84   C85   1.431438 A    
C76   C82   1.410498 A    
C7    N1    1.366855 A    
C6    H10   1.074985 S    
O6    Cu2   1.950880 S    
C85   C87   1.418137 A    
C5    H9    1.075056 S    
C68   N6    1.361830 A    
C65   C73   1.414595 A    
O3    C1    1.281057 A    
O8    Cu1   1.950803 S    
C72   C74   1.401315 A    
C43   H21   1.081444 S    
C62   O16   1.347929 S    
C51   H27   1.082252 S    
C34   C41   1.416377 A    
N1    C9    1.366989 A    
C43   C53   1.397242 A    
C27   C40   1.395225 A    
N2    C10   1.366599 A    
C21   C27   1.408419 A    
C28   C39   1.395193 A    
C44   C54   1.397312 A    
C94   C95   1.526069 S    
C7    C23   1.404031 A    
C7    O11   1.349741 S    
C11   C13   1.405639 A    
C12   C14   1.405619 A    
C8    C24   1.404016 A    
C12   O19   1.380386 S    
C58   C60   1.412733 A    
C84   C90   1.416317 A    
C21   C36   1.422644 A    
C52   C54   1.397678 A    
C47   C60   1.482823 S    
C18   C20   1.399048 A    
C15   C17   1.392696 A    
C2    C57   1.448779 S    
C93   H46   1.111919 S    
C81   C92   1.396835 A    
C56   C58   1.399041 A    
C51   C53   1.397579 A    
C89   C91   1.390719 A    
O2    Cu2   1.962950 S    
N4    C64   1.367418 A    
C65   C67   1.415662 A    
C49   C51   1.398193 A    
O19   H55   0.991716 S    
C26   H8    1.083607 S    
O5    Cu1   1.950880 S    
C64   C82   1.409955 A    
Cu2   N5    1.991937 S    
C55   H29   1.085072 S    
C8    N2    1.366517 A    
C31   C34   1.422138 A    
C11   C19   1.403987 A    
O17   H39   0.991430 S    
C77   C79   1.411053 A    
C40   H14   1.083609 S    
C75   C88   1.431978 A    
C13   C29   1.405196 A    
C34   C36   1.421589 A    
C66   C74   1.414910 A    
C83   C87   1.423431 A    
C75   C81   1.410470 A    
C61   O15   1.348079 S    
