data_mof_unit_27730.cif
_audit_creation_date              2012-12-10T20:43:24-0500
_audit_creation_method            fapswitch 2.2
_symmetry_space_group_name_H-M    P1
_symmetry_Int_Tables_number       1
_space_group_crystal_system       triclinic
_cell_length_a                    15.823407
_cell_length_b                    10.645522
_cell_length_c                    9.895199
_cell_angle_alpha                 90.279864
_cell_angle_beta                  90.503658
_cell_angle_gamma                 90.395343
_cell_volume                      1666.70624978

loop_
_atom_site_label
_atom_site_type_symbol
_atom_type_description
_atom_site_fract_x
_atom_site_fract_y
_atom_site_fract_z
_atom_type_partial_charge
C1    C     C_R   0.497418 0.260524 0.500095 0.891832
C2    C     C_R   0.428576 0.932697 0.425844 0.366385
C3    C     C_R   0.491067 0.871377 0.502767 -0.304457
C4    C     C_R   0.339418 0.499622 0.499466 0.901573
C5    C     C_R   0.541073 0.937679 0.594536 0.051521
C6    C     C_3   0.634734 0.933678 0.616386 -0.462232
C7    C     C_3   0.633221 0.076312 0.616075 0.223555
C8    C     C_R   0.435320 0.444477 0.069629 0.194360
C9    C     C_R   0.558325 0.566766 0.073920 -0.158185
C10   C     C_R   0.558254 0.567597 0.930490 0.432468
C11   C     C_R   0.435636 0.444208 0.927295 -0.003338
C12   C     C_R   0.044400 0.480314 0.624870 0.407962
C13   C     C_3   0.409354 0.309161 0.920344 0.181328
C14   C     C_3   0.407547 0.310248 0.075043 0.143519
C15   C     C_R   0.498682 0.739623 0.500266 0.970382
C16   C     C_R   0.660598 0.499968 0.500571 0.897384
C17   C     C_R   0.956647 0.480905 0.624459 -0.200036
C18   C     C_R   0.912914 0.494150 0.502345 0.080040
C19   C     C_R   0.955400 0.506145 0.380140 -0.157012
C20   C     C_R   0.042950 0.505653 0.379964 -0.188061
C21   C     C_R   0.087033 0.493153 0.501954 0.041512
C22   C     C_1   0.824018 0.496316 0.502385 -0.018614
C23   C     C_1   0.176033 0.495279 0.499567 0.065235
C24   C     C_1   0.250954 0.497438 0.498655 -0.058471
C25   C     C_1   0.749089 0.498229 0.501805 -0.136043
C26   C     C_R   0.539996 0.065507 0.594433 0.157232
C27   C     C_R   0.488628 0.128801 0.503725 -0.356168
C28   C     C_R   0.425926 0.063561 0.428044 0.391034
Cl1   Cl    Cl    0.098940 0.464198 0.779812 -0.569970
Cl2   Cl    Cl    0.635748 0.657811 0.850348 -0.607864
Cl3   Cl    Cl    0.353051 0.848438 0.328140 -0.503920
H1    H     H_    0.667172 0.121672 0.530816 0.091805
H2    H     H_    0.292054 0.360726 0.883023 0.402650
H3    H     H_    0.309327 0.210754 0.117049 0.403858
H4    H     H_    0.357353 0.210308 0.388507 0.350435
H5    H     H_    0.714606 0.131106 0.749699 0.348336
H6    H     H_    0.606210 0.618830 0.129790 0.187204
H7    H     H_    0.458763 0.247146 0.877612 0.156034
H8    H     H_    0.454375 0.247449 0.124510 0.127923
H9    H     H_    0.922731 0.471598 0.718653 0.186574
H10   H     H_    0.920940 0.516329 0.285713 0.170832
H11   H     H_    0.076236 0.515552 0.285274 0.195445
H12   H     H_    0.652064 0.893311 0.715981 0.278416
H13   H     H_    0.668693 0.892902 0.528744 0.162047
N1    N     N_R   0.499440 0.499140 0.142800 -0.152718
N2    N     N_R   0.499440 0.499180 0.857150 -0.149761
O1    O     O_R   0.500010 0.316790 0.614690 -0.584630
O2    O     O_3   0.325934 0.300280 0.127939 -0.681692
O3    O     O_3   0.362958 0.122880 0.355566 -0.696541
O4    O     O_3   0.652026 0.128342 0.743184 -0.716731
O5    O     O_R   0.500000 0.316760 0.385350 -0.627670
O6    O     O_R   0.378030 0.499990 0.614640 -0.593817
O7    O     O_R   0.378020 0.499950 0.385300 -0.571189
O8    O     O_R   0.500000 0.683240 0.614650 -0.572307
O9    O     O_R   0.499990 0.683210 0.385310 -0.589980
O10   O     O_R   0.621980 0.500050 0.614700 -0.553556
O11   O     O_R   0.621970 0.500010 0.385360 -0.635174
O12   O     O_3   0.329819 0.290348 0.857870 -0.670767
Zn1   Zn    Zn3+2 0.500010 0.500020 0.653130 1.053543
Zn2   Zn    Zn3+2 0.499990 0.499980 0.346870 1.008477

loop_
_geom_bond_atom_site_label_1
_geom_bond_atom_site_label_2
_ccdc_geom_bond_type
C12   C17   A    
H4    O3    S    
C20   H11   S    
C23   C24   T    
C16   O10   A    
N1    Zn2   S    
C10   N2    A    
C6    C7    S    
C13   O12   S    
O6    Zn1   S    
N2    Zn1   S    
C18   C22   S    
C11   C13   S    
C9    C10   A    
C10   Cl2   S    
C19   C20   A    
O10   Zn1   S    
C16   O11   A    
C9    H6    S    
C2    C3    A    
C13   H7    S    
C3    C15   S    
C7    H1    S    
C6    H13   S    
O9    Zn2   S    
C2    C28   A    
C9    N1    A    
C1    O5    A    
C26   C27   A    
H2    O12   S    
C7    C26   S    
C4    O6    A    
C8    C11   A    
O7    Zn2   S    
C17   C18   A    
O8    Zn1   S    
C21   C23   S    
C5    C6    S    
C4    C24   S    
C4    O7    A    
H3    O2    S    
O1    Zn1   S    
C5    C26   A    
C15   O8    A    
C19   H10   S    
C27   C28   A    
H5    O4    S    
C20   C21   A    
C18   C19   A    
C28   O3    S    
C16   C25   S    
C1    C27   S    
C14   O2    S    
C6    H12   S    
C1    O1    A    
C11   N2    A    
C8    C14   S    
O5    Zn2   S    
C3    C5    A    
C14   H8    S    
C13   C14   S    
C12   C21   A    
C17   H9    S    
C12   Cl1   S    
C8    N1    A    
C7    O4    S    
C2    Cl3   S    
O11   Zn2   S    
C22   C25   T    
C15   O9    A    
