data_mof_unit_49274.cif
_audit_creation_date              2013-03-05T15:52:14-0500
_audit_creation_method            fapswitch 2.2
_symmetry_space_group_name_H-M    P1
_symmetry_Int_Tables_number       1
_space_group_crystal_system       triclinic
_cell_length_a                    23.51344
_cell_length_b                    10.892084
_cell_length_c                    9.580666
_cell_angle_alpha                 91.036374
_cell_angle_beta                  89.90597
_cell_angle_gamma                 92.799021
_cell_volume                      2450.37889158

loop_
_atom_site_label
_atom_site_type_symbol
_atom_site_description
_atom_site_fract_x
_atom_site_fract_y
_atom_site_fract_z
_atom_type_partial_charge
O1    O     O_R   0.500000 0.319640 0.618810 -0.570657
O2    O     O_R   0.500000 0.319660 0.381240 -0.537521
C1    C     C_R   0.503913 0.262960 0.498827 0.826519
O3    O     O_R   0.417880 0.499950 0.618810 -0.553537
O4    O     O_R   0.417880 0.499980 0.381240 -0.588044
C2    C     C_R   0.390955 0.499688 0.500087 0.818650
Cu1   Cu    Cu3+1 0.500000 0.499990 0.640660 0.950126
Cu2   Cu    Cu3+1 0.500000 0.500010 0.359340 0.956837
O5    O     O_R   0.500000 0.680340 0.618760 -0.618394
O6    O     O_R   0.500000 0.680360 0.381190 -0.597679
O7    O     O_R   0.582120 0.500020 0.618760 -0.609076
O8    O     O_R   0.582120 0.500050 0.381190 -0.596028
C3    C     C_R   0.497763 0.737677 0.502401 0.812674
C4    C     C_R   0.609032 0.501003 0.499869 0.789025
C5    C     C_R   0.883150 0.610787 0.516648 0.558744
N1    N     N_R   0.851851 0.502851 0.497557 -0.482551
C6    C     C_R   0.877027 0.393146 0.478104 0.575575
C7    C     C_R   0.936996 0.388962 0.472298 -0.137351
C8    C     C_R   0.969781 0.499995 0.495652 -0.052868
C9    C     C_R   0.942696 0.611586 0.517383 -0.012394
C10   C     C_R   0.965477 0.278364 0.447767 0.340892
C11   C     C_R   0.024983 0.279667 0.453612 -0.206502
C12   C     C_R   0.057413 0.389247 0.477897 -0.075104
C13   C     C_R   0.029871 0.499936 0.497819 -0.012496
C14   C     C_R   0.062423 0.610775 0.520286 -0.010235
C15   C     C_R   0.034805 0.720993 0.540706 -0.144998
C16   C     C_R   0.975588 0.721366 0.539393 -0.115781
C17   C     C_R   0.117143 0.391260 0.480427 0.554311
N2    N     N_R   0.147977 0.499872 0.500719 -0.472024
C18   C     C_R   0.122031 0.608446 0.521144 0.533100
O9    O     O_2   0.856577 0.716974 0.534993 -0.476307
O10   O     O_2   0.843825 0.288913 0.468104 -0.441803
H1    H     H_    0.045852 0.194363 0.434906 0.215956
O11   O     O_2   0.144287 0.285796 0.462195 -0.525460
O12   O     O_2   0.153872 0.713679 0.541544 -0.524935
H2    H     H_    0.058823 0.807319 0.557984 0.202974
H3    H     H_    0.955674 0.808011 0.556045 0.228126
C19   C     C_R   0.239112 0.507191 0.372378 0.191203
C20   C     C_R   0.298485 0.506825 0.373441 -0.177356
H4    H     H_    0.321178 0.512361 0.275053 0.169802
C21   C     C_R   0.328290 0.499901 0.499945 -0.097774
C22   C     C_R   0.297723 0.493433 0.625962 -0.208681
H5    H     H_    0.319530 0.488199 0.724976 0.167254
C23   C     C_R   0.238448 0.493386 0.625428 -0.123202
H6    H     H_    0.215315 0.488106 0.723147 0.152231
C24   C     C_R   0.208922 0.500051 0.499325 0.316353
C25   C     C_R   0.760848 0.493410 0.372380 -0.067779
H7    H     H_    0.783482 0.484964 0.274388 0.150228
C26   C     C_R   0.701562 0.493072 0.372730 -0.159638
H8    H     H_    0.679205 0.484364 0.273999 0.164272
C27   C     C_R   0.671672 0.502866 0.499408 -0.032569
C28   C     C_R   0.702222 0.514500 0.625441 -0.204914
H9    H     H_    0.680368 0.522792 0.724537 0.166268
C29   C     C_R   0.761556 0.515547 0.624653 -0.078392
H10   H     H_    0.784732 0.524076 0.722224 0.150091
C30   C     C_R   0.790956 0.504451 0.498232 0.334831
C31   C     C_R   0.550150 0.129603 0.736788 -0.116508
H11   H     H_    0.571951 0.218724 0.726695 0.159352
C32   C     C_R   0.550994 0.075544 0.867192 -0.124424
H12   H     H_    0.570987 0.124482 0.954874 0.153992
C33   C     C_R   0.524003 0.960825 0.885411 -0.156832
H13   H     H_    0.521304 0.921500 0.988323 0.139694
C34   C     C_R   0.501855 0.894641 0.770330 -0.156795
H14   H     H_    0.479225 0.808993 0.792846 0.172499
C35   C     C_R   0.506532 0.942679 0.633816 0.097822
C36   C     C_R   0.522390 0.068476 0.622099 0.052765
C37   C     C_R   0.509176 0.129137 0.497262 -0.121792
C38   C     C_R   0.494318 0.059135 0.376105 0.163924
H15   H     H_    0.482111 0.880186 0.286001 0.162535
C39   C     C_R   0.490778 0.932016 0.381940 -0.229833
C40   C     C_R   0.496264 0.872182 0.508666 -0.128818
H16   H     H_    0.435405 0.361348 0.128103 0.149375
C41   C     C_R   0.576945 0.661861 0.146570 -0.245875
H17   H     H_    0.579283 0.668942 0.256502 0.236571
C42   C     C_R   0.615485 0.740659 0.076188 0.301078
C43   C     C_R   0.615124 0.738690 0.931412 -0.264031
H18   H     H_    0.644001 0.799296 0.873488 0.212894
C44   C     C_R   0.576803 0.660967 0.858509 -0.229001
H19   H     H_    0.579104 0.670699 0.748701 0.228258
C45   C     C_R   0.537758 0.579374 0.926538 0.154882
C46   C     C_R   0.537797 0.579503 0.075964 0.147684
N3    N     N_R   0.500540 0.501210 0.147910 -0.194391
C47   C     C_R   0.464423 0.423679 0.073041 -0.101672
C48   C     C_R   0.464296 0.423239 0.924637 0.245469
N4    N     N_R   0.500560 0.501290 0.852040 -0.189218
N5    N     N_R   0.935459 0.164754 0.410576 0.172787
O13   O     O_R   0.906971 0.156184 0.294192 -0.271155
O14   O     O_R   0.947050 0.064622 0.474512 -0.336257
N6    N     N_3   0.483053 0.115987 0.245860 -0.567115
H20   H     H_    0.442215 0.086448 0.212695 0.210271
H21   H     H_    0.512286 0.085550 0.172325 0.217227
N7    N     N_R   0.654519 0.823394 0.152023 0.137242
O15   O     O_R   0.655590 0.824814 0.287900 -0.352358
O16   O     O_R   0.689294 0.898598 0.085756 -0.313081
N8    N     N_3   0.426028 0.339905 0.850185 -0.518003
H22   H     H_    0.434721 0.250547 0.878834 0.205985
H23   H     H_    0.384593 0.356545 0.882662 0.188589
N9    N     N_3   0.210203 0.515661 0.241729 -0.590022
H24   H     H_    0.182694 0.437973 0.228989 0.243456
H25   H     H_    0.185632 0.593092 0.246051 0.238840

loop_
_geom_bond_atom_site_label_1
_geom_bond_atom_site_label_2
_geom_bond_distance
_ccdc_geom_bond_type
C34   C35   1.419545 A    
C7    C10   1.422286 A    
C21   C22   1.405155 A    
C8    C9    1.411489 A    
C31   C36   1.417795 A    
C19   N9    1.431930 S    
C46   N3    1.384242 A    
Cu1   Cu2   2.695236 S    
C20   C21   1.406064 A    
Cu1   N4    2.025014 S    
C23   H6    1.082991 S    
Cu1   O7    1.941932 S    
C15   C16   1.392664 A    
N2    C18   1.367760 A    
C18   O12   1.349474 S    
Cu2   N3    2.025935 S    
C17   N2    1.367973 A    
C43   C44   1.386577 A    
O4    C2    1.301877 A    
O7    C4    1.302075 A    
N5    O14   1.301055 A    
C31   C32   1.391341 A    
C5    N1    1.365789 A    
C7    C8    1.416563 A    
C41   H17   1.055974 S    
C33   C34   1.393906 A    
O5    C3    1.290014 A    
C10   N5    1.433870 S    
C48   N4    1.371947 A    
C47   C48   1.421738 A    
C23   C24   1.399194 A    
N1    C6    1.368815 A    
C26   C27   1.406467 A    
C2    C21   1.473588 S    
C12   C13   1.406011 A    
C39   C40   1.397428 A    
N6    H21   1.044486 S    
C36   C37   1.418949 A    
C17   O11   1.349595 S    
C32   H12   1.082337 S    
C10   C11   1.399779 A    
C41   C42   1.398383 A    
C33   H13   1.082611 S    
C22   C23   1.393740 A    
O3    Cu1   1.942558 S    
C41   C46   1.417412 A    
C28   C29   1.394648 A    
C6    C7    1.414014 A    
C5    C9    1.399741 A    
C29   C30   1.399868 A    
C32   C33   1.387321 A    
C27   C28   1.406588 A    
C25   H7    1.083098 S    
C13   C14   1.410879 A    
C25   C26   1.393851 A    
C20   H4    1.083587 S    
C44   H19   1.060289 S    
C3    C40   1.467320 S    
C14   C15   1.403013 A    
C35   C40   1.426569 A    
N3    C47   1.363417 A    
C37   C38   1.412126 A    
O1    C1    1.300202 A    
C48   N8    1.428721 S    
C42   C43   1.386868 A    
N1    C30   1.432819 S    
C45   N4    1.380301 A    
C4    C27   1.472024 S    
Cu2   O8    1.942558 S    
N7    O16   1.301666 A    
C38   N6    1.433789 S    
C12   C17   1.403801 A    
C43   H18   1.083060 S    
C42   N7    1.442252 S    
O3    C2    1.302570 A    
O8    C4    1.301786 A    
N9    H24   1.045172 S    
N9    H25   1.045502 S    
C6    O10   1.348085 S    
C22   H5    1.082810 S    
C28   H9    1.083239 S    
N5    O13   1.301276 A    
C15   H2    1.083174 S    
C14   C18   1.403085 A    
Cu1   O5    1.979332 S    
C11   H1    1.083700 S    
C29   H10   1.083063 S    
O1    Cu1   1.971740 S    
C1    C37   1.468661 S    
C45   C46   1.431574 A    
O6    C3    1.310682 A    
O4    Cu2   1.941934 S    
N8    H23   1.045508 S    
C5    O9    1.349779 S    
C9    C16   1.404814 A    
N2    C24   1.432971 S    
O2    C1    1.300032 A    
C31   H11   1.081224 S    
C19   C20   1.396313 A    
C16   H3    1.082967 S    
N7    O15   1.301874 A    
C8    C13   1.413158 A    
C44   C45   1.413079 A    
C35   C36   1.408762 A    
H15   C39   1.084286 S    
C19   C24   1.408675 A    
H16   C47   1.082264 S    
C34   H14   1.076278 S    
Cu2   O6    1.971741 S    
C26   H8    1.083335 S    
O2    Cu2   1.979330 S    
N8    H22   1.045801 S    
C38   C39   1.385160 A    
C11   C12   1.400656 A    
N6    H20   1.045787 S    
C25   C30   1.399534 A    
