data_mof_unit_54523.cif
_audit_creation_date              2012-12-10T17:02:19-0500
_audit_creation_method            fapswitch 2.2
_symmetry_space_group_name_H-M    P1
_symmetry_Int_Tables_number       1
_space_group_crystal_system       triclinic
_cell_length_a                    10.571825
_cell_length_b                    10.707764
_cell_length_c                    9.974228
_cell_angle_alpha                 88.54126
_cell_angle_beta                  90.282783
_cell_angle_gamma                 90.189135
_cell_volume                      1128.70330476

loop_
_atom_site_label
_atom_site_type_symbol
_atom_type_description
_atom_site_fract_x
_atom_site_fract_y
_atom_site_fract_z
_atom_type_partial_charge
C1    C     C_R   0.490474 0.262915 0.501751 0.909890
C2    C     C_2   0.457392 0.134087 0.507711 -0.389902
C3    C     C_2   0.578257 0.567764 0.922630 0.088632
C4    C     C_R   0.260785 0.480645 0.499685 0.876550
C5    C     C_2   0.566974 0.578696 0.074199 0.093385
C6    C     C_R   0.500154 0.737569 0.497863 0.961502
C7    C     C_R   0.738545 0.479144 0.500552 0.917494
C8    C     C_R   0.133628 0.347753 0.729673 -0.207531
C9    C     C_R   0.069413 0.309309 0.845849 0.154539
C10   C     C_R   0.938065 0.312940 0.848149 -0.143861
C11   C     C_R   0.870764 0.353070 0.734730 -0.208003
C12   C     C_R   0.067468 0.396393 0.616062 0.066812
C13   C     C_R   0.934119 0.397591 0.617932 0.068022
C14   C     C_R   0.129647 0.437931 0.497131 -0.194451
C15   C     C_R   0.062962 0.434503 0.373709 0.046435
C16   C     C_R   0.932508 0.431790 0.375328 0.104871
C17   C     C_R   0.869384 0.436698 0.499310 -0.200594
C18   C     C_2   0.431847 0.936292 0.409223 0.072696
C19   C     C_2   0.512239 0.869429 0.489776 -0.096089
C20   C     C_2   0.445699 0.069690 0.396602 -0.134889
H1    H     H_    0.440985 0.090691 0.605813 0.156341
H2    H     H_    0.730048 0.668097 0.120111 0.160797
H3    H     H_    0.602441 0.762148 0.099142 0.155621
H4    H     H_    0.462065 0.424987 0.103098 0.122797
H5    H     H_    0.189264 0.184274 0.931136 0.177268
H6    H     H_    0.201717 0.330301 0.989553 0.170150
H7    H     H_    0.890069 0.503577 0.189815 0.190761
H8    H     H_    0.890776 0.345140 0.201639 0.195234
H9    H     H_    0.365890 0.825994 0.260264 0.207513
H10   H     H_    0.275327 0.824655 0.401628 0.177665
H11   H     H_    0.600697 0.964203 0.640274 0.187008
H12   H     H_    0.234325 0.331544 0.728207 0.159906
H13   H     H_    0.669410 0.983261 0.485058 0.204209
H14   H     H_    0.449578 0.113183 0.297065 0.170857
H15   H     H_    0.887502 0.279493 0.936233 0.140488
H16   H     H_    0.769571 0.340724 0.738484 0.177771
H17   H     H_    0.192847 0.364174 0.244654 0.212031
H18   H     H_    0.160398 0.521752 0.220733 0.210397
H19   H     H_    0.664146 0.731087 0.870513 0.165686
H20   H     H_    0.763107 0.607791 0.893201 0.164922
H21   H     H_    0.424827 0.460918 0.899427 0.122062
N1    N     N_2   0.501340 0.501330 0.852150 -0.195771
N2    N     N_2   0.501380 0.501360 0.147810 -0.192841
N3    N     N_3   0.123384 0.433463 0.244925 -0.468815
N4    N     N_3   0.675852 0.635991 0.853319 -0.366196
N5    N     N_3   0.633596 0.676720 0.139878 -0.373504
N6    N     N_3   0.137237 0.261744 0.960482 -0.468377
N7    N     N_3   0.864555 0.426412 0.250249 -0.413777
N8    N     N_3   0.329326 0.880651 0.336114 -0.455430
N9    N     N_3   0.623925 0.920782 0.551272 -0.471813
O1    O     O_R   0.499980 0.319060 0.613040 -0.645026
O2    O     O_R   0.500020 0.319100 0.386900 -0.622336
O3    O     O_R   0.316750 0.499980 0.613090 -0.624055
O4    O     O_R   0.316790 0.500020 0.386950 -0.634466
O5    O     O_R   0.499980 0.680900 0.613100 -0.584116
O6    O     O_R   0.500020 0.680940 0.386960 -0.604414
O7    O     O_R   0.683210 0.499980 0.613050 -0.602956
O8    O     O_R   0.683250 0.500020 0.386910 -0.565927
Zn1   Zn    Zn3+2 0.499970 0.499970 0.650990 0.935620
Zn2   Zn    Zn3+2 0.500030 0.500030 0.349010 0.939207

loop_
_geom_bond_atom_site_label_1
_geom_bond_atom_site_label_2
_ccdc_geom_bond_type
N1    Zn1   S    
H7    N7    S    
C3    N1    D    
H18   N3    S    
C10   H15   S    
O5    Zn1   S    
C4    O3    A    
C11   C13   A    
H21   N1    S    
H5    N6    S    
C7    O8    A    
C13   C17   A    
C6    O5    A    
C8    C12   A    
C20   H14   S    
C16   N7    S    
H17   N3    S    
O3    Zn1   S    
H3    N5    S    
O4    Zn2   S    
C6    C19   S    
C1    O1    A    
C19   N9    S    
H6    N6    S    
C2    H1    S    
N2    Zn2   S    
C9    C10   A    
C11   H16   S    
H2    N5    S    
H10   N8    S    
C12   C14   A    
C15   N3    S    
C9    N6    S    
C18   C20   S    
C4    C14   S    
H20   N4    S    
C1    O2    A    
C7    O7    A    
O7    Zn1   S    
O1    Zn1   S    
C10   C11   A    
H11   N9    S    
O8    Zn2   S    
C15   C16   A    
C8    H12   S    
C12   C13   A    
C8    C9    A    
C18   C19   D    
C5    N5    S    
C1    C2    S    
H4    N2    S    
C14   C15   A    
C5    N2    D    
H9    N8    S    
O2    Zn2   S    
C4    O4    A    
H13   N9    S    
C2    C20   D    
H19   N4    S    
C3    N4    S    
H8    N7    S    
O6    Zn2   S    
C18   N8    S    
C6    O6    A    
C16   C17   A    
C3    C5    S    
C7    C17   S    
