data_mof_unit_27293.cif
_audit_creation_date              2012-12-10T17:42:45-0500
_audit_creation_method            fapswitch 2.2
_symmetry_space_group_name_H-M    P1
_symmetry_Int_Tables_number       1
_space_group_crystal_system       triclinic
_cell_length_a                    9.922722
_cell_length_b                    10.655915
_cell_length_c                    13.086532
_cell_angle_alpha                 90.647035
_cell_angle_beta                  70.833045
_cell_angle_gamma                 89.581838
_cell_volume                      1306.83639065

loop_
_atom_site_label
_atom_site_type_symbol
_atom_type_description
_atom_site_fract_x
_atom_site_fract_y
_atom_site_fract_z
_atom_type_partial_charge
C1    C     C_R   0.501627 0.739385 0.494756 0.867162
C2    C     C_R   0.373077 0.460209 0.818365 -0.114310
C3    C     C_R   0.420045 0.871011 0.326735 -0.338011
C4    C     C_R   0.421873 0.488778 0.703089 0.850286
C5    C     C_R   0.376686 0.938127 0.249269 0.596026
C6    C     C_R   0.385889 0.068503 0.249380 -0.194613
C7    C     C_R   0.431593 0.131914 0.325053 -0.285982
C8    C     C_R   0.466046 0.066324 0.406465 0.105860
C9    C     C_R   0.462344 0.934919 0.406710 0.046542
C10   C     C_R   0.504431 0.871980 0.486466 -0.070489
C11   C     C_R   0.552162 0.936148 0.561090 -0.208305
C12   C     C_R   0.429125 0.422371 0.982323 0.085488
C13   C     C_R   0.553364 0.064221 0.561520 -0.210040
C14   C     C_R   0.507655 0.128423 0.486877 -0.077112
C15   C     C_R   0.799168 0.664071 0.641282 -0.141407
C16   C     C_R   0.502008 0.260640 0.496619 0.859927
C17   C     C_R   0.838942 0.742604 0.711802 -0.192345
C18   C     C_R   0.977960 0.740510 0.712680 -0.190296
C19   C     C_R   0.078214 0.660353 0.642603 -0.167602
C20   C     C_R   0.041763 0.579439 0.570123 0.157509
C21   C     C_R   0.897415 0.580243 0.569750 0.176400
C22   C     C_R   0.958195 0.423791 0.432926 -0.129167
C23   C     C_R   0.468698 0.412719 0.869077 0.089378
C24   C     C_R   0.101252 0.423899 0.432879 -0.123158
C25   C     C_R   0.578445 0.494124 0.295915 0.844380
C26   C     C_R   0.787713 0.378110 0.014133 -0.198279
C27   C     C_R   0.621573 0.462319 0.180726 -0.053713
C28   C     C_R   0.231117 0.488479 0.880391 -0.199921
C29   C     C_R   0.185713 0.475520 0.991800 -0.151890
C30   C     C_R   0.283490 0.444085 0.043008 -0.216273
C31   C     C_3   0.310756 0.754590 0.172525 0.093321
C32   C     C_3   0.175439 0.713819 0.261633 -0.835503
C33   C     C_R   0.538183 0.415943 0.029657 0.078855
C34   C     C_R   0.678448 0.377582 0.967621 0.184474
C35   C     C_R   0.707106 0.341423 0.859867 -0.253214
C36   C     C_R   0.603302 0.358488 0.810931 -0.204755
C37   C     C_R   0.513471 0.458511 0.134659 -0.300933
C38   C     C_R   0.759270 0.420594 0.120758 -0.198046
H1    H     H_    0.843164 0.418676 0.156706 0.147153
H2    H     H_    0.182974 0.664411 0.647536 0.207262
H3    H     H_    0.811485 0.305378 0.812090 0.152800
H4    H     H_    0.179196 0.361825 0.377832 0.146949
H5    H     H_    0.894884 0.347171 0.967776 0.141308
H6    H     H_    0.409207 0.492704 0.181556 0.158121
H7    H     H_    0.155340 0.521825 0.842939 0.159541
H8    H     H_    0.242197 0.435492 0.129799 0.124472
H9    H     H_    0.075640 0.495046 0.039121 0.143907
H10   H     H_    0.630062 0.328160 0.727525 0.180870
H11   H     H_    0.584786 0.886860 0.621315 0.142345
H12   H     H_    0.421813 0.770215 0.325317 0.164254
H13   H     H_    0.408563 0.705763 0.174725 0.125722
H14   H     H_    0.299480 0.725206 0.094081 0.184926
H15   H     H_    0.080612 0.760344 0.250859 0.262574
H16   H     H_    0.163344 0.610793 0.256887 0.207553
H17   H     H_    0.179137 0.738228 0.343227 0.256488
H18   H     H_    0.357339 0.121905 0.189387 0.163423
H19   H     H_    0.440381 0.232665 0.318019 0.175156
H20   H     H_    0.586266 0.113619 0.622175 0.148048
H21   H     H_    0.928795 0.361579 0.378033 0.147141
H22   H     H_    0.690809 0.672798 0.645456 0.200216
H23   H     H_    0.761200 0.805715 0.765993 0.149193
H24   H     H_    0.008627 0.801732 0.767681 0.152740
N1    N     N_R   0.856860 0.501200 0.500990 -0.118997
N2    N     N_R   0.142450 0.501280 0.501020 -0.117622
O1    O     O_R   0.385310 0.683220 0.500000 -0.636543
O2    O     O_R   0.614640 0.683250 0.500010 -0.625760
O3    O     O_R   0.328400 0.499950 0.653610 -0.628159
O4    O     O_R   0.557730 0.499970 0.653620 -0.637576
O5    O     O_R   0.385360 0.316750 0.499990 -0.611073
O6    O     O_R   0.614690 0.316780 0.500000 -0.621465
O7    O     O_R   0.442270 0.500030 0.346380 -0.631234
O8    O     O_R   0.671600 0.500050 0.346390 -0.607047
O9    O     O_3   0.325130 0.886266 0.170843 -0.634062
Zn1   Zn    Zn3+2 0.346880 0.499980 0.499990 0.919600
Zn2   Zn    Zn3+2 0.653120 0.500020 0.500010 0.927532

loop_
_geom_bond_atom_site_label_1
_geom_bond_atom_site_label_2
_ccdc_geom_bond_type
C24   H4    S    
C15   H22   S    
C35   C36   A    
C31   H14   S    
C7    C8    A    
O4    Zn2   S    
C12   C23   A    
C29   H9    S    
C3    C9    A    
C28   C29   A    
C18   C19   A    
C5    C6    A    
C31   O9    S    
C27   C38   A    
C17   C18   A    
C34   C35   A    
C17   H23   S    
C22   N1    A    
C26   C34   A    
C19   C20   A    
C8    C9    A    
C1    O1    A    
C25   O7    A    
C9    C10   A    
C32   H17   S    
C24   N2    A    
C13   C14   A    
O8    Zn2   S    
C32   H16   S    
C3    H12   S    
C26   H5    S    
C33   C34   A    
C28   H7    S    
C1    C10   S    
C16   O6    A    
C19   H2    S    
C31   H13   S    
C22   H21   S    
C25   O8    A    
C26   C38   A    
C13   H20   S    
C33   C37   A    
O1    Zn1   S    
C20   N2    A    
C2    C4    S    
C29   C30   A    
C11   H11   S    
C4    O3    A    
C31   C32   S    
C1    O2    A    
O5    Zn1   S    
O3    Zn1   S    
C14   C16   S    
C32   H15   S    
O6    Zn2   S    
C4    O4    A    
C15   C17   A    
C8    C14   A    
C12   C30   A    
C30   H8    S    
C18   H24   S    
C16   O5    A    
C6    H18   S    
C3    C5    A    
O7    Zn1   S    
C6    C7    A    
C25   C27   S    
C37   H6    S    
C11   C13   A    
C38   H1    S    
N1    Zn2   S    
C27   C37   A    
O2    Zn2   S    
C36   H10   S    
C22   C24   A    
C5    O9    S    
C35   H3    S    
C21   N1    A    
C10   C11   A    
C15   C21   A    
C20   C21   A    
C23   C36   A    
C2    C23   A    
N2    Zn1   S    
C2    C28   A    
C12   C33   A    
C7    H19   S    
