data_mof_unit_6600.cif
_audit_creation_date              2012-12-11T15:47:01-0500
_audit_creation_method            fapswitch 2.2
_symmetry_space_group_name_H-M    P1
_symmetry_Int_Tables_number       1
_space_group_crystal_system       triclinic
_cell_length_a                    20.218134
_cell_length_b                    7.256725
_cell_length_c                    13.555177
_cell_angle_alpha                 90.189839
_cell_angle_beta                  103.186656
_cell_angle_gamma                 89.792433
_cell_volume                      1936.32176755

loop_
_atom_site_label
_atom_site_type_symbol
_atom_type_description
_atom_site_fract_x
_atom_site_fract_y
_atom_site_fract_z
_atom_type_partial_charge
O1    O     O_R   0.449560 0.506810 0.599700 -0.535374
O2    O     O_R   0.550440 0.006810 0.400300 -0.532676
O3    O     O_R   0.587960 0.180060 0.595760 -0.541189
O4    O     O_R   0.412040 0.680060 0.404240 -0.548893
C1    C     C_R   0.614894 0.344137 0.617602 0.695647
C2    C     C_R   0.385107 0.844256 0.382383 0.697643
O5    O     O_R   0.452380 0.177430 0.611700 -0.536822
O6    O     O_R   0.547620 0.677430 0.388300 -0.540136
O7    O     O_R   0.413900 0.001890 0.416350 -0.536115
O8    O     O_R   0.586100 0.501890 0.583650 -0.543627
C3    C     C_R   0.436140 0.346224 0.637274 0.690633
C4    C     C_R   0.563870 0.845088 0.362720 0.691145
O9    O     O_3   0.487530 0.337490 0.435890 -0.381687
O10   O     O_3   0.512470 0.837490 0.564110 -0.381166
V1    V     V_3+5 0.502310 0.064660 0.511890 1.446531
V2    V     V_3+5 0.497690 0.564660 0.488110 1.422519
C5    C     C_R   0.612389 0.799438 0.113369 -0.159720
C6    C     C_R   0.386584 0.451882 0.881095 -0.159603
H1    H     H_    0.520361 0.774475 0.164873 0.107707
H2    H     H_    0.478263 0.466392 0.827894 0.108685
H3    H     H_    0.693749 0.809582 0.985921 0.120745
H4    H     H_    0.305003 0.473017 0.008074 0.122298
H5    H     H_    0.586852 0.772353 0.035297 0.113034
H6    H     H_    0.411518 0.499443 0.956232 0.112910
C7    C     C_R   0.604956 0.849034 0.286601 -0.065402
C8    C     C_R   0.395156 0.358740 0.713384 -0.066167
C9    C     C_R   0.933016 0.852329 0.317138 -0.169495
C10   C     C_R   0.067319 0.340523 0.683325 -0.168675
C11   C     C_R   0.898233 0.830661 0.393561 -0.117051
C12   C     C_R   0.102036 0.343073 0.606018 -0.117344
C13   C     C_R   0.827505 0.825419 0.370384 -0.138402
C14   C     C_R   0.172635 0.355350 0.628654 -0.137024
C15   C     C_R   0.789337 0.849800 0.269807 0.068270
C16   C     C_R   0.210831 0.357886 0.730186 0.069278
C17   C     C_R   0.825501 0.854939 0.191108 0.071940
C18   C     C_R   0.174496 0.372408 0.808442 0.071654
C19   C     C_R   0.716527 0.853718 0.243885 0.027331
C20   C     C_R   0.283622 0.362063 0.756234 0.028421
C21   C     C_R   0.682824 0.825804 0.140634 0.139556
C22   C     C_R   0.316622 0.417108 0.856227 0.139328
C23   C     C_R   0.719482 0.825084 0.064929 -0.196336
C24   C     C_R   0.279728 0.436643 0.931084 -0.196501
C25   C     C_R   0.789425 0.846876 0.089341 -0.190389
C26   C     C_R   0.210158 0.407369 0.908577 -0.191344
C27   C     C_R   0.675255 0.885327 0.314878 -0.105228
C28   C     C_R   0.325539 0.313339 0.688461 -0.106106
C29   C     C_R   0.574342 0.802709 0.186666 -0.180622
C30   C     C_R   0.424817 0.431030 0.808677 -0.178737
C31   C     C_R   0.897392 0.860890 0.216047 -0.069015
C32   C     C_R   0.102757 0.358542 0.784132 -0.069036
H7    H     H_    0.988060 0.855160 0.336468 0.108229
H8    H     H_    0.012376 0.331354 0.664344 0.108520
H9    H     H_    0.804147 0.791230 0.431824 0.129894
H10   H     H_    0.195745 0.373475 0.565195 0.128876
H11   H     H_    0.926290 0.813920 0.471210 0.125447
H12   H     H_    0.073979 0.339058 0.527799 0.125077
H13   H     H_    0.815249 0.848975 0.027613 0.115295
H14   H     H_    0.184165 0.420848 0.969795 0.116580
C33   C     C_R   0.217975 0.023309 0.221508 -0.147279
C34   C     C_R   0.783015 0.522949 0.774912 -0.152243
H15   H     H_    0.194452 0.156364 0.201289 0.119213
H16   H     H_    0.807314 0.655583 0.792351 0.122833
C35   C     C_R   0.283188 0.018919 0.284786 -0.117897
C36   C     C_R   0.717828 0.518440 0.711530 -0.160847
H17   H     H_    0.307568 0.148182 0.311394 0.123818
H18   H     H_    0.694260 0.647240 0.682017 0.125698
C37   C     C_R   0.316196 0.850188 0.313545 -0.031998
C38   C     C_R   0.683814 0.350164 0.686415 -0.033489
C39   C     C_R   0.282241 0.685930 0.276652 -0.159023
C40   C     C_R   0.716800 0.186562 0.726834 -0.113348
H19   H     H_    0.305855 0.552985 0.296912 0.121366
H20   H     H_    0.692376 0.054057 0.709475 0.123037
C41   C     C_R   0.217076 0.690283 0.213206 -0.157547
C42   C     C_R   0.782026 0.190996 0.790072 -0.149038
H21   H     H_    0.192833 0.560929 0.186458 0.119723
H22   H     H_    0.805508 0.062089 0.819558 0.117608
C43   C     C_R   0.183855 0.859018 0.184944 -0.039296
C44   C     C_R   0.816191 0.359223 0.814912 -0.040334
O11   O     O_R   0.913920 0.203370 0.916260 -0.539295
O12   O     O_R   0.086080 0.703370 0.083740 -0.540598
O13   O     O_R   0.047620 0.535540 0.888290 -0.538171
O14   O     O_R   0.952380 0.035540 0.111710 -0.538124
C45   C     C_R   0.063590 0.367880 0.862350 0.680697
C46   C     C_R   0.936464 0.868644 0.137733 0.680906
O15   O     O_R   0.912040 0.532780 0.904220 -0.546163
O16   O     O_R   0.087960 0.032780 0.095780 -0.545285
O17   O     O_R   0.949550 0.708160 0.099720 -0.535292
O18   O     O_R   0.050450 0.208160 0.900280 -0.534991
C47   C     C_R   0.885413 0.365013 0.883045 0.675910
C48   C     C_R   0.114604 0.864865 0.116907 0.675404
O19   O     O_3   0.012480 0.375300 0.064060 -0.378497
O20   O     O_3   0.987520 0.875300 0.935940 -0.378127
V3    V     V_3+5 0.997690 0.648180 0.988110 1.412960
V4    V     V_3+5 0.002310 0.148180 0.011890 1.416397
C49   C     C_1   0.701269 0.975514 0.411521 0.275517
N1    N     N_1   0.721653 0.048248 0.488541 -0.368610
C50   C     C_1   0.301199 0.197577 0.600335 0.276842
N2    N     N_1   0.282135 0.104334 0.530230 -0.365749

loop_
_geom_bond_atom_site_label_1
_geom_bond_atom_site_label_2
_ccdc_geom_bond_type
C20   C22   A    
C35   H17   S    
O14   V4    S    
C9    C11   A    
C23   C25   A    
O15   V3    S    
C49   N1    T    
O1    C3    A    
C46   O17   A    
O2    C4    A    
C33   C43   A    
C2    O7    A    
C50   N2    T    
C18   C32   A    
C21   C23   A    
O5    C3    A    
C34   C44   A    
C5    H5    S    
C42   H22   S    
C6    H6    S    
C36   C38   A    
C31   C46   S    
H1    C29   S    
C34   H16   S    
C5    C21   A    
C39   H19   S    
C6    C22   A    
O16   V4    S    
C10   C32   A    
C26   H14   S    
C40   C42   A    
C13   C15   A    
C39   C41   A    
C17   C25   A    
C7    C29   A    
C8    C30   A    
C22   C24   A    
C45   O18   A    
O6    V2    S    
C41   H21   S    
C24   C26   A    
C1    C38   S    
C14   H10   S    
O13   C45   A    
C9    H7    S    
C32   C45   S    
O18   V4    S    
C44   C47   S    
C19   C21   A    
C35   C37   A    
C43   C48   S    
C33   H15   S    
O11   C47   A    
O11   V4    S    
O4    C2    A    
O16   C48   A    
O15   C47   A    
C11   H11   S    
C3    C8    S    
C12   H12   S    
C15   C19   A    
C37   C39   A    
C14   C16   A    
O4    V2    S    
C17   C31   A    
O13   V3    S    
O6    C4    A    
O1    V2    S    
C13   H9    S    
O2    V1    S    
H2    C30   S    
H3    C23   S    
C2    C37   S    
C28   C50   S    
O14   C46   A    
C18   C26   A    
C19   C27   A    
C27   C49   S    
C7    C27   A    
O3    V1    S    
C16   C20   A    
C5    C29   A    
O3    C1    A    
C6    C30   A    
C33   C35   A    
C4    C7    S    
C34   C36   A    
C10   C12   A    
O7    V1    S    
C1    O8    A    
C11   C13   A    
O8    V2    S    
O19   V4    S    
C12   C14   A    
C10   H8    S    
H4    C24   S    
O17   V3    S    
O5    V1    S    
O20   V3    S    
C15   C17   A    
C16   C18   A    
O12   C48   A    
C20   C28   A    
C25   H13   S    
C38   C40   A    
C42   C44   A    
O9    V2    S    
C41   C43   A    
O10   V1    S    
C40   H20   S    
O12   V3    S    
C8    C28   A    
C9    C31   A    
C36   H18   S    
