data_mof_unit_37702.cif
_audit_creation_date              2012-12-10T18:59:17-0500
_audit_creation_method            fapswitch 2.2
_symmetry_space_group_name_H-M    P1
_symmetry_Int_Tables_number       1
_space_group_crystal_system       triclinic
_cell_length_a                    10.893442
_cell_length_b                    10.854894
_cell_length_c                    9.694018
_cell_angle_alpha                 88.170345
_cell_angle_beta                  89.791184
_cell_angle_gamma                 94.215172
_cell_volume                      1142.58594784

loop_
_atom_site_label
_atom_site_type_symbol
_atom_type_description
_atom_site_fract_x
_atom_site_fract_y
_atom_site_fract_z
_atom_type_partial_charge
C1    C     C_R   0.503320 0.262579 0.500861 0.829255
C2    C     C_R   0.060905 0.515168 0.627541 0.041095
C3    C     C_R   0.128407 0.513215 0.503161 -0.125395
C4    C     C_R   0.063708 0.501364 0.379995 -0.108876
C5    C     C_R   0.935962 0.493792 0.379573 -0.112527
C6    C     C_R   0.870075 0.481255 0.502869 -0.115833
C7    C     C_R   0.540937 0.061231 0.618049 0.070492
C8    C     C_R   0.518192 0.129832 0.498202 -0.104117
C9    C     C_R   0.516239 0.068925 0.371506 -0.152886
C10   C     C_R   0.517957 0.940354 0.369594 -0.191421
C11   C     C_R   0.521995 0.871380 0.494328 -0.085442
C12   C     C_R   0.262999 0.507072 0.500597 0.823145
C13   C     C_R   0.543603 0.934140 0.616259 0.116312
C14   C     C_3   0.477813 0.915263 0.751188 -0.461540
C15   C     C_3   0.471802 0.053379 0.750549 -0.316064
C16   C     C_R   0.546479 0.601079 0.068911 0.209144
C17   C     C_R   0.438251 0.409697 0.080541 0.017468
C18   C     C_R   0.431905 0.411103 0.933894 0.482913
C19   C     C_R   0.549924 0.599224 0.923435 0.177616
C20   C     C_3   0.677825 0.658320 0.917918 -0.421413
C21   C     C_3   0.671206 0.666965 0.074544 -0.393205
C22   C     C_R   0.505123 0.737384 0.498056 0.779222
C23   C     C_R   0.736450 0.491418 0.500564 0.783020
C24   C     C_R   0.110507 0.560184 0.750881 -0.217882
C25   C     C_R   0.045304 0.539119 0.874728 0.452270
C26   C     C_R   0.939769 0.454382 0.876951 0.340505
C27   C     C_R   0.881822 0.429532 0.752094 -0.302986
C28   C     C_R   0.935411 0.475526 0.627522 0.026570
Cu1   Cu    Cu3+1 0.499990 0.499980 0.640670 1.018497
Cu2   Cu    Cu3+1 0.500010 0.500020 0.359330 0.997799
H1    H     H_    0.112310 0.499251 0.284010 0.270082
H2    H     H_    0.536729 0.881341 0.834945 0.200442
H3    H     H_    0.376063 0.078510 0.734974 0.271429
H4    H     H_    0.525698 0.098456 0.834663 0.235040
H5    H     H_    0.387777 0.337577 0.141766 0.187801
H6    H     H_    0.745123 0.594303 0.883329 0.226506
H7    H     H_    0.739407 0.614799 0.131500 0.266965
H8    H     H_    0.666498 0.763420 0.108339 0.182880
H9    H     H_    0.195157 0.618975 0.750285 0.192118
H10   H     H_    0.798037 0.369345 0.752268 0.218039
H11   H     H_    0.887902 0.495352 0.283128 0.255488
H12   H     H_    0.506123 0.119084 0.274316 0.189554
H13   H     H_    0.508277 0.895185 0.271791 0.169913
H14   H     H_    0.385952 0.864076 0.742890 0.224231
N1    N     N_R   0.500790 0.500930 0.147930 -0.216043
N2    N     N_R   0.500790 0.500890 0.852020 -0.253762
O1    O     O_R   0.500000 0.319640 0.618810 -0.532690
O2    O     O_R   0.500010 0.319680 0.381230 -0.590943
O3    O     O_R   0.319640 0.499980 0.618820 -0.532875
O4    O     O_R   0.319650 0.500020 0.381230 -0.579185
O5    O     O_R   0.499990 0.680320 0.618770 -0.587575
O6    O     O_R   0.500000 0.680360 0.381190 -0.592632
O7    O     O_R   0.680350 0.499980 0.618770 -0.596773
O8    O     O_R   0.680360 0.500020 0.381180 -0.565837
S1    S     S_3+6 0.315556 0.299851 0.879935 -0.006989
O9    O     O_2   0.296396 0.285130 0.728565 -0.298058
O10   O     O_2   0.340363 0.177970 0.947841 -0.362429
O11   O     O_3   0.182759 0.337249 0.947111 -0.485864
H15   H     H_    0.123617 0.266807 0.925767 0.407030
H16   H     H_    0.685201 0.749649 0.862988 0.190759
S2    S     S_3+6 0.092090 0.633829 0.011423 0.013405
O12   O     O_2   0.123402 0.762692 0.953923 -0.298803
O13   O     O_2   0.990949 0.638061 0.115785 -0.313410
O14   O     O_3   0.219379 0.581728 0.082994 -0.529557
H17   H     H_    0.256327 0.651583 0.135965 0.362595
S3    S     S_3+6 0.889707 0.357857 0.019743 -0.007234
O15   O     O_2   0.776466 0.403287 0.083141 -0.335467
O16   O     O_2   0.857178 0.230232 0.968713 -0.299372
O17   O     O_3   0.000690 0.348297 0.137960 -0.509198
H18   H     H_    0.973182 0.276424 0.198806 0.374679

loop_
_geom_bond_atom_site_label_1
_geom_bond_atom_site_label_2
_ccdc_geom_bond_type
C16   N1    A    
S2    O14   S    
C12   O4    A    
S1    O9    D    
C1    O2    A    
C23   O7    A    
Cu1   Cu2   S    
C20   H16   S    
C1    C8    S    
C11   C13   A    
C9    C10   A    
Cu1   N2    S    
C11   C22   S    
S3    O16   D    
C19   C20   S    
C27   H10   S    
C17   H5    S    
O14   H17   S    
C7    C15   S    
C12   O3    A    
Cu2   O4    S    
C19   N2    A    
C21   H7    S    
C7    C8    A    
C25   S2    S    
C13   C14   S    
C20   C21   S    
C2    C24   A    
C4    C5    A    
Cu2   O8    S    
C9    H12   S    
O17   H18   S    
Cu1   O7    S    
C18   S1    S    
Cu1   O1    S    
C16   C19   A    
C5    C6    A    
C6    C23   S    
C18   N2    A    
C22   O6    A    
C25   C26   A    
C17   N1    A    
C17   C18   A    
C2    C3    A    
S1    O10   D    
C26   C27   A    
S2    O12   D    
O11   H15   S    
C4    H1    S    
C2    C28   A    
C10   C11   A    
C5    H11   S    
C3    C4    A    
C26   S3    S    
C15   H4    S    
C7    C13   A    
C24   H9    S    
S3    O15   D    
C24   C25   A    
C23   O8    A    
C14   H14   S    
Cu1   O5    S    
S1    O11   S    
Cu2   O2    S    
C27   C28   A    
S2    O13   D    
S3    O17   S    
Cu2   O6    S    
C14   C15   S    
C1    O1    A    
Cu1   O3    S    
C3    C12   S    
Cu2   N1    S    
C10   H13   S    
C16   C21   S    
C15   H3    S    
C22   O5    A    
C6    C28   A    
C21   H8    S    
C14   H2    S    
C8    C9    A    
C20   H6    S    
