data_mof_unit_59350.cif
_audit_creation_date              2012-12-10T16:50:59-0500
_audit_creation_method            fapswitch 2.2
_symmetry_space_group_name_H-M    P1
_symmetry_Int_Tables_number       1
_space_group_crystal_system       triclinic
_cell_length_a                    7.990745
_cell_length_b                    8.537932
_cell_length_c                    10.385691
_cell_angle_alpha                 90.426431
_cell_angle_beta                  88.448813
_cell_angle_gamma                 92.731863
_cell_volume                      707.479873507

loop_
_atom_site_label
_atom_site_type_symbol
_atom_type_description
_atom_site_fract_x
_atom_site_fract_y
_atom_site_fract_z
_atom_type_partial_charge
C1    C     C_R   0.544300 0.793347 0.497040 0.976666
C2    C     C_R   0.941099 0.518256 0.078660 -0.206000
C3    C     C_R   0.066261 0.606037 0.012477 -0.190764
C4    C     C_R   0.932307 0.392678 0.989101 -0.192452
C5    C     C_R   0.212799 0.639837 0.081197 0.453334
C6    C     C_R   0.784804 0.357905 0.921392 0.367963
C7    C     C_R   0.350818 0.547628 0.056511 -0.081208
C8    C     C_R   0.648399 0.452995 0.943850 -0.058654
C9    C     C_R   0.350587 0.452382 0.946329 0.015673
C10   C     C_R   0.648641 0.549037 0.053566 0.027584
C11   C     C_R   0.498743 0.565140 0.122797 -0.092472
C12   C     C_R   0.455640 0.206655 0.502375 0.967158
C13   C     C_R   0.500652 0.435731 0.877428 -0.086761
C14   C     C_2   0.567258 0.957116 0.495060 -0.256450
C15   C     C_2   0.432591 0.042869 0.503439 -0.261311
C16   C     C_R   0.501202 0.477372 0.739793 0.903873
C17   C     C_R   0.498764 0.523136 0.260336 0.887686
C18   C     C_R   0.199986 0.401153 0.893799 -0.105806
C19   C     C_R   0.799020 0.599500 0.106444 -0.073681
C20   C     C_R   0.057123 0.481062 0.922527 -0.211506
H1    H     H_    0.974764 0.283612 0.028220 0.209531
H2    H     H_    0.990860 0.618806 0.594802 0.202299
H3    H     H_    0.126010 0.044048 0.168053 0.374834
H4    H     H_    0.889925 0.270813 0.667163 0.350891
H5    H     H_    0.025496 0.715664 0.973264 0.232206
H6    H     H_    0.197121 0.314602 0.816584 0.210589
H7    H     H_    0.802235 0.686330 0.183520 0.205562
H8    H     H_    0.015471 0.519711 0.829004 0.171547
H9    H     H_    0.981499 0.479500 0.172523 0.176593
H10   H     H_    0.695098 0.006563 0.487007 0.197957
H11   H     H_    0.304752 0.993440 0.511488 0.203223
H12   H     H_    0.009137 0.381115 0.405265 0.191306
N1    N     N_2   0.950330 0.457950 0.466250 -0.192417
N2    N     N_2   0.049670 0.542050 0.533750 -0.161492
O1    O     O_R   0.389250 0.738570 0.508280 -0.566112
O2    O     O_2   0.401007 0.869387 0.199100 -0.324389
O3    O     O_3   0.121429 0.954624 0.106656 -0.534701
O4    O     O_2   0.594262 0.140694 0.787547 -0.320960
O5    O     O_2   0.805357 0.046425 0.929340 -0.233988
O6    O     O_3   0.907689 0.173769 0.715264 -0.545735
O7    O     O_R   0.610750 0.261430 0.491720 -0.602606
O8    O     O_R   0.678390 0.711630 0.486650 -0.619138
O9    O     O_R   0.321610 0.288370 0.513350 -0.632767
O10   O     O_R   0.355430 0.513480 0.694040 -0.628713
O11   O     O_R   0.644570 0.486520 0.305960 -0.630333
O12   O     O_R   0.644570 0.486540 0.672410 -0.628725
O13   O     O_R   0.355430 0.513460 0.327590 -0.587448
O14   O     O_2   0.137458 0.776954 0.306364 -0.317283
S1    S     S_3+6 0.222822 0.812283 0.178521 0.007272
S2    S     S_3+6 0.766636 0.174831 0.838114 0.033467
Zn1   Zn    Zn3+2 0.306940 0.517990 0.514440 1.006058
Zn2   Zn    Zn3+2 0.693060 0.482010 0.485560 0.970599

loop_
_geom_bond_atom_site_label_1
_geom_bond_atom_site_label_2
_ccdc_geom_bond_type
C2    C4    A    
C1    O8    A    
C5    C7    A    
C15   H11   S    
C12   O7    A    
O4    S2    D    
O3    S1    S    
C16   O10   A    
O7    Zn2   S    
C18   H6    S    
C12   C15   S    
C10   C19   A    
C5    S1    S    
H12   N1    S    
C2    C3    A    
C3    C20   A    
C6    S2    S    
N1    Zn2   S    
C7    C11   A    
C4    H1    S    
O9    Zn1   S    
N2    Zn1   S    
C8    C13   A    
C14   H10   S    
C2    H9    S    
O6    S2    S    
O10   Zn1   S    
C4    C6    A    
O14   S1    D    
H4    O6    S    
C17   O11   A    
N1    N2    D    
C12   O9    A    
C18   C20   A    
O1    Zn1   S    
H2    N2    S    
C10   C11   A    
C4    C20   A    
O12   Zn2   S    
C9    C18   A    
C3    H5    S    
O5    S2    D    
C19   H7    S    
C1    O1    A    
C8    C10   A    
C13   C16   S    
C16   O12   A    
C7    C9    A    
C9    C13   A    
C14   C15   D    
C11   C17   S    
C6    C8    A    
C1    C14   S    
C20   H8    S    
O11   Zn2   S    
C2    C19   A    
H3    O3    S    
O13   Zn1   S    
O2    S1    D    
C17   O13   A    
O8    Zn2   S    
C3    C5    A    
