data_mof_unit_29531.cif
_audit_creation_date              2013-03-05T16:03:28-0500
_audit_creation_method            fapswitch 2.2
_symmetry_space_group_name_H-M    P1
_symmetry_Int_Tables_number       1
_space_group_crystal_system       triclinic
_cell_length_a                    6.957972
_cell_length_b                    18.260905
_cell_length_c                    20.128658
_cell_angle_alpha                 68.286685
_cell_angle_beta                  90.490678
_cell_angle_gamma                 90.679665
_cell_volume                      2375.86828037

loop_
_atom_site_label
_atom_site_type_symbol
_atom_site_description
_atom_site_fract_x
_atom_site_fract_y
_atom_site_fract_z
_atom_type_partial_charge
O1    O     O_R   0.488960 0.443750 0.941980 -0.582321
O2    O     O_R   0.823890 0.406510 0.087590 -0.591114
O3    O     O_R   0.999680 0.556250 0.058020 -0.590472
C1    C     C_R   0.655091 0.383526 0.114995 0.946068
O4    O     O_R   0.818360 0.434410 0.944340 -0.589424
O5    O     O_R   0.994110 0.584350 0.913750 -0.588487
C2    C     C_R   0.649056 0.420235 0.924128 0.968180
O6    O     O_R   0.494530 0.415650 0.086250 -0.590799
O7    O     O_3   0.662590 0.549160 0.990130 -0.274252
V1    V     V_3+5 0.935320 0.490880 0.001830 1.176951
O8    O     O_R   0.324180 0.593490 0.912410 -0.589754
C3    C     C_R   0.155318 0.616312 0.884928 0.943173
O9    O     O_R   0.329720 0.565590 0.055660 -0.596016
C4    C     C_R   0.161843 0.579856 0.076046 0.974213
V2    V     V_3+5 0.435990 0.509120 0.998170 1.173807
O10   O     O_3   0.158850 0.450840 0.009870 -0.268363
C5    C     C_3   0.967471 0.733838 0.286558 -0.158355
C6    C     C_3   0.127435 0.674803 0.288106 -0.153345
H1    H     H_    0.124371 0.610783 0.320909 0.130888
H2    H     H_    0.833246 0.718920 0.318442 0.117987
H3    H     H_    0.408308 0.720988 0.328954 0.114151
C7    C     C_1   0.154461 0.626262 0.121075 -0.292766
C8    C     C_1   0.110201 0.875629 0.377113 -0.298340
C9    C     C_3   0.977395 0.769583 0.203731 -0.151217
C10   C     C_3   0.137375 0.711119 0.205916 0.221975
C11   C     C_3   0.132228 0.829567 0.208001 -0.149949
C12   C     C_3   0.122488 0.793144 0.290214 0.221079
C13   C     C_3   0.292237 0.770487 0.209536 -0.151307
C14   C     C_3   0.282307 0.734728 0.292326 -0.162789
C15   C     C_1   0.146932 0.664673 0.159107 -0.031723
C16   C     C_1   0.115496 0.838500 0.337962 -0.048047
H4    H     H_    0.426322 0.785061 0.177598 0.117880
H5    H     H_    0.133712 0.893635 0.175197 0.131464
H6    H     H_    0.851400 0.783778 0.167075 0.120588
H7    H     H_    0.129050 0.522895 0.685945 0.132156
C17   C     C_R   0.150736 0.776855 0.879558 -0.173120
C18   C     C_R   0.145764 0.853457 0.878769 -0.082770
C19   C     C_R   0.131993 0.917180 0.814233 0.000866
C20   C     C_R   0.123866 0.904835 0.749953 -0.175491
C21   C     C_R   0.128510 0.827744 0.749047 0.105025
C22   C     C_R   0.141936 0.762457 0.815190 0.120316
C23   C     C_R   0.118856 0.815098 0.683707 -0.299310
C24   C     C_R   0.121368 0.737165 0.684502 0.116953
C25   C     C_R   0.134483 0.671868 0.750662 0.106971
C26   C     C_R   0.145222 0.684560 0.815972 -0.300667
C27   C     C_R   0.111389 0.722715 0.620171 -0.149172
C28   C     C_R   0.113949 0.646034 0.621034 -0.110473
C29   C     C_R   0.126780 0.582296 0.685598 -0.108793
C30   C     C_R   0.137030 0.594716 0.749822 -0.162378
H8    H     H_    0.161081 0.729185 0.931092 0.097193
H9    H     H_    0.152268 0.863398 0.928535 0.137700
H10   H     H_    0.127387 0.976535 0.813953 0.165884
H11   H     H_    0.113079 0.956297 0.701138 0.118130
H12   H     H_    0.101436 0.770400 0.568631 0.090341
H13   H     H_    0.106074 0.636027 0.571313 0.116958
H14   H     H_    0.147239 0.543252 0.798661 0.121471
H15   H     H_    0.548638 0.360284 0.427928 0.136351
C31   C     C_R   0.679839 0.095321 0.251855 -0.315061
C32   C     C_R   0.711706 0.082256 0.188535 0.200799
C33   C     C_R   0.721040 0.146698 0.123155 0.186651
C34   C     C_R   0.695912 0.223177 0.122011 -0.296283
C35   C     C_R   0.665669 0.237379 0.185559 0.103959
C36   C     C_R   0.655909 0.172183 0.251662 0.104151
C37   C     C_R   0.644666 0.315201 0.183959 -0.265755
C38   C     C_R   0.614963 0.327731 0.248615 0.102562
C39   C     C_R   0.602903 0.262419 0.314555 0.116973
C40   C     C_R   0.621508 0.184612 0.316074 -0.274587
C41   C     C_R   0.601131 0.404860 0.248995 -0.291524
C42   C     C_R   0.576929 0.418285 0.312662 0.264391
C43   C     C_R   0.565538 0.353088 0.377366 -0.144663
C44   C     C_R   0.577097 0.276649 0.378232 -0.211809
H16   H     H_    0.672277 0.044253 0.301134 0.132850
H17   H     H_    0.702908 0.271408 0.070707 0.115755
H18   H     H_    0.612453 0.455833 0.199767 0.114357
H19   H     H_    0.568420 0.228832 0.429743 0.107734
O11   O     O_R   0.770540 0.084530 0.414050 -0.591229
O12   O     O_R   0.445710 0.065660 0.555720 -0.594096
O13   O     O_R   0.270420 0.915650 0.586190 -0.585265
C45   C     C_R   0.614861 0.079794 0.576176 0.981251
O14   O     O_R   0.441140 0.093540 0.412470 -0.591501
O15   O     O_R   0.265820 0.943740 0.441930 -0.589484
C46   C     C_R   0.610093 0.116364 0.385047 0.942915
O16   O     O_R   0.775150 0.056440 0.558310 -0.591217
O17   O     O_3   0.602370 0.950960 0.510050 -0.272298
V3    V     V_3+5 0.329450 0.009140 0.498150 1.170210
O18   O     O_R   0.935790 0.934280 0.444060 -0.597730
C47   C     C_R   0.103654 0.920584 0.423376 0.974690
O19   O     O_R   0.940370 0.906390 0.587310 -0.588799
C48   C     C_R   0.109150 0.883427 0.614774 0.945104
V4    V     V_3+5 0.828810 0.990710 0.501460 1.167695
O20   O     O_3   0.105780 0.049100 0.489960 -0.274028
C49   C     C_3   0.681798 0.322293 0.714105 0.208429
C50   C     C_3   0.503900 0.279983 0.699220 0.037520
C51   C     C_1   0.623688 0.125158 0.621700 -0.292480
C52   C     C_1   0.639974 0.374180 0.879284 -0.285475
C53   C     C_3   0.809230 0.250063 0.723641 -0.179047
C54   C     C_3   0.629004 0.207319 0.708416 -0.102041
C55   C     C_3   0.760170 0.216554 0.805320 -0.196074
C56   C     C_3   0.634134 0.289738 0.794668 -0.095113
C57   C     C_3   0.582308 0.174517 0.788967 0.266756
C58   C     C_3   0.457611 0.246510 0.779601 0.218024
C59   C     C_1   0.627113 0.162470 0.660507 0.131094
C60   C     C_1   0.636562 0.335960 0.841307 0.154557
H20   H     H_    0.855507 0.188555 0.851848 0.222567
H21   H     H_    0.953802 0.251239 0.700507 0.159882
N1    N     N_2   0.735780 0.003957 0.191042 -0.111686
H22   H     H_    0.796129 0.966270 0.238108 0.166820
C61   C     C_3   0.566478 0.970048 0.171081 -0.876990
H23   H     H_    0.601299 0.910897 0.171046 0.241092
H24   H     H_    0.516903 0.007419 0.116576 0.275765
H25   H     H_    0.449103 0.963629 0.210033 0.237901
N2    N     N_2   0.754394 0.134921 0.058120 -0.106084
H26   H     H_    0.694657 0.177527 0.013653 0.181577
C62   C     C_3   0.952705 0.119983 0.046623 -0.777643
H27   H     H_    0.963861 0.108285 0.996442 0.273718
H28   H     H_    0.006864 0.067587 0.091351 0.239488
H29   H     H_    0.043777 0.172154 0.041702 0.240287
N3    N     N_2   0.572702 0.497789 0.309802 -0.108822
H30   H     H_    0.540993 0.540142 0.260462 0.169976
C63   C     C_3   0.498509 0.513806 0.370000 -0.961836
H31   H     H_    0.497939 0.578399 0.356998 0.249048
H32   H     H_    0.592549 0.487388 0.417560 0.258008
H33   H     H_    0.349184 0.490729 0.382088 0.253139
N4    N     N_2   0.368896 0.313300 0.640925 -0.102025
H34   H     H_    0.278262 0.272052 0.633242 0.168956
C64   C     C_3   0.272077 0.384068 0.637997 -0.899602
H35   H     H_    0.214889 0.414941 0.583203 0.239715
H36   H     H_    0.371157 0.425149 0.650639 0.274251
H37   H     H_    0.151434 0.368918 0.676251 0.275948
N5    N     N_2   0.739408 0.403153 0.674497 -0.103067
H38   H     H_    0.848101 0.422072 0.699556 0.182160
C65   C     C_3   0.773382 0.422524 0.599034 -0.939136
H39   H     H_    0.832766 0.483349 0.574987 0.247021
H40   H     H_    0.637309 0.420020 0.570921 0.278887
H41   H     H_    0.876655 0.380899 0.590725 0.250623
N6    N     N_R   0.271054 0.243153 0.812850 0.236850
O21   O     O_R   0.188894 0.307816 0.810048 -0.441256
O22   O     O_R   0.202592 0.175732 0.855312 -0.401187
N7    N     N_R   0.532079 0.092897 0.831643 0.262865
O23   O     O_R   0.520459 0.070226 0.900819 -0.366279
O24   O     O_R   0.511870 0.041254 0.801649 -0.417504

loop_
_geom_bond_atom_site_label_1
_geom_bond_atom_site_label_2
_geom_bond_distance
_ccdc_geom_bond_type
C25   C30   1.415522 A    
C56   C60   1.476403 S    
C53   H21   1.108730 S    
C64   H35   1.109207 S    
C12   C14   1.539503 S    
C49   N5    1.448089 S    
C50   N4    1.447717 S    
C1    O6    1.296271 A    
N2    C62   1.446736 S    
C62   H27   1.110545 S    
V3    O20   1.707403 S    
C63   H31   1.109720 S    
C10   C13   1.539830 S    
C11   C12   1.540086 S    
C18   C19   1.390217 A    
N4    C64   1.445994 S    
C13   C14   1.550461 S    
C9    C11   1.551748 S    
O5    C3    1.296322 A    
C19   C20   1.393711 A    
C18   H9    1.082619 S    
C19   H10   1.082668 S    
N1    H22   1.032037 S    
C41   H18   1.082425 S    
V2    O10   2.163375 S    
C42   N3    1.432170 S    
C49   C53   1.549271 S    
C5    H2    1.110484 S    
C61   H23   1.110057 S    
C6    H1    1.109791 S    
N3    H30   1.032064 S    
C49   C50   1.536591 S    
C35   C37   1.418771 A    
O8    V2    1.999088 S    
C28   C29   1.390270 A    
C52   C60   1.210800 T    
C41   C42   1.402819 A    
C45   O16   1.298730 A    
C53   C55   1.566617 S    
C29   C30   1.393815 A    
C43   C44   1.392761 A    
O1    V2    1.963820 S    
H15   C43   1.080879 S    
O7    V1    2.154984 S    
C54   C59   1.478099 S    
C63   H33   1.111026 S    
C21   C23   1.417909 A    
C39   C40   1.417252 A    
O12   V3    1.977766 S    
C32   C33   1.405221 A    
C8    C47   1.452703 S    
O9    C4    1.301992 A    
C17   C22   1.414885 A    
C42   C43   1.404339 A    
C6    C10   1.539670 S    
O17   V4    1.709928 S    
H7    C29   1.082444 S    
N2    H26   1.032111 S    
C63   H32   1.110118 S    
O12   C45   1.297882 A    
O13   C48   1.296644 A    
C36   C40   1.419202 A    
C32   N1    1.423765 S    
C12   C16   1.484198 S    
C5    C12   1.539983 S    
C13   H4    1.110100 S    
O17   V3    2.154987 S    
C45   C51   1.445391 S    
N6    O22   1.299108 A    
O18   V4    1.965888 S    
O11   C46   1.295444 A    
C20   C21   1.415335 A    
O4    C2    1.297189 A    
O18   C47   1.300925 A    
C65   H39   1.110606 S    
C64   H37   1.105455 S    
C34   H17   1.082310 S    
C31   C32   1.400590 A    
H3    C14   1.110148 S    
C9    H6    1.110375 S    
C33   C34   1.401232 A    
C8    C16   1.215956 T    
N5    C65   1.447367 S    
C24   C25   1.424481 A    
O14   V3    1.995352 S    
C33   N2    1.424239 S    
C57   N7    1.458401 S    
C11   H5    1.110444 S    
C39   C44   1.412115 A    
N7    O23   1.300521 A    
C38   C41   1.415712 A    
C53   C54   1.556567 S    
C27   H12   1.082172 S    
C35   C36   1.421233 A    
C5    C6    1.550796 S    
C6    C14   1.550831 S    
C9    C10   1.540590 S    
O15   C47   1.299912 A    
O3    C4    1.299140 A    
O13   V3    1.995237 S    
O14   C46   1.299856 A    
C21   C22   1.424312 A    
C56   C58   1.539940 S    
O19   V4    1.999037 S    
C55   C56   1.553563 S    
O6    V2    1.996883 S    
C55   C57   1.544865 S    
O9    V2    1.965936 S    
C23   C24   1.417592 A    
C50   C58   1.538708 S    
O2    V1    1.995344 S    
C50   C54   1.547771 S    
C54   C57   1.542414 S    
C17   H8    1.082149 S    
C25   C26   1.418031 A    
C28   H13   1.082664 S    
C58   N6    1.455770 S    
C10   C15   1.485003 S    
O16   V4    1.980857 S    
C27   C28   1.394255 A    
C17   C18   1.393852 A    
C64   H36   1.108502 S    
C7    C15   1.216402 T    
O1    C2    1.298750 A    
C31   C36   1.413945 A    
C3    C26   1.484977 S    
O5    V1    1.995168 S    
C62   H28   1.110573 S    
O8    C3    1.300022 A    
C30   H14   1.082341 S    
C2    C52   1.444150 S    
C1    C37   1.485590 S    
C11   C13   1.551653 S    
C61   H25   1.111820 S    
C23   C48   1.485278 S    
C37   C38   1.419453 A    
C4    C7    1.453421 S    
C5    C9    1.551158 S    
O7    V2    1.713526 S    
O4    V1    1.977790 S    
O3    V1    1.970369 S    
V1    O10   1.707313 S    
C44   H19   1.082159 S    
N7    O24   1.300112 A    
C31   H16   1.082406 S    
V4    O20   2.163480 S    
C20   H11   1.082314 S    
N1    C61   1.446101 S    
C65   H41   1.109578 S    
C55   H20   1.105294 S    
O2    C1    1.299223 A    
C57   C58   1.535431 S    
C61   H24   1.110604 S    
N5    H38   1.030514 S    
C34   C35   1.413893 A    
C24   C27   1.414946 A    
N3    C63   1.448033 S    
C62   H29   1.111716 S    
O19   C48   1.299853 A    
C51   C59   1.211639 T    
C40   C46   1.485363 S    
C65   H40   1.107996 S    
C38   C39   1.421061 A    
C22   C26   1.417181 A    
N6    O21   1.300175 A    
O15   V3    1.970210 S    
C49   C56   1.544116 S    
O11   V4    1.992255 S    
N4    H34   1.030641 S    
