data_mof_unit_22047.cif
_audit_creation_date              2012-12-10T16:57:42-0500
_audit_creation_method            fapswitch 2.2
_symmetry_space_group_name_H-M    P1
_symmetry_Int_Tables_number       1
_space_group_crystal_system       triclinic
_cell_length_a                    7.7522
_cell_length_b                    8.575423
_cell_length_c                    18.878986
_cell_angle_alpha                 90.907908
_cell_angle_beta                  85.319951
_cell_angle_gamma                 93.673519
_cell_volume                      1248.21895195

loop_
_atom_site_label
_atom_site_type_symbol
_atom_type_description
_atom_site_fract_x
_atom_site_fract_y
_atom_site_fract_z
_atom_type_partial_charge
C1    C     C_R   0.545903 0.794853 0.498226 1.014095
C2    C     C_R   0.633120 0.466040 0.169448 -0.219199
C3    C     C_R   0.474358 0.383109 0.853318 0.003082
C4    C     C_R   0.486452 0.382263 0.146474 -0.003722
C5    C     C_R   0.606476 0.330962 0.805820 -0.105157
C6    C     C_R   0.341823 0.348778 0.194078 -0.097877
C7    C     C_R   0.617748 0.376403 0.735408 -0.193083
C8    C     C_R   0.345776 0.394178 0.264730 -0.185073
C9    C     C_R   0.498650 0.476542 0.711630 -0.176290
C10   C     C_R   0.493019 0.476323 0.288488 -0.181353
C11   C     C_R   0.478016 0.347622 0.071098 0.326650
C12   C     C_R   0.454101 0.205139 0.501911 0.943944
C13   C     C_R   0.471422 0.348090 0.928601 0.328557
C14   C     C_2   0.570133 0.958264 0.497159 -0.331629
C15   C     C_2   0.429883 0.041714 0.503201 -0.353560
C16   C     C_R   0.501108 0.500532 0.635182 0.941156
C17   C     C_R   0.499038 0.500272 0.364879 0.942323
C18   C     C_R   0.369645 0.535996 0.760349 0.452432
C19   C     C_R   0.636869 0.517024 0.239803 0.452450
C20   C     C_R   0.356748 0.485201 0.830470 -0.217640
H1    H     H_    0.258642 0.530184 0.868115 0.201028
H2    H     H_    0.986174 0.618398 0.552760 0.216932
H3    H     H_    0.241216 0.864829 0.660793 0.376912
H4    H     H_    0.862358 0.822393 0.340082 0.380706
H5    H     H_    0.742454 0.496889 0.131775 0.200559
H6    H     H_    0.700058 0.254034 0.823043 0.175140
H7    H     H_    0.226584 0.286138 0.176778 0.177129
H8    H     H_    0.717245 0.329324 0.699034 0.190915
H9    H     H_    0.235098 0.360781 0.301340 0.193658
H10   H     H_    0.702553 0.009358 0.491290 0.174178
H11   H     H_    0.297470 0.990596 0.509099 0.176488
H12   H     H_    0.013864 0.381792 0.447149 0.200504
N1    N     N_R   0.622490 0.332780 0.958433 -0.146828
N2    N     N_R   0.325623 0.354821 0.041267 -0.143384
N3    N     N_R   0.625821 0.333097 0.028597 -0.148966
N4    N     N_R   0.322471 0.355594 0.971095 -0.147554
N5    N     N_2   0.950330 0.457950 0.481240 -0.156993
N6    N     N_2   0.049670 0.542050 0.518760 -0.155433
O1    O     O_R   0.389250 0.738570 0.504600 -0.608868
O2    O     O_2   0.164110 0.767244 0.802692 -0.275747
O3    O     O_3   0.333208 0.805332 0.679130 -0.567325
O4    O     O_2   0.942488 0.537535 0.296521 -0.321045
O5    O     O_2   0.910156 0.713819 0.198408 -0.276749
O6    O     O_3   0.754290 0.776132 0.321632 -0.564322
O7    O     O_R   0.610750 0.261430 0.495400 -0.621018
O8    O     O_R   0.678400 0.711620 0.492580 -0.623263
O9    O     O_R   0.321600 0.288380 0.507420 -0.639562
O10   O     O_R   0.355380 0.513500 0.607880 -0.551337
O11   O     O_R   0.644620 0.486500 0.392120 -0.553442
O12   O     O_R   0.644530 0.486550 0.595850 -0.632084
O13   O     O_R   0.355470 0.513450 0.404150 -0.626963
O14   O     O_2   0.075704 0.598164 0.704657 -0.312712
S1    S     S_3+6 0.228288 0.678667 0.737452 0.030409
S2    S     S_3+6 0.818876 0.637018 0.263311 0.031991
Zn1   Zn    Zn3+2 0.306930 0.517990 0.508030 1.004821
Zn2   Zn    Zn3+2 0.693070 0.482010 0.491970 1.002120

loop_
_geom_bond_atom_site_label_1
_geom_bond_atom_site_label_2
_ccdc_geom_bond_type
O10   Zn1   S    
C2    C4    A    
C13   N1    A    
N5    N6    D    
O11   Zn2   S    
C5    C7    A    
O5    S2    D    
C18   C20   A    
C6    H7    S    
C3    C13   S    
C12   C15   S    
C10   C19   A    
O1    Zn1   S    
C17   O13   A    
C11   N3    A    
C3    C20   A    
H12   N5    S    
C20   H1    S    
C4    C11   S    
C15   H11   S    
O3    S1    S    
C14   H10   S    
C12   O9    A    
C8    H9    S    
C19   S2    S    
C8    C10   A    
N1    N3    A    
C9    C16   S    
C16   O12   A    
C7    H8    S    
C2    H5    S    
O13   Zn1   S    
C16   O10   A    
H4    O6    S    
O12   Zn2   S    
C1    O8    A    
C4    C6    A    
C1    O1    A    
C10   C17   S    
O8    Zn2   S    
C5    H6    S    
H2    N6    S    
O6    S2    S    
C9    C18   A    
O14   S1    D    
N2    N4    A    
C13   N4    A    
O9    Zn1   S    
O2    S1    D    
C17   O11   A    
C7    C9    A    
C14   C15   D    
C6    C8    A    
C1    C14   S    
C18   S1    S    
C2    C19   A    
N5    Zn2   S    
C11   N2    A    
O4    S2    D    
N6    Zn1   S    
O7    Zn2   S    
C12   O7    A    
C3    C5    A    
H3    O3    S    
