data_mof_unit_13245.cif
_audit_creation_date              2013-03-05T16:41:16-0500
_audit_creation_method            fapswitch 2.2
_symmetry_space_group_name_H-M    P1
_symmetry_Int_Tables_number       1
_space_group_crystal_system       triclinic
_cell_length_a                    10.63909
_cell_length_b                    10.654853
_cell_length_c                    9.896263
_cell_angle_alpha                 90.44756
_cell_angle_beta                  88.593474
_cell_angle_gamma                 89.870313
_cell_volume                      1121.44438622

loop_
_atom_site_label
_atom_site_type_symbol
_atom_site_description
_atom_site_fract_x
_atom_site_fract_y
_atom_site_fract_z
_atom_type_partial_charge
O1    O     O_R   0.500020 0.316790 0.614690 -0.617090
O2    O     O_R   0.500000 0.316760 0.385350 -0.617490
C1    C     C_R   0.511186 0.260118 0.498521 0.875608
O3    O     O_R   0.319080 0.500020 0.614640 -0.598866
O4    O     O_R   0.319070 0.499980 0.385300 -0.621042
C2    C     C_R   0.262473 0.505759 0.502308 0.948896
Zn1   Zn    Zn3+2 0.500010 0.500020 0.653130 0.965529
Zn2   Zn    Zn3+2 0.499990 0.499980 0.346870 0.928756
O5    O     O_R   0.500000 0.683240 0.614650 -0.598255
O6    O     O_R   0.499980 0.683210 0.385310 -0.625983
O7    O     O_R   0.680930 0.500020 0.614700 -0.609120
O8    O     O_R   0.680920 0.499980 0.385360 -0.636200
C3    C     C_R   0.506297 0.740032 0.500349 0.898511
C4    C     C_R   0.737304 0.503389 0.498094 0.893564
C5    C     C_2   0.933948 0.597329 0.425067 0.220984
C6    C     C_2   0.869822 0.506573 0.491005 -0.330833
H1    H     H_    0.914995 0.425367 0.534322 0.110517
C7    C     C_2   0.069894 0.583922 0.414228 -0.182175
C8    C     C_2   0.130962 0.527211 0.512327 -0.334228
H2    H     H_    0.119623 0.622436 0.327342 0.162863
H3    H     H_    0.085165 0.504747 0.608465 0.187326
C9    C     C_R   0.540718 0.065309 0.618387 0.065809
C10   C     C_R   0.543190 0.128835 0.495805 -0.141578
C11   C     C_R   0.577309 0.060868 0.375435 0.160498
C12   C     C_R   0.570091 0.930139 0.379776 -0.270343
H4    H     H_    0.585289 0.875733 0.287775 0.170814
C13   C     C_R   0.535611 0.870421 0.500663 -0.177448
C14   C     C_R   0.539125 0.937316 0.621355 0.137112
C15   C     C_3   0.453944 0.935378 0.744314 -0.039742
C16   C     C_3   0.455121 0.077914 0.739601 -0.502827
H5    H     H_    0.359717 0.896143 0.722701 0.186544
H6    H     H_    0.362446 0.118498 0.713800 0.188005
H7    H     H_    0.502200 0.124600 0.825203 0.217587
C17   C     C_R   0.405796 0.556669 0.074192 0.124838
N1    N     N_R   0.499170 0.499140 0.142800 -0.093083
C18   C     C_R   0.601425 0.456956 0.068855 -0.134053
H8    H     H_    0.682251 0.421449 0.120317 0.160140
C19   C     C_R   0.601858 0.457852 0.925042 -0.129887
H9    H     H_    0.682909 0.422095 0.868935 0.163610
N2    N     N_R   0.499170 0.499180 0.857150 -0.121913
C20   C     C_R   0.402201 0.549077 0.932867 0.142991
C21   C     C_3   0.264733 0.513105 0.938850 0.375735
C22   C     C_3   0.267873 0.536204 0.091319 -0.519095
H10   H     H_    0.220611 0.625021 0.123243 0.186645
H11   H     H_    0.241838 0.455709 0.155829 0.219376
C23   C     C_3   0.874205 0.711369 0.360845 -0.392359
C24   C     C_3   0.910310 0.831447 0.435369 -0.841635
H12   H     H_    0.878518 0.826756 0.543053 0.270574
H13   H     H_    0.013716 0.845687 0.429824 0.264366
H14   H     H_    0.864129 0.913032 0.388208 0.247121
H15   H     H_    0.906570 0.717260 0.253420 0.211801
H16   H     H_    0.770279 0.707212 0.361147 0.219375
N3    N     N_R   0.183665 0.604734 0.873024 0.195905
O9    O     O_R   0.062561 0.601403 0.894550 -0.429110
O10   O     O_R   0.231094 0.692456 0.796672 -0.431052
C25   C     C_3   0.231757 0.375455 0.898618 -0.382040
C26   C     C_3   0.301813 0.271516 0.972890 -0.929778
H17   H     H_    0.404858 0.283446 0.962676 0.268675
H18   H     H_    0.274241 0.267450 0.081349 0.259451
H19   H     H_    0.276280 0.179280 0.928932 0.256467
H20   H     H_    0.129446 0.360796 0.917346 0.221107
H21   H     H_    0.249295 0.361080 0.789069 0.224408
C27   C     C_3   0.619212 0.119721 0.242404 -0.381798
C28   C     C_3   0.746349 0.184304 0.255179 -0.848743
H22   H     H_    0.740387 0.263268 0.328529 0.267900
H23   H     H_    0.817887 0.116353 0.289320 0.250123
H24   H     H_    0.777755 0.220796 0.155227 0.236334
H25   H     H_    0.630885 0.046640 0.162290 0.193992
H26   H     H_    0.547528 0.184558 0.203093 0.229774
C29   C     C_3   0.512045 0.878565 0.871959 -0.321894
C30   C     C_3   0.652422 0.904499 0.889591 -0.840396
H27   H     H_    0.708801 0.862234 0.804894 0.271827
H28   H     H_    0.671362 0.006699 0.895175 0.248892
H29   H     H_    0.683208 0.861322 0.985092 0.240213
H30   H     H_    0.458886 0.913861 0.962628 0.197771
H31   H     H_    0.499248 0.775563 0.867989 0.231721

loop_
_geom_bond_atom_site_label_1
_geom_bond_atom_site_label_2
_geom_bond_distance
_ccdc_geom_bond_type
O4    Zn2   1.952856 S    
Zn1   O7    1.952857 S    
C10   C11   1.428034 A    
N2    C20   1.364479 A    
C29   C30   1.533366 S    
C4    C6    1.410394 S    
C30   H29   1.110610 S    
C20   C21   1.512632 S    
C27   H25   1.111489 S    
C5    C7    1.454305 S    
C1    C10   1.438792 S    
C24   H12   1.111653 S    
C5    C23   1.520776 S    
C15   C29   1.546869 S    
Zn2   N1    2.019713 S    
Zn2   O8    1.971406 S    
C28   H22   1.107600 S    
C18   C19   1.423210 A    
O2    C1    1.284324 A    
C27   H26   1.107529 S    
C30   H27   1.110557 S    
C15   H5    1.111986 S    
C9    C14   1.364422 A    
N3    O9    1.301369 A    
C11   C12   1.396127 A    
C19   N2    1.370167 A    
C2    C8    1.418141 S    
C22   H11   1.104909 S    
C26   H17   1.106178 S    
C15   C16   1.519847 S    
C17   C20   1.401759 A    
O3    Zn1   1.971406 S    
O1    Zn1   1.986086 S    
O2    Zn2   1.991896 S    
O3    C2    1.279059 A    
C14   C15   1.499579 S    
C8    H3    1.086825 S    
O8    C4    1.279909 A    
C7    C8    1.329692 D    
C24   H14   1.109293 S    
C7    H2    1.082507 S    
N3    O10   1.301390 A    
C22   H10   1.110667 S    
C29   H31   1.106698 S    
O4    C2    1.292937 A    
O7    C4    1.288177 A    
C25   H21   1.104961 S    
C11   C27   1.520036 S    
C26   H18   1.106939 S    
C12   C13   1.400730 A    
C21   C22   1.528106 S    
C21   N3    1.468023 S    
C27   C28   1.526538 S    
C16   H6    1.111976 S    
C28   H24   1.109779 S    
C23   H16   1.106599 S    
C13   C14   1.387456 A    
C19   H9    1.081083 S    
C25   C26   1.535614 S    
Zn2   O6    1.986086 S    
C17   N1    1.363985 A    
C23   C24   1.526355 S    
C30   H28   1.109056 S    
C29   H30   1.111425 S    
Zn1   O5    1.991894 S    
O5    C3    1.287366 A    
C25   H20   1.111258 S    
C18   H8    1.079348 S    
C26   H19   1.108683 S    
C3    C13   1.424541 S    
C9    C16   1.493192 S    
C16   H7    1.109659 S    
C21   C25   1.559709 S    
C12   H4    1.084083 S    
C9    C10   1.393481 A    
Zn1   N2    2.018926 S    
C23   H15   1.111688 S    
O6    C3    1.288529 A    
C24   H13   1.110974 S    
C17   C22   1.489718 S    
C5    C6    1.348083 D    
C6    H1    1.085076 S    
O1    C1    1.297123 A    
N1    C18   1.369170 A    
C28   H23   1.109766 S    
