data_mof_unit_17222.cif
_audit_creation_date              2012-12-11T15:32:09-0500
_audit_creation_method            fapswitch 2.2
_symmetry_space_group_name_H-M    P1
_symmetry_Int_Tables_number       1
_space_group_crystal_system       triclinic
_cell_length_a                    13.599537
_cell_length_b                    13.58736
_cell_length_c                    27.650813
_cell_angle_alpha                 90.320934
_cell_angle_beta                  90.122863
_cell_angle_gamma                 120.019818
_cell_volume                      4423.81623493

loop_
_atom_site_label
_atom_site_type_symbol
_atom_type_description
_atom_site_fract_x
_atom_site_fract_y
_atom_site_fract_z
_atom_type_partial_charge
C1    C     C_R   0.619477 0.898454 0.431263 0.545759
C2    C     C_R   0.272739 0.911629 0.257669 -0.103679
C3    C     C_R   0.253864 0.901749 0.207646 -0.109498
C4    C     C_R   0.599707 0.218492 0.431306 0.542170
C5    C     C_R   0.054919 0.765899 0.221176 -0.099794
C6    C     C_R   0.073799 0.775651 0.271162 -0.104346
C7    C     C_R   0.182896 0.848201 0.289532 0.038215
C8    C     C_R   0.144948 0.828285 0.189285 0.037156
C9    C     C_1   0.123974 0.813802 0.137937 -0.057730
C10   C     C_1   0.205158 0.854662 0.340746 -0.056404
C11   C     C_1   0.096914 0.794577 0.095879 -0.011747
C12   C     C_R   0.633193 0.233658 0.208642 -0.118733
C13   C     C_1   0.634508 0.866702 0.383481 -0.010152
C14   C     C_R   0.626062 0.728612 0.270803 -0.092533
C15   C     C_R   0.628651 0.714434 0.220556 0.273574
C16   C     C_R   0.279559 0.878884 0.430550 0.544622
C17   C     C_R   0.678501 0.911358 0.209202 -0.159905
C18   C     C_R   0.673680 0.924221 0.259161 -0.125265
C19   C     C_R   0.648649 0.833373 0.290104 -0.005854
C20   C     C_R   0.657101 0.807110 0.189709 0.038967
C21   C     C_1   0.672672 0.797663 0.138682 -0.026462
C22   C     C_1   0.642463 0.848074 0.341407 -0.054954
C23   C     C_R   0.622355 0.216521 0.258610 -0.112498
C24   C     C_1   0.691673 0.787466 0.096935 -0.005753
C25   C     C_R   0.637886 0.274043 0.616270 0.000624
C26   C     C_R   0.723712 0.263911 0.639960 -0.123895
C27   C     C_R   0.734914 0.273451 0.690022 0.064163
C28   C     C_R   0.619003 0.901895 0.569889 0.540944
C29   C     C_R   0.662491 0.301400 0.716012 0.006489
C30   C     C_R   0.584227 0.322084 0.691602 -0.141736
C31   C     C_R   0.571788 0.308271 0.641991 -0.101076
C32   C     C_R   0.780012 0.398950 0.786726 -0.059210
C33   C     C_R   0.791467 0.425168 0.835230 -0.084994
C34   C     C_R   0.666644 0.309823 0.290527 0.035710
C35   C     C_R   0.588316 0.301008 0.846390 -0.140546
C36   C     C_R   0.577755 0.270366 0.797775 -0.111591
C37   C     C_R   0.673689 0.320986 0.767874 0.064178
C38   C     C_R   0.695315 0.379358 0.864984 0.020861
C39   C     C_R   0.251028 0.875761 0.621057 -0.001971
C40   C     C_R   0.601468 0.222480 0.568592 0.551675
C41   C     C_R   0.277698 0.974748 0.648081 0.257104
C42   C     C_R   0.273883 0.969466 0.698453 -0.093383
C43   C     C_R   0.228069 0.865466 0.722126 -0.007972
C44   C     C_R   0.192364 0.763960 0.695049 0.051475
C45   C     C_R   0.688793 0.344289 0.190432 0.026436
C46   C     C_R   0.208762 0.771546 0.644923 -0.180512
C47   C     C_R   0.248657 0.823092 0.807986 -0.129899
C48   C     C_R   0.200964 0.793488 0.853984 -0.154624
C49   C     C_R   0.051264 0.830998 0.828574 0.052041
C50   C     C_R   0.112426 0.882029 0.786575 0.259796
C51   C     C_R   0.201589 0.863379 0.773620 0.032808
C52   C     C_R   0.286049 0.884437 0.570160 0.560790
C53   C     C_R   0.100779 0.795041 0.864137 -0.033217
C54   C     C_R   0.630787 0.868261 0.619009 0.014114
C55   C     C_R   0.534428 0.781045 0.641980 -0.121945
C56   C     C_1   0.694620 0.363986 0.139211 -0.064304
C57   C     C_R   0.534410 0.765841 0.691618 -0.126700
C58   C     C_R   0.631553 0.835689 0.719247 0.034062
C59   C     C_R   0.729910 0.918495 0.695859 -0.080608
C60   C     C_R   0.729465 0.935227 0.646235 -0.117244
C61   C     C_R   0.695534 0.913926 0.802717 -0.085934
C62   C     C_R   0.714487 0.897659 0.850744 -0.083259
C63   C     C_R   0.592515 0.694415 0.840040 -0.141715
C64   C     C_1   0.631188 0.264440 0.383670 -0.012203
C65   C     C_R   0.575807 0.710558 0.791768 -0.111689
C66   C     C_R   0.631931 0.820155 0.772044 0.047628
C67   C     C_1   0.650484 0.290184 0.341704 -0.058828
C68   C     C_R   0.668654 0.787204 0.868774 0.030580
C69   C     C_R   0.049334 0.761192 0.048206 0.539736
C70   C     C_R   0.714210 0.435611 0.049651 0.543269
C71   C     C_R   0.723472 0.770748 0.049496 0.540214
C72   C     C_R   0.044536 0.756078 0.910776 0.569285
C73   C     C_R   0.708546 0.429427 0.912503 0.552409
C74   C     C_R   0.715108 0.766739 0.913059 0.552062
C75   C     C_R   0.723126 0.420456 0.272319 -0.103945
C76   C     C_R   0.734248 0.437576 0.222361 -0.092867
C77   C     C_3   0.492872 0.540723 0.194102 0.002962
C78   C     C_1   0.701419 0.389840 0.097246 -0.017417
C79   C     C_3   0.471251 0.426559 0.174082 -0.250147
C80   C     C_3   0.345585 0.346975 0.163103 -0.479666
C81   C     C_2   0.817839 0.247067 0.713478 0.545860
C82   C     C_3   0.239227 0.119144 0.636228 0.005060
C83   C     C_3   0.241566 0.195464 0.595356 -0.255151
C84   C     C_3   0.164642 0.244560 0.606525 -0.472981
C85   C     C_3   0.116141 0.048095 0.773544 0.019460
C86   C     C_3   0.061443 0.105286 0.745665 -0.239124
C87   C     C_3   0.123797 0.233342 0.754977 -0.489953
C88   C     C_2   0.927995 0.791984 0.829315 0.619233
C89   C     C_1   0.232434 0.862989 0.382761 -0.011081
C90   C     C_2   0.135631 0.648768 0.717004 0.569792
Cr1   Cr    Cr6+3 0.417720 0.831920 0.499820 1.026304
Cr2   Cr    Cr6+3 0.668190 0.085770 0.500360 1.028401
Cr3   Cr    Cr6+3 0.414060 0.082260 0.499840 1.042769
Cr4   Cr    Cr6+3 0.908000 0.821090 0.979770 1.036965
Cr5   Cr    Cr6+3 0.912420 0.571130 0.979880 1.038642
Cr6   Cr    Cr6+3 0.657970 0.566940 0.980940 1.023459
H1    H     H_    0.757218 0.493140 0.296592 0.110397
H2    H     H_    0.776355 0.523514 0.208568 0.138763
H3    H     H_    0.506690 0.318571 0.624212 0.140066
H4    H     H_    0.318931 0.810599 0.798519 0.127754
H5    H     H_    0.238102 0.763343 0.880598 0.129233
H6    H     H_    0.303492 0.047006 0.719132 0.105343
H7    H     H_    0.186693 0.695367 0.624097 0.176337
H8    H     H_    0.456229 0.728578 0.622186 0.145864
H9    H     H_    0.597030 0.160988 0.184332 0.104092
H10   H     H_    0.735788 0.999400 0.788924 0.136547
H11   H     H_    0.771422 0.970713 0.872632 0.124504
H12   H     H_    0.700562 0.983190 0.185856 0.117047
H13   H     H_    0.456951 0.701929 0.708473 0.121515
H14   H     H_    0.525793 0.636345 0.769265 0.105699
H15   H     H_    0.555009 0.608214 0.853265 0.127051
H16   H     H_    0.806922 0.971432 0.715952 0.127440
H17   H     H_    0.804668 0.003385 0.629629 0.139081
H18   H     H_    0.578228 0.130531 0.272368 0.100656
H19   H     H_    0.357658 0.967613 0.271498 0.106020
H20   H     H_    0.324111 0.950313 0.183415 0.104334
H21   H     H_    0.970300 0.708815 0.207339 0.112981
H22   H     H_    0.003847 0.725786 0.295344 0.109091
H23   H     H_    0.690347 0.005401 0.273719 0.123714
H24   H     H_    0.606331 0.657943 0.294531 0.117703
H25   H     H_    0.461121 0.579550 0.167324 0.137817
H26   H     H_    0.445112 0.525358 0.228590 0.129142
H27   H     H_    0.520683 0.440696 0.140330 0.192159
H28   H     H_    0.499796 0.385685 0.201038 0.183313
H29   H     H_    0.294590 0.330353 0.196518 0.152775
H30   H     H_    0.333050 0.264851 0.148885 0.154447
H31   H     H_    0.315340 0.384919 0.135471 0.152329
H32   H     H_    0.865775 0.195556 0.772710 0.320351
H33   H     H_    0.267547 0.169788 0.670337 0.125389
H34   H     H_    0.775403 0.237764 0.619981 0.168643
H35   H     H_    0.149429 0.048962 0.640163 0.138295
H36   H     H_    0.329548 0.266452 0.590046 0.167977
H37   H     H_    0.212553 0.145165 0.561206 0.173281
H38   H     H_    0.075421 0.175115 0.611051 0.159539
H39   H     H_    0.167811 0.299350 0.576232 0.159108
H40   H     H_    0.193401 0.296807 0.640148 0.163238
H41   H     H_    0.209976 0.099306 0.769908 0.099573
H42   H     H_    0.095052 0.048031 0.812544 0.137857
H43   H     H_    0.061665 0.089239 0.706297 0.169040
H44   H     H_    0.972174 0.068726 0.757587 0.177109
H45   H     H_    0.853772 0.441234 0.763644 0.165834
H46   H     H_    0.122576 0.251368 0.794137 0.147495
H47   H     H_    0.081609 0.272288 0.734685 0.196386
H48   H     H_    0.213199 0.272665 0.742623 0.134752
H49   H     H_    0.770595 0.658001 0.839329 0.328101
H50   H     H_    0.104077 0.487063 0.713221 0.352529
H51   H     H_    0.874731 0.487956 0.848585 0.180947
H52   H     H_    0.494810 0.210687 0.783071 0.099618
H53   H     H_    0.513528 0.266392 0.868983 0.115646
H54   H     H_    0.531403 0.347461 0.711167 0.107497
O1    O     O_R   0.302900 0.805360 0.446400 -0.504186
O2    O     O_R   0.638120 0.455970 0.034270 -0.513607
O3    O     O_R   0.667540 0.672320 0.030160 -0.496558
O4    O     O_R   0.522090 0.841370 0.450730 -0.493999
O5    O     O_R   0.814460 0.840990 0.926980 -0.498718
O6    O     O_R   0.001710 0.811400 0.930110 -0.492763
O7    O     O_R   0.023410 0.659800 0.926210 -0.501603
O8    O     O_R   0.806940 0.473170 0.931090 -0.495972
O9    O     O_R   0.633420 0.451310 0.927930 -0.517754
O10   O     O_R   0.663190 0.668000 0.931580 -0.505089
O11   O     O_3   0.826130 0.653050 0.980200 -0.236189
O12   O     O_R   0.657980 0.180990 0.549630 -0.511587
O13   O     O_R   0.693280 0.995650 0.447220 -0.504300
O14   O     O_R   0.657260 0.178740 0.451050 -0.493891
O15   O     O_R   0.502640 0.195380 0.446850 -0.511216
O16   O     O_R   0.319630 0.976590 0.450330 -0.499119
O17   O     O_R   0.303680 0.807790 0.552740 -0.530737
O18   O     O_R   0.522820 0.843620 0.549310 -0.506322
O19   O     O_R   0.694060 0.998080 0.553560 -0.516310
O20   O     O_3   0.610556 0.611959 0.202071 -0.579960
O21   O     O_2   0.900217 0.258946 0.690822 -0.567149
O22   O     O_R   0.801228 0.206284 0.760773 -0.718958
O23   O     O_R   0.503420 0.197810 0.553190 -0.487249
O24   O     O_3   0.313795 0.077829 0.625241 -0.539884
O25   O     O_3   0.075959 0.936571 0.755262 -0.543956
O26   O     O_2   0.891505 0.849345 0.811335 -0.509817
O27   O     O_R   0.852698 0.683713 0.846969 -0.698553
O28   O     O_2   0.076005 0.628320 0.752781 -0.527402
O29   O     O_R   0.147389 0.561835 0.695461 -0.716134
O30   O     O_R   0.320350 0.978840 0.548910 -0.444945
O31   O     O_3   0.499990 0.999990 0.500010 -0.253693
O32   O     O_R   0.819150 0.845650 0.033320 -0.511565
O33   O     O_R   0.006060 0.815720 0.028680 -0.498434
O34   O     O_R   0.028100 0.664460 0.032550 -0.510447
O35   O     O_R   0.811290 0.477490 0.029660 -0.494482

loop_
_geom_bond_atom_site_label_1
_geom_bond_atom_site_label_2
_ccdc_geom_bond_type
C25   C31   A    
C7    C10   S    
C41   O24   S    
C90   O28   D    
C84   H39   S    
C72   O6    A    
C85   H42   S    
C70   C78   S    
Cr5   O8    S    
C41   C42   A    
C2    C7    A    
C71   O32   A    
C75   C76   A    
C63   C65   A    
C88   O27   S    
C39   C41   A    
C54   C60   A    
C85   C86   S    
C4    O15   A    
C65   C66   A    
C12   C23   A    
C84   H38   S    
C26   C27   A    
C45   C76   A    
Cr1   O17   S    
C36   C37   A    
Cr2   O31   S    
Cr5   O11   S    
C52   O17   A    
C12   H9    S    
Cr5   O34   S    
C30   H54   S    
C27   C29   A    
C80   H29   S    
C68   C74   S    
Cr6   O2    S    
C75   H1    S    
C17   C20   A    
C56   C78   T    
Cr6   O11   S    
C18   C19   A    
C81   O22   S    
C49   C50   A    
C40   O23   A    
C77   H26   S    
C33   H51   S    
C70   O35   A    
C90   O29   S    
Cr3   O31   S    
C61   C66   A    
C58   C66   S    
C57   H13   S    
C82   O24   S    
C10   C89   T    
C16   O16   A    
C8    C9    S    
H50   O29   S    
C47   C48   A    
C4    O14   A    
C31   H3    S    
C87   H48   S    
C61   C62   A    
C26   H34   S    
C86   H44   S    
C34   C75   A    
Cr2   O14   S    
C39   C52   S    
Cr3   O15   S    
C59   C60   A    
C49   C88   S    
C60   H17   S    
C15   C20   A    
C74   O5    A    
C42   H6    S    
Cr3   O30   S    
C36   H52   S    
C59   H16   S    
C77   C79   S    
Cr6   O3    S    
C48   C53   A    
C64   C67   T    
Cr1   O18   S    
C27   C81   S    
C19   C22   S    
C70   O2    A    
C45   C56   S    
Cr1   O4    S    
C3    C8    A    
C17   H12   S    
C28   C54   S    
C86   C87   S    
C77   O20   S    
C47   C51   A    
C62   H11   S    
C44   C46   A    
C50   C51   A    
C25   C26   A    
C79   H27   S    
C55   H8    S    
C72   O7    A    
C15   O20   S    
C5    H21   S    
C50   O25   S    
C35   C36   A    
C43   C44   A    
C52   O30   A    
C40   O12   A    
C29   C30   A    
C2    H19   S    
C83   C84   S    
Cr2   O19   S    
C23   C34   A    
C35   C38   A    
C17   C18   A    
Cr4   O5    S    
C32   C37   A    
C82   H33   S    
C61   H10   S    
C9    C11   T    
Cr4   O11   S    
C32   H45   S    
C86   H43   S    
C69   O33   A    
C39   C46   A    
Cr2   O13   S    
Cr6   O10   S    
Cr3   O16   S    
H32   O22   S    
C14   H24   S    
Cr1   O31   S    
C1    C13   S    
Cr4   O33   S    
C29   C37   S    
C85   H41   S    
C44   C90   S    
Cr5   O35   S    
C79   H28   S    
Cr2   O12   S    
C4    C64   S    
C54   C55   A    
C84   H40   S    
C63   C68   A    
Cr5   O7    S    
C14   C19   A    
C12   C45   A    
C34   C67   S    
C5    C8    A    
C11   C69   S    
C6    C7    A    
C80   H31   S    
C62   C68   A    
Cr4   O32   S    
C46   H7    S    
C73   O9    A    
C28   O18   A    
C33   C38   A    
C88   O26   D    
C74   O10   A    
C3    H20   S    
C32   C33   A    
C55   C57   A    
C2    C3    A    
C58   C59   A    
C83   H36   S    
C25   C40   S    
C23   H18   S    
Cr1   O1    S    
C30   C31   A    
C43   C51   S    
C57   C58   A    
C5    C6    A    
C80   H30   S    
C49   C53   A    
C48   H5    S    
C73   O8    A    
Cr3   O23   S    
C85   O25   S    
C13   C22   T    
C16   O1    A    
C81   O21   D    
C87   H46   S    
C63   H15   S    
C1    O4    A    
C65   H14   S    
C83   H37   S    
C77   H25   S    
C47   H4    S    
C69   O34   A    
C79   C80   S    
C28   O19   A    
C16   C89   S    
Cr6   O9    S    
C20   C21   S    
C1    O13   A    
Cr4   O6    S    
C82   C83   S    
C42   C43   A    
C21   C24   T    
H49   O27   S    
C14   C15   A    
C35   H53   S    
C87   H47   S    
C82   H35   S    
C53   C72   S    
C76   H2    S    
C18   H23   S    
C6    H22   S    
C24   C71   S    
C38   C73   S    
C71   O3    A    
