data_mof_unit_65362.cif
_audit_creation_date              2012-12-10T16:57:19-0500
_audit_creation_method            fapswitch 2.2
_symmetry_space_group_name_H-M    P1
_symmetry_Int_Tables_number       1
_space_group_crystal_system       triclinic
_cell_length_a                    21.777529
_cell_length_b                    21.772253
_cell_length_c                    22.171927
_cell_angle_alpha                 59.587376
_cell_angle_beta                  118.793458
_cell_angle_gamma                 90.416939
_cell_volume                      7546.08018424

loop_
_atom_site_label
_atom_site_type_symbol
_atom_type_description
_atom_site_fract_x
_atom_site_fract_y
_atom_site_fract_z
_atom_type_partial_charge
C1    C     C_R   0.617663 0.501921 0.497076 0.933594
C2    C     C_2   0.817812 0.488590 0.505415 -0.322846
C3    C     C_2   0.693302 0.481841 0.452596 -0.159922
C4    C     C_R   0.418638 0.581828 0.337241 0.918096
C5    C     C_2   0.679285 0.508742 0.488639 -0.328609
C6    C     C_3   0.723616 0.195796 0.030078 0.594995
C7    C     C_3   0.681808 0.280511 0.973112 -0.278310
C8    C     C_1   0.625987 0.372756 0.751632 -0.184562
C9    C     C_1   0.875723 0.125779 0.248382 -0.155205
C10   C     C_3   0.749790 0.203725 0.973641 -0.428835
C11   C     C_3   0.709415 0.289181 0.917492 -0.010865
C12   C     C_3   0.289683 0.710666 0.082091 0.204172
C13   C     C_3   0.818929 0.218216 0.025784 0.446611
C14   C     C_3   0.793022 0.208688 0.082481 -0.021837
C15   C     C_3   0.778801 0.302556 0.969735 0.539633
C16   C     C_R   0.384000 0.496677 0.505727 0.917271
C17   C     C_3   0.752324 0.293823 0.026173 -0.385975
C18   C     C_1   0.663715 0.334758 0.826643 0.039023
C19   C     C_1   0.838590 0.163274 0.173367 0.078527
C20   C     C_2   0.237769 0.517992 0.544067 -0.291665
C21   C     C_2   0.181941 0.505825 0.492999 0.391672
C22   C     C_2   0.301119 0.527783 0.537273 -0.121853
C23   C     C_3   0.187183 0.731074 0.974618 -0.164103
C24   C     C_2   0.327094 0.485695 0.522014 -0.253584
C25   C     C_R   0.002600 0.878270 0.505548 0.957513
C26   C     C_R   0.080868 0.918540 0.662746 0.894024
C27   C     C_R   0.998536 0.120964 0.496192 0.970849
C28   C     C_R   0.581309 0.418203 0.662687 0.899707
C29   C     C_R   0.919166 0.081304 0.337331 0.917345
C30   C     C_R   0.998538 0.619696 0.498918 0.875609
C31   C     C_R   0.881361 0.497293 0.501039 0.951998
C32   C     C_R   0.998428 0.380323 0.500886 0.961443
C33   C     C_R   0.118524 0.500890 0.498743 0.790680
C34   C     C_3   0.206923 0.792105 0.917911 0.204340
C35   C     C_2   0.977369 0.692963 0.544283 0.430717
C36   C     C_2   0.992384 0.688648 0.493810 0.251979
C37   C     C_2   0.966475 0.765756 0.533203 -0.233306
C38   C     C_2   0.012835 0.804277 0.523812 -0.317047
C39   C     C_2   0.937345 0.314450 0.439562 -0.298701
C40   C     C_3   0.286091 0.740507 0.971181 -0.164254
C41   C     C_2   0.991830 0.312761 0.504603 -0.411176
C42   C     C_2   0.932077 0.243729 0.446535 0.581433
C43   C     C_2   0.995592 0.192098 0.485867 -0.444731
C44   C     C_3   0.309414 0.771698 0.025374 -0.162682
C45   C     C_3   0.210516 0.762254 0.028850 -0.157888
C46   C     C_1   0.373680 0.627298 0.248159 -0.181339
C47   C     C_1   0.124357 0.874322 0.751834 -0.181968
C48   C     C_3   0.267145 0.678698 0.029456 -0.165351
C49   C     C_3   0.634278 0.138175 0.006144 -0.286398
C50   C     C_3   0.862121 0.366716 0.992422 -0.307185
C51   C     C_3   0.899130 0.193640 0.995545 -0.283585
C52   C     C_3   0.157564 0.456690 0.415909 -0.327926
C53   C     C_3   0.978759 0.632022 0.666939 -0.301038
C54   C     C_3   0.046082 0.741995 0.419522 -0.320322
C55   C     C_3   0.807975 0.272688 0.398603 -0.296067
C56   C     C_3   0.229450 0.824093 0.970525 -0.162138
C57   C     C_1   0.335687 0.665218 0.173065 -0.074439
C58   C     C_1   0.161447 0.837139 0.826933 -0.080484
C59   C     C_2   0.756439 0.490861 0.445197 -0.166393
H1    H     H_    0.360301 0.787591 0.047719 0.136133
H2    H     H_    0.061531 0.779705 0.531512 0.165944
H3    H     H_    0.895868 0.367103 0.382216 0.178635
H4    H     H_    0.047652 0.204164 0.507126 0.122270
H5    H     H_    0.213194 0.884482 0.944801 0.134909
H6    H     H_    0.180325 0.770409 0.054060 0.138606
H7    H     H_    0.136298 0.715181 0.952263 0.134307
H8    H     H_    0.283393 0.618314 0.055158 0.134847
H9    H     H_    0.753459 0.496604 0.392157 0.162175
H10   H     H_    0.656901 0.456025 0.425568 0.164072
H11   H     H_    0.645822 0.127497 0.968013 0.158763
H12   H     H_    0.710728 0.542009 0.506978 0.163952
H13   H     H_    0.589082 0.191780 0.964987 0.151112
H14   H     H_    0.614767 0.092406 0.037296 0.194058
H15   H     H_    0.907640 0.312723 0.044276 0.192446
H16   H     H_    0.841285 0.387607 0.017752 0.160984
H17   H     H_    0.885436 0.408318 0.962380 0.190157
H18   H     H_    0.878389 0.253629 0.942311 0.189258
H19   H     H_    0.870012 0.160350 0.972869 0.162395
H20   H     H_    0.958310 0.172180 0.021695 0.187779
H21   H     H_    0.235768 0.523513 0.589203 0.125965
H22   H     H_    0.097254 0.466334 0.385894 0.192735
H23   H     H_    0.624480 0.306185 0.949666 0.162402
H24   H     H_    0.188690 0.400799 0.477469 0.129470
H25   H     H_    0.171480 0.455546 0.374423 0.194465
H26   H     H_    0.932878 0.674752 0.647147 0.165011
H27   H     H_    0.032694 0.640759 0.698027 0.156924
H28   H     H_    0.981090 0.576484 0.714248 0.193973
H29   H     H_    0.037596 0.712078 0.389185 0.194647
H30   H     H_    0.099792 0.711316 0.481782 0.121828
H31   H     H_    0.049287 0.797464 0.379062 0.206578
H32   H     H_    0.029731 0.259729 0.564409 0.157938
H33   H     H_    0.788115 0.333010 0.346783 0.154289
H34   H     H_    0.754297 0.329124 0.049278 0.176598
H35   H     H_    0.825266 0.265306 0.458639 0.160653
H36   H     H_    0.760760 0.250634 0.382013 0.190856
H37   H     H_    0.823865 0.474201 0.563050 0.161332
H38   H     H_    0.747220 0.168102 0.950776 0.163591
H39   H     H_    0.325724 0.569136 0.544488 0.161986
H40   H     H_    0.316304 0.732330 0.946003 0.134980
H41   H     H_    0.306972 0.439417 0.523649 0.174245
H42   H     H_    0.920545 0.787366 0.531626 0.171953
O1    O     O_R   0.590490 0.448940 0.499990 -0.618808
O2    O     O_R   0.034710 0.555670 0.569560 -0.603715
O3    O     O_R   0.874770 0.534770 0.430450 -0.620454
O4    O     O_R   0.590420 0.551070 0.499980 -0.620478
O5    O     O_R   0.944330 0.465210 0.569580 -0.611337
O6    O     O_R   0.965290 0.444330 0.430440 -0.627242
O7    O     O_R   0.034850 0.374760 0.569570 -0.625890
O8    O     O_R   0.055670 0.534790 0.430420 -0.603193
O9    O     O_R   0.125230 0.465230 0.569550 -0.647050
O10   O     O_R   0.438430 0.510550 0.376780 -0.619460
O11   O     O_R   0.438360 0.612680 0.376770 -0.614250
O12   O     O_R   0.948920 0.909510 0.500030 -0.623235
O13   O     O_R   0.409580 0.448930 0.500020 -0.627734
O14   O     O_R   0.409510 0.551060 0.500010 -0.619701
O15   O     O_R   0.561640 0.387320 0.623230 -0.622989
O16   O     O_R   0.561570 0.489450 0.623220 -0.611963
O17   O     O_R   0.051050 0.909420 0.500010 -0.626430
O18   O     O_3   0.698363 0.137460 0.068621 -0.586717
O19   O     O_3   0.804439 0.360457 0.931160 -0.605498
O20   O     O_3   0.892937 0.184637 0.059713 -0.602170
O21   O     O_3   0.177181 0.515613 0.423494 -0.584258
O22   O     O_3   0.965434 0.631751 0.598199 -0.617328
O23   O     O_R   0.112670 0.938280 0.623210 -0.622066
O24   O     O_3   0.986065 0.753698 0.425535 -0.603939
O25   O     O_3   0.864991 0.232391 0.406565 -0.585078
O26   O     O_R   0.010540 0.938370 0.623230 -0.626464
O27   O     O_R   0.051080 0.090340 0.499970 -0.636511
O28   O     O_R   0.948950 0.090430 0.499990 -0.567011
O29   O     O_R   0.989460 0.061480 0.376770 -0.616169
O30   O     O_R   0.887330 0.061570 0.376790 -0.600764
O31   O     O_R   0.965150 0.625240 0.430430 -0.605021
Zn1   Zn    Zn3+2 0.500050 0.431810 0.500010 0.952670
Zn2   Zn    Zn3+2 0.499950 0.568190 0.499990 0.968536
Zn3   Zn    Zn3+2 0.068190 0.999870 0.499990 0.962522
Zn4   Zn    Zn3+2 0.931810 0.999990 0.500010 0.991925
Zn5   Zn    Zn3+2 0.953560 0.546450 0.407100 0.967395
Zn6   Zn    Zn3+2 0.046440 0.453550 0.592900 0.966014

loop_
_geom_bond_atom_site_label_1
_geom_bond_atom_site_label_2
_ccdc_geom_bond_type
C37   H42   S    
C11   C18   S    
C34   C56   S    
C23   C45   S    
C10   H38   S    
C35   C36   D    
C12   C48   S    
C25   O17   A    
C40   H40   S    
C43   H4    S    
C39   C41   D    
C4    C46   S    
O3    Zn5   S    
C7    C11   S    
C55   H33   S    
C22   H39   S    
C23   H7    S    
C35   C37   S    
C54   H31   S    
C25   O12   A    
C28   O16   A    
C50   H15   S    
C25   C38   S    
C30   O31   A    
O5    Zn6   S    
C21   C33   S    
C15   O19   S    
O8    Zn5   S    
C49   O18   S    
C21   O21   S    
C52   H25   S    
C40   C48   S    
C28   O15   A    
C52   O21   S    
C9    C19   T    
C36   O24   S    
C45   C56   S    
C7    C17   S    
C49   H13   S    
C30   O2    A    
C32   C41   S    
C56   H5    S    
C53   H27   S    
C9    C29   S    
C38   H2    S    
C22   C24   D    
C4    O11   A    
C16   C24   S    
C13   C14   S    
C14   C17   S    
C26   O23   A    
C55   H35   S    
O16   Zn2   S    
C39   C42   S    
C54   O24   S    
C20   H21   S    
O9    Zn6   S    
O26   Zn4   S    
C54   H30   S    
C55   H36   S    
O30   Zn4   S    
C53   O22   S    
O27   Zn3   S    
C2    C59   D    
O10   Zn1   S    
O15   Zn1   S    
O31   Zn5   S    
O12   Zn4   S    
C8    C18   T    
C2    C31   S    
O6    Zn5   S    
C52   H24   S    
C51   H18   S    
C37   C38   D    
C50   H17   S    
C59   H9    S    
C6    C14   S    
O28   Zn4   S    
C13   O20   S    
C27   O27   A    
C44   C56   S    
C29   O29   A    
C55   O25   S    
C23   C34   S    
C53   H28   S    
C26   C47   S    
C12   C57   S    
C41   H32   S    
C4    O10   A    
C20   C22   S    
C11   C15   S    
C49   H11   S    
C13   C15   S    
C46   C57   T    
C45   H6    S    
C27   O28   A    
C31   O5    A    
C1    C5    S    
O2    Zn6   S    
C33   O8    A    
C42   C43   D    
C16   O14   A    
C6    O18   S    
C15   C17   S    
C39   H3    S    
C23   C48   S    
O23   Zn3   S    
C3    H10   S    
C24   H41   S    
C14   C19   S    
O11   Zn2   S    
C12   C45   S    
C3    C5    D    
C10   C13   S    
C16   O13   A    
C6    C10   S    
C6    C7    S    
O14   Zn2   S    
C50   O19   S    
C30   C36   S    
C31   O3    A    
C2    H37   S    
O1    Zn1   S    
C5    H12   S    
C50   H16   S    
C47   C58   T    
C54   H29   S    
C32   O6    A    
C29   O30   A    
C44   H1    S    
C51   O20   S    
C35   O22   S    
O13   Zn1   S    
C49   H14   S    
C26   O26   A    
C48   H8    S    
C52   H22   S    
C51   H20   S    
C51   H19   S    
O29   Zn3   S    
C10   C11   S    
C42   O25   S    
C27   C43   S    
C40   C44   S    
C7    H23   S    
C17   H34   S    
C20   C21   D    
C8    C28   S    
C12   C44   S    
C32   O7    A    
C34   C58   S    
C34   C40   S    
C53   H26   S    
C33   O9    A    
C1    O1    A    
O17   Zn3   S    
C1    O4    A    
O4    Zn2   S    
O7    Zn6   S    
C3    C59   S    
