data_mof_unit_12085.cif
_audit_creation_date              2012-12-10T19:15:24-0500
_audit_creation_method            fapswitch 2.2
_symmetry_space_group_name_H-M    P1
_symmetry_Int_Tables_number       1
_space_group_crystal_system       triclinic
_cell_length_a                    10.781403
_cell_length_b                    9.709381
_cell_length_c                    23.453636
_cell_angle_alpha                 90.303369
_cell_angle_beta                  90.139335
_cell_angle_gamma                 89.429631
_cell_volume                      2454.98118237

loop_
_atom_site_label
_atom_site_type_symbol
_atom_type_description
_atom_site_fract_x
_atom_site_fract_y
_atom_site_fract_z
_atom_type_partial_charge
C1    C     C_R   0.258012 0.500489 0.504688 0.940556
C2    C     C_R   0.248802 0.527000 0.970199 0.133464
C3    C     C_R   0.249228 0.528238 0.030145 0.048998
C4    C     C_R   0.363544 0.523805 0.060642 -0.074807
C5    C     C_R   0.476400 0.519717 0.029844 -0.037685
C6    C     C_R   0.591405 0.517130 0.058997 -0.002921
C7    C     C_R   0.703106 0.512800 0.028581 -0.153068
C8    C     C_R   0.701942 0.509366 0.969573 -0.148077
C9    C     C_R   0.370694 0.521977 0.120811 0.523348
C10   C     C_R   0.592363 0.517409 0.118269 0.532307
C11   C     C_R   0.515633 0.384674 0.234512 0.113694
C12   C     C_R   0.500748 0.499542 0.389158 0.919848
C13   C     C_R   0.522194 0.378757 0.294383 0.051820
C14   C     C_R   0.498645 0.499757 0.326698 -0.061286
C15   C     C_R   0.471073 0.624145 0.298902 -0.239869
C16   C     C_R   0.465914 0.629233 0.240031 -0.141856
C17   C     C_R   0.487808 0.510328 0.208032 0.317220
C18   C     C_R   0.460651 0.382421 0.761739 -0.012315
C19   C     C_R   0.468153 0.381643 0.702402 -0.188214
C20   C     C_R   0.494114 0.502337 0.672721 -0.064510
C21   C     C_R   0.511734 0.626090 0.702205 -0.216036
C22   C     C_R   0.504065 0.631239 0.761425 -0.000384
C23   C     C_R   0.742438 0.499537 0.498146 0.911449
C24   C     C_R   0.479146 0.508250 0.791333 0.158327
C25   C     C_3   0.065283 0.643284 0.532641 -0.113332
C26   C     C_3   0.067511 0.371465 0.541922 -0.132341
C27   C     C_3   0.922185 0.626106 0.534961 -0.455302
C28   C     C_3   0.923714 0.372623 0.534402 -0.446015
C29   C     C_3   0.079115 0.484908 0.443134 -0.411992
C30   C     C_3   0.120832 0.500912 0.506540 -0.169080
C31   C     C_3   0.878852 0.499121 0.499274 -0.031876
C32   C     C_3   0.936223 0.498831 0.436301 -0.102779
C33   C     C_3   0.402660 0.081659 0.460724 -0.252512
C34   C     C_3   0.397153 0.920137 0.464038 -0.241166
C35   C     C_3   0.618745 0.079708 0.477463 -0.222836
C36   C     C_3   0.617324 0.917395 0.475808 -0.213520
C37   C     C_3   0.481410 0.081767 0.556874 -0.212236
C38   C     C_3   0.485161 0.919643 0.557167 -0.225364
C39   C     C_R   0.499593 0.500455 0.610655 0.967801
C40   C     C_R   0.587437 0.506700 0.880586 0.594332
C41   C     C_R   0.365818 0.518002 0.879597 0.636880
C42   C     C_R   0.361740 0.520861 0.939671 -0.056372
C43   C     C_R   0.475392 0.517454 0.969792 -0.047359
C44   C     C_R   0.589074 0.511168 0.939878 0.014470
H1    H     H_    0.454195 0.286329 0.679114 0.207196
H2    H     H_    0.530728 0.719454 0.678815 0.197281
H3    H     H_    0.888020 0.611429 0.579146 0.231077
H4    H     H_    0.874111 0.371910 0.575815 0.208067
H5    H     H_    0.874081 0.722573 0.521947 0.228162
H6    H     H_    0.889908 0.276438 0.514217 0.247492
H7    H     H_    0.129541 0.552864 0.413821 0.242742
H8    H     H_    0.114680 0.386219 0.425879 0.212663
H9    H     H_    0.419804 0.113036 0.415908 0.157218
H10   H     H_    0.398195 0.874473 0.420480 0.163628
H11   H     H_    0.312391 0.127049 0.471808 0.196355
H12   H     H_    0.308561 0.892994 0.484189 0.209774
H13   H     H_    0.635875 0.118207 0.433827 0.188358
H14   H     H_    0.630621 0.880675 0.431220 0.192744
H15   H     H_    0.554794 0.121022 0.585962 0.156196
H16   H     H_    0.562934 0.883479 0.584731 0.159585
H17   H     H_    0.392030 0.119606 0.574574 0.227238
H18   H     H_    0.398817 0.880425 0.576816 0.215760
H19   H     H_    0.696907 0.115109 0.504685 0.186554
H20   H     H_    0.697269 0.877659 0.500965 0.191017
H21   H     H_    0.791965 0.510907 0.050258 0.193742
H22   H     H_    0.789894 0.505160 0.947345 0.190388
H23   H     H_    0.452499 0.718040 0.322673 0.170630
H24   H     H_    0.444802 0.725795 0.219045 0.150972
N1    N     N_R   0.477205 0.510480 0.852099 -0.335266
N2    N     N_R   0.483421 0.517848 0.147464 -0.341929
N3    N     N_3   0.499750 0.138610 0.498760 -0.060406
N4    N     N_3   0.499750 0.861390 0.498760 -0.066669
O1    O     O_R   0.314910 0.616040 0.499990 -0.575772
O2    O     O_R   0.314910 0.383960 0.499990 -0.629810
O3    O     O_R   0.500080 0.616070 0.416130 -0.628941
O4    O     O_R   0.500080 0.383930 0.416130 -0.595088
O5    O     O_R   0.685320 0.616040 0.499970 -0.614536
O6    O     O_R   0.685320 0.383960 0.499970 -0.604252
O7    O     O_R   0.500150 0.616010 0.583820 -0.619182
O8    O     O_R   0.500150 0.383990 0.583820 -0.630194
O9    O     O_2   0.694941 0.498727 0.851257 -0.540623
O10   O     O_2   0.260547 0.522746 0.848426 -0.514556
O11   O     O_2   0.267310 0.522701 0.153006 -0.559391
O12   O     O_2   0.701248 0.516340 0.146880 -0.542223
Zn1   Zn    Zn3+2 0.500150 0.654960 0.499970 0.972696
Zn2   Zn    Zn3+2 0.500150 0.345040 0.499970 0.965639
N5    N     N_3   0.132149 0.531343 0.940506 -0.355982
H25   H     H_    0.079791 0.446488 0.952834 0.206985
H26   H     H_    0.084444 0.621200 0.952464 0.210077
C45   C     C_2   0.523324 0.766290 0.790540 0.944495
O13   O     O_2   0.484836 0.786816 0.838862 -0.624085
O14   O     O_R   0.584731 0.871766 0.761998 -0.790301
H27   H     H_    0.593228 0.958173 0.786098 0.367723
C46   C     C_2   0.087274 0.774325 0.497646 0.912388
O15   O     O_2   0.053615 0.885225 0.517619 -0.609625
O16   O     O_R   0.138619 0.771433 0.443087 -0.825766
H28   H     H_    0.135060 0.863704 0.423190 0.328586
C47   C     C_2   0.109799 0.228014 0.520678 0.932466
O17   O     O_2   0.165850 0.149140 0.552356 -0.597888
O18   O     O_R   0.073527 0.180731 0.466724 -0.811804
H29   H     H_    0.106106 0.085597 0.457159 0.350638
C48   C     C_2   0.117156 0.676927 0.592511 0.919330
O19   O     O_2   0.228752 0.689630 0.599731 -0.626935
O20   O     O_R   0.038005 0.700823 0.638859 -0.760196
H30   H     H_    0.084493 0.723135 0.675337 0.372028
C49   C     C_2   0.105157 0.382439 0.605213 0.927520
O21   O     O_2   0.215182 0.379997 0.618160 -0.610986
O22   O     O_R   0.016607 0.393703 0.648587 -0.777995
H31   H     H_    0.055300 0.400280 0.687943 0.378814
C50   C     C_2   0.906292 0.630848 0.402784 0.905106
O23   O     O_2   0.829935 0.715054 0.419722 -0.668122
O24   O     O_R   0.965832 0.654127 0.350745 -0.732575
H32   H     H_    0.938876 0.743812 0.332307 0.353875
C51   C     C_2   0.894586 0.379848 0.397621 0.911762
O25   O     O_2   0.934188 0.372468 0.348764 -0.567568
O26   O     O_R   0.816801 0.276493 0.416810 -0.806619
H33   H     H_    0.804444 0.201723 0.387062 0.337450
N6    N     N_3   0.131060 0.534302 0.058196 -0.460973
H34   H     H_    0.119357 0.445598 0.082565 0.251951
H35   H     H_    0.125839 0.622995 0.083556 0.248029
N7    N     N_3   0.536615 0.264555 0.199850 -0.444384
H36   H     H_    0.472260 0.189643 0.211018 0.184812
H37   H     H_    0.625873 0.226496 0.207998 0.208582
N8    N     N_3   0.554243 0.251869 0.322137 -0.447333
H38   H     H_    0.641470 0.219121 0.307882 0.192313
H39   H     H_    0.488908 0.177524 0.311059 0.172574
C52   C     C_2   0.433789 0.250298 0.791165 0.941934
O27   O     O_2   0.459409 0.234572 0.841531 -0.620851
O28   O     O_R   0.379799 0.142047 0.760640 -0.782537
H40   H     H_    0.364992 0.058008 0.785087 0.369343

loop_
_geom_bond_atom_site_label_1
_geom_bond_atom_site_label_2
_ccdc_geom_bond_type
C33   H11   S    
N5    H25   S    
C34   H12   S    
O4    Zn2   S    
C41   C42   A    
C35   C36   S    
O18   H29   S    
C26   C49   S    
N4    Zn1   S    
C7    C8    A    
O26   H33   S    
C8    H22   S    
C29   C30   S    
C32   C50   S    
C18   C24   A    
C1    O2    A    
N8    H39   S    
O28   H40   S    
C29   C32   S    
C36   H14   S    
C5    C6    A    
C25   C48   S    
C49   O21   D    
C15   C16   A    
O22   H31   S    
C18   C19   A    
N6    H34   S    
O14   H27   S    
O8    Zn2   S    
C50   O23   D    
C28   H6    S    
O3    Zn1   S    
C11   C17   A    
C19   C20   A    
C16   C17   A    
C16   H24   S    
O6    Zn2   S    
C5    C43   A    
C35   N3    S    
C25   C46   S    
C13   C14   A    
C11   N7    S    
O20   H30   S    
C24   N1    S    
C51   O25   D    
N6    H35   S    
C33   H9    S    
C38   N4    S    
C40   N1    A    
C27   C31   S    
C9    N2    A    
C13   N8    S    
C23   O5    A    
C23   C31   S    
C48   O20   S    
C43   C44   A    
C52   O28   S    
C37   C38   S    
C3    N6    S    
C18   C52   S    
C7    H21   S    
N3    Zn2   S    
C45   O14   S    
C31   C32   S    
C15   H23   S    
O16   H28   S    
C33   C34   S    
C22   C45   S    
C2    N5    S    
O2    Zn2   S    
C46   O16   S    
O1    Zn1   S    
N7    H36   S    
C37   H15   S    
C26   C47   S    
C27   H5    S    
C38   H16   S    
C10   N2    A    
C9    O11   S    
C34   H10   S    
C46   O15   D    
C47   O18   S    
C37   N3    S    
C22   C24   A    
C42   C43   A    
C3    C4    A    
C34   N4    S    
O7    Zn1   S    
C37   H17   S    
C41   N1    A    
C21   H2    S    
C29   H7    S    
C27   H3    S    
C25   C30   S    
C20   C39   S    
C28   H4    S    
C40   O9    S    
C28   C31   S    
C8    C44   A    
C12   C14   S    
C4    C5    A    
C6    C10   A    
C51   O26   S    
C19   H1    S    
C26   C30   S    
C6    C7    A    
C25   C27   S    
C26   C28   S    
C35   H13   S    
C1    O1    A    
C39   O8    A    
C12   O4    A    
C2    C3    A    
C36   H20   S    
C11   C13   A    
C45   O13   D    
C49   O22   S    
C2    C42   A    
C41   O10   S    
C10   O12   S    
C1    C30   S    
O24   H32   S    
C23   O6    A    
C48   O19   D    
C50   O24   S    
N7    H37   S    
C33   N3    S    
O5    Zn1   S    
C36   N4    S    
C40   C44   A    
C20   C21   A    
C47   O17   D    
C12   O3    A    
N5    H26   S    
C14   C15   A    
C35   H19   S    
C32   C51   S    
C4    C9    A    
C21   C22   A    
C17   N2    S    
C52   O27   D    
C39   O7    A    
N8    H38   S    
C38   H18   S    
C29   H8    S    
