data_mof_unit_52603.cif
_audit_creation_date              2012-10-26T19:40:09-0400
_audit_creation_method            fapswitch 2.2
_symmetry_space_group_name_H-M    P1
_symmetry_Int_Tables_number       1
_space_group_crystal_system       triclinic
_cell_length_a                    15.021438
_cell_length_b                    8.725729
_cell_length_c                    7.430641
_cell_angle_alpha                 102.203942
_cell_angle_beta                  94.2045
_cell_angle_gamma                 92.586242
_cell_volume                      947.546602819

loop_
_atom_site_label
_atom_site_type_symbol
_atom_type_description
_atom_site_fract_x
_atom_site_fract_y
_atom_site_fract_z
_atom_type_partial_charge
C1    C     C_R   0.494132 0.200707 0.455610 0.558379
C2    C     C_R   0.181020 0.390102 0.387208 -0.146246
C3    C     C_R   0.766808 0.489517 0.492086 0.010851
C4    C     C_R   0.233196 0.510410 0.507912 0.010868
C5    C     C_R   0.806531 0.367064 0.374130 -0.014740
C6    C     C_R   0.193473 0.632861 0.625856 -0.014758
C7    C     C_R   0.900834 0.373415 0.373956 0.033581
C8    C     C_R   0.099174 0.626438 0.626144 0.033570
C9    C     C_R   0.952994 0.496854 0.497663 0.045301
C10   C     C_R   0.047014 0.502977 0.502469 0.045304
C11   C     C_R   0.911421 0.613992 0.617484 0.007826
C12   C     C_R   0.505869 0.799293 0.544390 0.558375
C13   C     C_R   0.088589 0.385835 0.382655 0.007834
C14   C     C_R   0.944684 0.258966 0.254788 -0.127956
C15   C     C_R   0.055328 0.740840 0.745378 -0.127961
C16   C     C_3   0.750398 0.227008 0.257255 -0.395440
C17   C     C_3   0.249607 0.772976 0.742581 -0.395331
C18   C     C_3   0.402300 0.955446 0.297963 -0.381237
C19   C     C_3   0.597702 0.044552 0.702029 -0.381227
C20   C     C_R   0.037387 0.265198 0.259668 -0.133563
C21   C     C_R   0.962624 0.734595 0.740515 -0.133565
C22   C     C_2   0.477657 0.035650 0.439314 -0.027822
C23   C     C_2   0.522344 0.964349 0.560682 -0.027822
C24   C     C_R   0.329302 0.504748 0.503035 0.540635
C25   C     C_R   0.670698 0.495220 0.496959 0.540630
C26   C     C_R   0.818990 0.609760 0.612884 -0.146239
Cu1   Cu    Cu3+1 0.510010 0.517380 0.684380 0.929810
Cu2   Cu    Cu3+1 0.489990 0.482620 0.315620 0.929779
H1    H     H_    0.786964 0.701511 0.703425 0.110494
H2    H     H_    0.679316 0.223789 0.286669 0.159606
H3    H     H_    0.753501 0.227079 0.108432 0.133070
H4    H     H_    0.223852 0.883513 0.714043 0.112434
H5    H     H_    0.246709 0.772777 0.891421 0.133168
H6    H     H_    0.320627 0.776384 0.712708 0.159433
H7    H     H_    0.362636 0.042350 0.242709 0.121568
H8    H     H_    0.429854 0.878667 0.178767 0.166207
H9    H     H_    0.355003 0.886015 0.362406 0.130273
H10   H     H_    0.637372 0.957649 0.757270 0.121562
H11   H     H_    0.644995 0.113993 0.637587 0.130303
H12   H     H_    0.213051 0.298339 0.296697 0.110464
H13   H     H_    0.570150 0.121324 0.821234 0.166192
H14   H     H_    0.908269 0.163849 0.156036 0.110028
H15   H     H_    0.091749 0.835927 0.844157 0.110026
H16   H     H_    0.069156 0.175154 0.166613 0.104622
H17   H     H_    0.930857 0.824616 0.833593 0.104628
H18   H     H_    0.430671 0.377722 0.948583 0.241764
H19   H     H_    0.569329 0.622278 0.051417 0.241764
H20   H     H_    0.775999 0.116453 0.286086 0.112464
N1    N     N_2   0.474890 0.456420 0.038520 -0.260356
N2    N     N_2   0.525110 0.543580 0.961480 -0.260350
O1    O     O_R   0.506510 0.286130 0.619770 -0.511255
O2    O     O_R   0.493490 0.713870 0.380230 -0.511251
O3    O     O_R   0.489600 0.256770 0.308360 -0.508445
O4    O     O_R   0.510400 0.743230 0.691640 -0.508409
O5    O     O_R   0.378710 0.514640 0.655720 -0.505448
O6    O     O_R   0.621290 0.485360 0.344280 -0.505501
O7    O     O_R   0.361800 0.485290 0.344300 -0.503950
O8    O     O_R   0.638200 0.514710 0.655700 -0.503945

loop_
_geom_bond_atom_site_label_1
_geom_bond_atom_site_label_2
_ccdc_geom_bond_type
C19   C23   S    
Cu2   O3    S    
Cu1   N2    S    
C11   C26   A    
C19   H10   S    
C2    H12   S    
C8    C15   A    
C9    C11   A    
C9    C10   A    
Cu2   N1    S    
C2    C4    A    
C12   C23   S    
C25   O6    A    
C15   C21   A    
C14   H14   S    
C7    C9    A    
C16   H20   S    
Cu2   O6    S    
Cu1   O4    S    
C15   H15   S    
C1    C22   S    
Cu2   O7    S    
C24   O5    A    
Cu2   O2    S    
H18   N1    S    
C17   H5    S    
Cu1   O8    S    
C19   H11   S    
C17   H4    S    
C4    C6    A    
C20   H16   S    
C18   H9    S    
Cu1   O1    S    
N1    N2    D    
H19   N2    S    
C21   H17   S    
C7    C14   A    
C4    C24   S    
Cu1   O5    S    
C17   H6    S    
C16   H2    S    
C6    C17   S    
C14   C20   A    
C3    C25   S    
C26   H1    S    
C8    C10   A    
C25   O8    A    
C18   H7    S    
Cu1   Cu2   S    
C5    C7    A    
C2    C13   A    
C1    O3    A    
C22   C23   D    
C5    C16   S    
C6    C8    A    
C1    O1    A    
C3    C5    A    
C13   C20   A    
C12   O2    A    
C18   C22   S    
C18   H8    S    
C11   C21   A    
C3    C26   A    
C12   O4    A    
C19   H13   S    
C24   O7    A    
C16   H3    S    
C10   C13   A    
