data_mof_unit_64188.cif
_audit_creation_date              2012-12-10T16:58:36-0500
_audit_creation_method            fapswitch 2.2
_symmetry_space_group_name_H-M    P1
_symmetry_Int_Tables_number       1
_space_group_crystal_system       triclinic
_cell_length_a                    31.157635
_cell_length_b                    30.426764
_cell_length_c                    24.683089
_cell_angle_alpha                 89.97815
_cell_angle_beta                  128.266188
_cell_angle_gamma                 90.022891
_cell_volume                      18372.4858223

loop_
_atom_site_label
_atom_site_type_symbol
_atom_type_description
_atom_site_fract_x
_atom_site_fract_y
_atom_site_fract_z
_atom_type_partial_charge
C1    C     C_R   0.806758 0.809762 0.495449 0.962460
C2    C     C_R   0.534036 0.749158 0.070598 0.420603
C3    C     C_R   0.944600 0.262138 0.818207 0.533097
C4    C     C_R   0.572254 0.748956 0.146298 -0.362202
C5    C     C_R   0.425940 0.750006 0.855313 -0.378383
C6    C     C_R   0.072251 0.248961 0.146299 -0.362188
C7    C     C_R   0.925937 0.250010 0.855313 -0.378381
C8    C     C_R   0.582715 0.709800 0.183049 0.523596
C9    C     C_R   0.370813 0.738436 0.819544 0.528703
C10   C     C_R   0.082690 0.209810 0.183050 0.523583
C11   C     C_R   0.870807 0.238446 0.819543 0.528703
C12   C     C_R   0.620322 0.709468 0.255219 0.286650
C13   C     C_R   0.963862 0.249660 0.931015 0.423751
C14   C     C_R   0.334279 0.740113 0.747551 0.331318
C15   C     C_R   0.120300 0.209475 0.255220 0.286633
C16   C     C_R   0.834275 0.240121 0.747549 0.331312
C17   C     C_3   0.830068 0.708509 0.859511 0.095548
C18   C     C_3   0.770017 0.697842 0.800561 -0.278928
C19   C     C_3   0.751541 0.656542 0.816067 -0.918578
C20   C     C_3   0.161890 0.711345 0.131776 0.089413
C21   C     C_3   0.218466 0.693261 0.190794 -0.294301
C22   C     C_3   0.230332 0.650384 0.170275 -0.906720
C23   C     C_3   0.330068 0.208511 0.859512 0.095548
C24   C     C_R   0.034032 0.249164 0.070599 0.420582
C25   C     C_3   0.270016 0.197846 0.800562 -0.278930
C26   C     C_3   0.251540 0.156545 0.816068 -0.918567
C27   C     C_3   0.661890 0.211344 0.131776 0.089413
C28   C     C_3   0.718466 0.193261 0.190794 -0.294299
C29   C     C_3   0.730331 0.150383 0.170275 -0.906720
C30   C     C_3   0.662778 0.642824 0.291370 0.139898
C31   C     C_3   0.676629 0.604469 0.339726 -0.292908
C32   C     C_3   0.714323 0.571411 0.341583 -0.934810
C33   C     C_3   0.247472 0.767348 0.690968 0.130443
C34   C     C_3   0.244833 0.785295 0.746836 -0.352264
C35   C     C_2   0.894714 0.871013 0.465239 0.569797
C36   C     C_3   0.202928 0.822212 0.718782 -0.839205
C37   C     C_3   0.162712 0.142814 0.291359 0.139857
C38   C     C_3   0.176533 0.104455 0.339697 -0.292921
C39   C     C_3   0.214132 0.071341 0.341464 -0.935004
C40   C     C_3   0.747471 0.267363 0.690963 0.130442
C41   C     C_3   0.744836 0.285318 0.746830 -0.352236
C42   C     C_3   0.702933 0.322237 0.718772 -0.839255
C43   C     C_3   0.885776 0.948162 0.561561 0.075900
C44   C     C_3   0.925563 0.969433 0.632636 -0.335247
C45   C     C_3   0.902660 0.012369 0.637215 -0.789895
C46   C     C_2   0.104577 0.870866 0.533826 0.544433
C47   C     C_3   0.116547 0.949173 0.441429 0.059713
C48   C     C_3   0.077588 0.971456 0.371037 -0.301081
C49   C     C_3   0.101948 0.013997 0.367907 -0.846479
C50   C     C_3   0.385775 0.448162 0.561561 0.075900
C51   C     C_3   0.425563 0.469433 0.632636 -0.335248
C52   C     C_3   0.402660 0.512369 0.637215 -0.789896
C53   C     C_3   0.616581 0.449187 0.441473 0.059652
C54   C     C_3   0.577630 0.471495 0.371101 -0.301185
C55   C     C_3   0.602011 0.514034 0.368003 -0.846268
C56   C     C_2   0.394714 0.371013 0.465239 0.569816
C57   C     C_2   0.604567 0.370864 0.533812 0.544416
C58   C     C_2   0.909856 0.907239 0.504439 0.159057
C59   C     C_2   0.090468 0.907517 0.495744 0.183665
C60   C     C_2   0.409856 0.407239 0.504439 0.159047
C61   C     C_R   0.193318 0.809748 0.504724 0.927313
C62   C     C_2   0.590471 0.407521 0.495745 0.183686
C63   C     C_2   0.867488 0.834872 0.471803 -0.153769
C64   C     C_2   0.132018 0.834784 0.527515 -0.192909
C65   C     C_2   0.367488 0.334872 0.471803 -0.153752
C66   C     C_2   0.632008 0.334783 0.527499 -0.192901
C67   C     C_2   0.830816 0.843665 0.481601 -0.304341
C68   C     C_2   0.169299 0.843590 0.518747 -0.348504
C69   C     C_2   0.330817 0.343664 0.481601 -0.304318
C70   C     C_2   0.669298 0.343589 0.518746 -0.348532
C71   C     C_R   0.832418 0.753071 0.745830 0.475772
C72   C     C_R   0.306758 0.309762 0.495449 0.962470
C73   C     C_R   0.166338 0.754947 0.253450 0.482876
C74   C     C_R   0.332418 0.253072 0.745830 0.475776
C75   C     C_R   0.666338 0.254947 0.253450 0.482876
C76   C     C_R   0.866556 0.747937 0.817563 0.418268
C77   C     C_R   0.131759 0.750559 0.181661 0.420680
C78   C     C_R   0.366556 0.247938 0.817563 0.418268
C79   C     C_R   0.631759 0.250559 0.181661 0.420681
C80   C     C_R   0.923615 0.743587 0.854197 -0.215550
C81   C     C_R   0.074902 0.744562 0.145471 -0.224272
C82   C     C_R   0.423615 0.243588 0.854197 -0.215550
C83   C     C_R   0.693317 0.309748 0.504723 0.927316
C84   C     C_R   0.574902 0.244562 0.145471 -0.224272
C85   C     C_R   0.944408 0.740280 0.817639 -0.304986
C86   C     C_R   0.054885 0.739663 0.182793 -0.292459
C87   C     C_R   0.444408 0.240280 0.817639 -0.304984
C88   C     C_R   0.554885 0.239664 0.182793 -0.292454
C89   C     C_R   0.682746 0.749656 0.365558 1.064787
C90   C     C_R   0.317109 0.750022 0.634818 0.993148
C91   C     C_R   0.182747 0.249656 0.365558 1.064828
C92   C     C_R   0.817108 0.250022 0.634818 0.993158
C93   C     C_R   0.909730 0.742075 0.746124 0.597013
C94   C     C_R   0.645317 0.749005 0.290579 -0.453915
C95   C     C_R   0.089969 0.741520 0.254310 0.596366
C96   C     C_R   0.409730 0.242074 0.746124 0.597013
C97   C     C_R   0.589969 0.241520 0.254310 0.596371
C98   C     C_R   0.853649 0.748991 0.709886 -0.393205
C99   C     C_R   0.145810 0.749484 0.290021 -0.400348
C100  C     C_R   0.353649 0.248991 0.709886 -0.393205
C101  C     C_R   0.645810 0.249483 0.290021 -0.400348
C102  C     C_R   0.035718 0.743997 0.069522 0.373379
C103  C     C_R   0.962581 0.743939 0.929955 0.393226
C104  C     C_R   0.535719 0.243997 0.069522 0.373380
C105  C     C_R   0.353787 0.750746 0.710490 -0.497293
C106  C     C_R   0.462581 0.243939 0.929955 0.393228
C107  C     C_2   0.617303 0.624766 0.550454 -0.321846
C108  C     C_2   0.382906 0.624903 0.449663 -0.319078
C109  C     C_2   0.117302 0.124765 0.550454 -0.321848
C110  C     C_2   0.882906 0.124903 0.449663 -0.319081
C111  C     C_2   0.583434 0.599020 0.495619 0.484550
C112  C     C_2   0.416534 0.598988 0.504374 0.485428
C113  C     C_2   0.083434 0.099019 0.495618 0.484577
C114  C     C_2   0.916534 0.098988 0.504374 0.485428
C115  C     C_2   0.644639 0.661375 0.544810 0.552783
C116  C     C_R   0.145318 0.249007 0.290580 -0.453886
C117  C     C_2   0.355594 0.661512 0.455338 0.552798
C118  C     C_2   0.144639 0.161375 0.544809 0.552779
C119  C     C_2   0.855595 0.161512 0.455338 0.552799
C120  C     C_2   0.667123 0.654960 0.513500 0.389580
C121  C     C_2   0.332748 0.654986 0.486189 0.396241
C122  C     C_2   0.167123 0.154960 0.513499 0.389580
C123  C     C_2   0.832748 0.154986 0.486189 0.396244
C124  C     C_R   0.442364 0.561118 0.500649 0.793320
C125  C     C_R   0.557635 0.561118 0.499344 0.792161
C126  C     C_R   0.942364 0.061118 0.500649 0.793319
C127  C     C_R   0.853786 0.250747 0.710490 -0.497288
C128  C     C_R   0.057635 0.061118 0.499344 0.792164
C129  C     C_R   0.941074 0.940342 0.500731 0.904519
C130  C     C_R   0.059032 0.940456 0.499285 0.899771
C131  C     C_R   0.441074 0.440342 0.500731 0.904534
C132  C     C_R   0.559034 0.440458 0.499285 0.899799
C133  C     C_R   0.692782 0.689986 0.503649 0.855593
C134  C     C_R   0.307154 0.689992 0.496207 0.853030
C135  C     C_R   0.192782 0.189987 0.503649 0.855595
C136  C     C_R   0.807154 0.189992 0.496207 0.853033
C137  C     C_R   0.817174 0.750105 0.634637 0.999912
C138  C     C_R   0.463866 0.749655 0.931014 0.423776
C139  C     C_R   0.182750 0.750169 0.365331 0.999149
C140  C     C_R   0.317174 0.250105 0.634637 0.999908
C141  C     C_R   0.682750 0.250169 0.365331 0.999151
C142  C     C_R   0.634290 0.788113 0.254226 0.499498
C143  C     C_R   0.408957 0.762219 0.746497 0.527751
C144  C     C_R   0.134313 0.288110 0.254228 0.499481
C145  C     C_R   0.908957 0.262215 0.746497 0.527749
C146  C     C_R   0.598452 0.788081 0.182504 0.544569
C147  C     C_R   0.444600 0.762141 0.818207 0.533096
C148  C     C_R   0.098473 0.288079 0.182506 0.544578
F1    F     F_    0.658791 0.826284 0.288389 -0.593249
F2    F     F_    0.431841 0.610039 0.567715 -0.616624
F3    F     F_    0.067903 0.110253 0.432216 -0.617610
F4    F     F_    0.931841 0.110039 0.567715 -0.616623
F5    F     F_    0.648472 0.700695 0.573775 -0.624380
F6    F     F_    0.352226 0.700963 0.426943 -0.620774
F7    F     F_    0.148473 0.200695 0.573775 -0.624383
F8    F     F_    0.852226 0.200962 0.426943 -0.620776
F9    F     F_    0.672092 0.613580 0.496671 -0.671187
F10   F     F_    0.327441 0.613529 0.502481 -0.649808
F11   F     F_    0.172091 0.113579 0.496669 -0.671156
F12   F     F_    0.428979 0.772311 0.712343 -0.561234
F13   F     F_    0.827441 0.113529 0.502481 -0.649807
F14   F     F_    0.588163 0.826636 0.148668 -0.570536
F15   F     F_    0.497924 0.772391 0.851199 -0.565039
F16   F     F_    0.088206 0.326631 0.148671 -0.570536
F17   F     F_    0.997925 0.272382 0.851199 -0.565036
F18   F     F_    0.556639 0.671917 0.149244 -0.611939
F19   F     F_    0.351707 0.726858 0.854285 -0.605732
F20   F     F_    0.056589 0.171933 0.149245 -0.611942
F21   F     F_    0.851699 0.226875 0.854282 -0.605731
F22   F     F_    0.907546 0.865825 0.421967 -0.635293
F23   F     F_    0.158837 0.326276 0.288392 -0.593271
F24   F     F_    0.090095 0.865152 0.575308 -0.667318
F25   F     F_    0.407546 0.365825 0.421967 -0.635276
F26   F     F_    0.590071 0.365143 0.575277 -0.667312
F27   F     F_    0.778380 0.761253 0.711230 -0.605240
F28   F     F_    0.220423 0.762634 0.287504 -0.599511
F29   F     F_    0.278380 0.261254 0.711230 -0.605241
F30   F     F_    0.720423 0.262634 0.287504 -0.599511
F31   F     F_    0.928982 0.272300 0.712344 -0.561235
F32   F     F_    0.931321 0.738581 0.712498 -0.616622
F33   F     F_    0.068945 0.736841 0.288475 -0.612196
F34   F     F_    0.431321 0.238580 0.712498 -0.616619
F35   F     F_    0.568945 0.236841 0.288475 -0.612193
F36   F     F_    0.567903 0.610254 0.432216 -0.617606
H1    H     H_    0.987804 0.736063 0.844521 0.217163
H2    H     H_    0.121258 0.801239 0.529753 0.190754
H3    H     H_    0.640725 0.507162 0.376331 0.253496
H4    H     H_    0.377816 0.301338 0.468801 0.194221
H5    H     H_    0.621241 0.301238 0.529724 0.190778
H6    H     H_    0.816709 0.877024 0.477462 0.167582
H7    H     H_    0.183825 0.876895 0.523675 0.164081
H8    H     H_    0.316709 0.377024 0.477462 0.167579
H9    H     H_    0.683831 0.376894 0.523687 0.164087
H10   H     H_    0.835963 0.708603 0.908757 0.194175
H11   H     H_    0.856938 0.681859 0.864373 0.111371
H12   H     H_    0.743808 0.725900 0.792570 0.284590
H13   H     H_    0.011719 0.734769 0.156688 0.222747
H14   H     H_    0.764593 0.692179 0.752231 0.253632
H15   H     H_    0.777067 0.627996 0.823906 0.263364
H16   H     H_    0.708265 0.649324 0.771956 0.286656
H17   H     H_    0.754736 0.661397 0.863053 0.278521
H18   H     H_    0.159332 0.714433 0.084995 0.189605
H19   H     H_    0.129423 0.687456 0.118428 0.112646
H20   H     H_    0.250308 0.717841 0.204986 0.281623
H21   H     H_    0.220517 0.686898 0.236658 0.240580
H22   H     H_    0.199250 0.625176 0.156550 0.268565
H23   H     H_    0.271273 0.637968 0.214256 0.282278
H24   H     H_    0.487804 0.236062 0.844521 0.217164
H25   H     H_    0.230045 0.655837 0.125551 0.276277
H26   H     H_    0.335963 0.208605 0.908758 0.194177
H27   H     H_    0.356936 0.181860 0.864372 0.111372
H28   H     H_    0.243808 0.225904 0.792571 0.284589
H29   H     H_    0.264592 0.192182 0.752232 0.253635
H30   H     H_    0.277064 0.127999 0.823906 0.263365
H31   H     H_    0.208263 0.149328 0.771958 0.286658
H32   H     H_    0.254735 0.161401 0.863055 0.278521
H33   H     H_    0.659332 0.214433 0.084995 0.189605
H34   H     H_    0.629423 0.187456 0.118428 0.112647
H35   H     H_    0.511719 0.234769 0.156688 0.222748
H36   H     H_    0.750308 0.217841 0.204986 0.281622
H37   H     H_    0.720517 0.186897 0.236658 0.240579
H38   H     H_    0.699250 0.125175 0.156550 0.268565
H39   H     H_    0.771272 0.137967 0.214256 0.282277
H40   H     H_    0.730045 0.155837 0.125551 0.276278
H41   H     H_    0.701555 0.659514 0.309743 0.133921
H42   H     H_    0.642427 0.629644 0.238554 0.193736
H43   H     H_    0.696954 0.617180 0.392717 0.269148
H44   H     H_    0.638281 0.587596 0.321980 0.253668
H45   H     H_    0.694372 0.557641 0.289295 0.277804
H46   H     H_    0.624458 0.619399 0.598982 0.152241
H47   H     H_    0.723431 0.544054 0.377085 0.276970
H48   H     H_    0.753393 0.587424 0.360412 0.271440
H49   H     H_    0.205546 0.757988 0.645290 0.175282
H50   H     H_    0.261100 0.793711 0.673221 0.080494
H51   H     H_    0.233488 0.758390 0.766293 0.277337
H52   H     H_    0.285565 0.798235 0.790572 0.240013
H53   H     H_    0.213034 0.849320 0.698218 0.263372
H54   H     H_    0.203032 0.835378 0.760807 0.280003
H55   H     H_    0.161394 0.809527 0.677090 0.301977
H56   H     H_    0.201504 0.159481 0.309744 0.133894
H57   H     H_    0.375967 0.619690 0.401246 0.153846
H58   H     H_    0.142351 0.129644 0.238536 0.193784
H59   H     H_    0.196921 0.117153 0.392705 0.269119
H60   H     H_    0.138170 0.087635 0.321989 0.253819
H61   H     H_    0.194095 0.057558 0.289169 0.277863
H62   H     H_    0.223257 0.043999 0.376997 0.276971
H63   H     H_    0.253197 0.087307 0.360197 0.271495
H64   H     H_    0.705544 0.258005 0.645286 0.175290
H65   H     H_    0.761102 0.293722 0.673212 0.080488
H66   H     H_    0.733491 0.258418 0.766293 0.277343
H67   H     H_    0.785569 0.298258 0.790563 0.240003
H68   H     H_    0.124457 0.119399 0.598981 0.152241
H69   H     H_    0.713038 0.349340 0.698201 0.263351
H70   H     H_    0.703040 0.335409 0.760798 0.280002
H71   H     H_    0.661398 0.309552 0.677085 0.301997
H72   H     H_    0.847315 0.940396 0.553444 0.170479
H73   H     H_    0.874704 0.972385 0.520713 0.110255
H74   H     H_    0.933472 0.946405 0.672900 0.242538
H75   H     H_    0.965020 0.976363 0.642973 0.253395
H76   H     H_    0.895341 0.036153 0.598121 0.314110
H77   H     H_    0.932424 0.026987 0.689265 0.274324
H78   H     H_    0.863672 0.006229 0.628534 0.263024
H79   H     H_    0.875967 0.119690 0.401246 0.153846
H80   H     H_    0.155136 0.941329 0.449923 0.167420
H81   H     H_    0.127627 0.972789 0.482942 0.103323
H82   H     H_    0.069028 0.948774 0.330085 0.242136
H83   H     H_    0.038327 0.979101 0.360823 0.252660
H84   H     H_    0.110148 0.037431 0.407835 0.319265
H85   H     H_    0.072648 0.029417 0.316385 0.277238
H86   H     H_    0.140671 0.007134 0.376256 0.253541
H87   H     H_    0.347315 0.440396 0.553444 0.170478
H88   H     H_    0.374704 0.472385 0.520712 0.110255
H89   H     H_    0.433471 0.446405 0.672900 0.242538
H90   H     H_    0.877816 0.801338 0.468801 0.194217
H91   H     H_    0.465020 0.476363 0.642973 0.253395
H92   H     H_    0.395341 0.536153 0.598121 0.314109
H93   H     H_    0.432424 0.526987 0.689264 0.274325
H94   H     H_    0.363672 0.506229 0.628534 0.263025
H95   H     H_    0.655164 0.441339 0.449956 0.167452
H96   H     H_    0.627675 0.472789 0.483009 0.103300
H97   H     H_    0.569052 0.448825 0.330127 0.242151
H98   H     H_    0.538376 0.479150 0.360900 0.252672
H99   H     H_    0.610236 0.537454 0.407961 0.319289
H100  H     H_    0.572713 0.529476 0.316498 0.277259
N1    N     N_R   0.491218 0.720863 0.035628 -0.071044
N2    N     N_R   0.983741 0.729810 0.036838 -0.174613
N3    N     N_R   0.514469 0.258297 0.962561 -0.164578
N4    N     N_R   0.483741 0.229810 0.036838 -0.174611
N5    N     N_R   0.050251 0.758513 0.031003 -0.115624
N6    N     N_R   0.947886 0.729805 0.968404 -0.151664
N7    N     N_R   0.550251 0.258513 0.031003 -0.115623
N8    N     N_R   0.447886 0.229805 0.968404 -0.151664
N9    N     N_R   0.456725 0.721127 0.967064 -0.073105
N10   N     N_R   0.991202 0.220880 0.035629 -0.071037
N11   N     N_R   0.956709 0.221144 0.967066 -0.073097
N12   N     N_R   0.506676 0.777932 0.966003 -0.078346
N13   N     N_R   0.541114 0.777697 0.034524 -0.078479
N14   N     N_R   0.006683 0.277926 0.966004 -0.078334
N15   N     N_R   0.041121 0.277691 0.034525 -0.078471
N16   N     N_R   0.014469 0.758297 0.962561 -0.164579
O1    O     O_R   0.820760 0.769680 0.499980 -0.615105
O2    O     O_R   0.073990 0.954760 0.557490 -0.600383
O3    O     O_R   0.426010 0.454760 0.442510 -0.588794
O4    O     O_R   0.573990 0.454760 0.557490 -0.600410
O5    O     O_R   0.983520 0.954760 0.557520 -0.599923
O6    O     O_R   0.016480 0.954760 0.442480 -0.596261
O7    O     O_R   0.483520 0.454760 0.557520 -0.599923
O8    O     O_R   0.516480 0.454760 0.442480 -0.596258
O9    O     O_R   0.769670 0.820760 0.499990 -0.620365
O10   O     O_R   0.230330 0.820760 0.500010 -0.636943
O11   O     O_R   0.269670 0.320760 0.499990 -0.620372
O12   O     O_R   0.179240 0.769680 0.500020 -0.617612
O13   O     O_R   0.730330 0.320760 0.500010 -0.636943
O14   O     O_R   0.724610 0.724460 0.398130 -0.646456
O15   O     O_R   0.275390 0.724460 0.601870 -0.594980
O16   O     O_R   0.224610 0.224460 0.398130 -0.646452
O17   O     O_R   0.775390 0.224460 0.601870 -0.594975
O18   O     O_R   0.673520 0.775530 0.398150 -0.580311
O19   O     O_R   0.326480 0.775530 0.601850 -0.568543
O20   O     O_R   0.173520 0.275530 0.398150 -0.580343
O21   O     O_R   0.826480 0.275530 0.601850 -0.568554
O22   O     O_R   0.730310 0.679220 0.500010 -0.614787
O23   O     O_R   0.320760 0.269680 0.499980 -0.615101
O24   O     O_R   0.269690 0.679220 0.499990 -0.593850
O25   O     O_R   0.230310 0.179220 0.500010 -0.614782
O26   O     O_R   0.769690 0.179220 0.499990 -0.593850
O27   O     O_R   0.679220 0.730290 0.500020 -0.574720
O28   O     O_R   0.320780 0.730290 0.499980 -0.563358
O29   O     O_R   0.179220 0.230290 0.500020 -0.574718
O30   O     O_R   0.820780 0.230290 0.499980 -0.563357
O31   O     O_R   0.826460 0.724450 0.601850 -0.582199
O32   O     O_R   0.173540 0.724450 0.398150 -0.578711
O33   O     O_R   0.326460 0.224450 0.601850 -0.582198
O34   O     O_R   0.679240 0.269680 0.500020 -0.617615
O35   O     O_R   0.673540 0.224450 0.398150 -0.578712
O36   O     O_R   0.775370 0.775520 0.601870 -0.561298
O37   O     O_R   0.224630 0.775520 0.398130 -0.563058
O38   O     O_R   0.275370 0.275520 0.601870 -0.561299
O39   O     O_R   0.724630 0.275520 0.398130 -0.563057
O40   O     O_R   0.425990 0.545230 0.442510 -0.652097
O41   O     O_R   0.574010 0.545230 0.557490 -0.656053
O42   O     O_R   0.925990 0.045230 0.442510 -0.652098
O43   O     O_R   0.074010 0.045230 0.557490 -0.656049
O44   O     O_3   0.844202 0.751020 0.851460 -0.575636
O45   O     O_R   0.483490 0.545220 0.557520 -0.578304
O46   O     O_3   0.154109 0.753898 0.147773 -0.573109
O47   O     O_3   0.344203 0.251022 0.851460 -0.575636
O48   O     O_3   0.654109 0.253898 0.147773 -0.573109
O49   O     O_3   0.627623 0.671896 0.291679 -0.575293
O50   O     O_3   0.280144 0.728932 0.714241 -0.550592
O51   O     O_3   0.127583 0.171909 0.291681 -0.575303
O52   O     O_3   0.780139 0.228945 0.714239 -0.550595
O53   O     O_3   0.908110 0.908076 0.559558 -0.645681
O54   O     O_3   0.093350 0.909026 0.441593 -0.637037
O55   O     O_3   0.408110 0.408076 0.559558 -0.645685
O56   O     O_R   0.516510 0.545220 0.442480 -0.577134
O57   O     O_3   0.593368 0.409040 0.441606 -0.637027
O58   O     O_R   0.983490 0.045220 0.557520 -0.578304
O59   O     O_R   0.016510 0.045220 0.442480 -0.577125
O60   O     O_R   0.926010 0.954760 0.442510 -0.588798
Zn1   Zn    Zn3+2 0.784100 0.715890 0.499990 1.037055
Zn2   Zn    Zn3+2 0.538410 0.499990 0.576790 1.035901
Zn3   Zn    Zn3+2 0.961590 0.999990 0.423210 1.056888
Zn4   Zn    Zn3+2 0.038410 0.999990 0.576790 1.035918
Zn5   Zn    Zn3+2 0.215900 0.715890 0.500010 1.081074
Zn6   Zn    Zn3+2 0.284100 0.215890 0.499990 1.037095
Zn7   Zn    Zn3+2 0.715900 0.215890 0.500010 1.081082
Zn8   Zn    Zn3+2 0.715880 0.784090 0.500010 1.129614
Zn9   Zn    Zn3+2 0.284120 0.784090 0.499990 1.126177
Zn10  Zn    Zn3+2 0.215880 0.284090 0.500010 1.129597
Zn11  Zn    Zn3+2 0.784120 0.284090 0.499990 1.126168
Zn12  Zn    Zn3+2 0.461590 0.499990 0.423210 1.056901

loop_
_geom_bond_atom_site_label_1
_geom_bond_atom_site_label_2
_ccdc_geom_bond_type
C135  O25   A    
C54   H98   S    
C113  F3    S    
O56   Zn12  S    
C114  F4    S    
C5    C138  S    
C19   H16   S    
C112  C124  S    
C95   C99   A    
C42   H70   S    
C82   C87   A    
C66   H5    S    
C53   H95   S    
C120  C133  S    
C89   C94   S    
C142  C146  A    
C124  O40   A    
C129  O5    A    
O43   Zn4   S    
C111  C125  S    
C81   C86   A    
C81   C102  S    
C28   H36   S    
C21   C22   S    
C115  F5    S    
C55   H99   S    
C93   F32   S    
C109  C118  S    
C97   F35   S    
O8    Zn12  S    
C29   H38   S    
C80   C103  S    
C18   H12   S    
C51   C52   S    
C62   C132  S    
O38   Zn10  S    
C133  O27   A    
C74   C100  A    
C130  O6    A    
C26   H31   S    
C94   C142  A    
C43   C44   S    
C37   C38   S    
C17   O44   S    
C91   O20   A    
C78   C82   A    
C60   O55   S    
C41   H67   S    
C50   O55   S    
C127  C145  A    
N12   N13   A    
C11   F21   S    
C15   O51   S    
N14   N15   A    
C128  O43   A    
C71   C76   A    
C37   O51   S    
C92   O21   A    
C36   H53   S    
C84   C88   A    
C20   H19   S    
C24   N10   A    
C119  C123  D    
C76   O44   S    
C48   H83   S    
C88   H35   S    
O35   Zn7   S    
C140  O33   A    
C25   H29   S    
C66   C70   D    
C58   O53   S    
C40   O52   S    
C70   H9    S    
C136  O30   A    
C46   F24   S    
O24   Zn5   S    
O16   Zn6   S    
C86   C95   A    
C90   C105  S    
C44   H74   S    
C7    C13   S    
C20   C21   S    
C27   H34   S    
C10   F20   S    
C75   C101  A    
C35   F22   S    
C73   C77   A    
C35   C63   S    
C75   C79   A    
C64   H2    S    
C52   H93   S    
C53   H96   S    
C32   H48   S    
C30   H42   S    
O42   Zn3   S    
C57   C66   S    
C143  F12   S    
C53   C54   S    
C38   H59   S    
C144  F23   S    
C35   C58   D    
C64   C68   D    
C142  F1    S    
C131  O3    A    
C90   O19   A    
C79   C84   A    
C123  F13   S    
C65   C69   D    
C58   C129  S    
C19   H17   S    
C91   C116  S    
C22   H22   S    
C118  C122  D    
O23   Zn6   S    
C116  C144  A    
C85   C93   A    
C14   C105  A    
C108  H57   S    
O58   Zn4   S    
C78   O47   S    
C137  O31   A    
C110  C114  D    
C47   H81   S    
C36   H55   S    
C31   H44   S    
C99   C139  S    
C17   H10   S    
C34   H51   S    
C126  O58   A    
C85   H1    S    
O3    Zn12  S    
C148  F16   S    
O26   Zn7   S    
C95   F33   S    
C68   H7    S    
C25   C26   S    
O28   Zn9   S    
C14   O50   S    
O29   Zn10  S    
C69   C72   S    
C2    C4    S    
C5    C9    A    
C106  N8    A    
C39   H62   S    
C45   H77   S    
C31   C32   S    
C8    C12   A    
C6    C24   S    
O36   Zn8   S    
C17   C18   S    
C110  H79   S    
C104  N4    A    
C102  N5    A    
O9    Zn8   S    
C3    C145  A    
C30   O49   S    
C121  F10   S    
C2    N1    A    
C74   C78   A    
C84   C104  S    
C112  F2    S    
C2    N13   A    
O17   Zn7   S    
C92   C127  S    
C33   H49   S    
C3    F17   S    
C45   H76   S    
C49   H84   S    
C131  O7    A    
C54   C55   S    
C83   O13   A    
C107  C111  D    
C108  C117  S    
C76   C80   A    
C110  C119  S    
C91   O16   A    
C23   H26   S    
C47   H80   S    
C19   H15   S    
C51   H91   S    
C102  N2    A    
C88   C97   A    
C20   H18   S    
C147  F15   S    
C61   O10   A    
C42   H71   S    
C54   H97   S    
O7    Zn2   S    
C96   C100  A    
C1    C67   S    
C83   O34   A    
C34   C36   S    
C82   C106  S    
O33   Zn6   S    
C16   C127  A    
C87   H24   S    
O19   Zn9   S    
C50   H87   S    
C135  O29   A    
C133  O22   A    
C20   O46   S    
O60   Zn3   S    
C130  O2    A    
C72   O11   A    
C43   H72   S    
C119  F8    S    
C5    C147  A    
C29   H40   S    
C41   C42   S    
C141  O39   A    
C136  O26   A    
C67   H6    S    
C52   H92   S    
C113  C128  S    
C146  F14   S    
C79   O48   S    
N4    N8    A    
C28   C29   S    
C3    C7    A    
N10   N11   A    
C23   O47   S    
C126  O42   A    
C60   C131  S    
C26   H32   S    
C18   C19   S    
C43   O53   S    
O2    Zn4   S    
C41   H66   S    
C18   H14   S    
C122  F11   S    
C121  C134  S    
C144  C148  A    
C49   H86   S    
C104  N7    A    
C65   H4    S    
C139  O37   A    
C134  O28   A    
O21   Zn11  S    
C12   C94   A    
C103  N16   A    
C132  O8    A    
C138  N9    A    
C69   H8    S    
O5    Zn4   S    
C36   H54   S    
C13   N11   A    
O20   Zn10  S    
N2    N6    A    
C98   C137  S    
O39   Zn11  S    
C27   O48   S    
C55   H100  S    
C24   N15   A    
C51   H89   S    
C37   H56   S    
C42   H69   S    
C125  O41   A    
C108  C112  D    
C25   H28   S    
C7    C11   A    
C9    C14   A    
C80   C85   A    
C11   C16   A    
C77   C81   A    
C33   O50   S    
C50   C51   S    
C70   C83   S    
C47   O54   S    
C39   H63   S    
C48   C49   S    
C27   H33   S    
C120  F9    S    
O22   Zn1   S    
O12   Zn5   S    
C44   C45   S    
C52   H94   S    
C29   H39   S    
C1    O9    A    
C32   H45   S    
C96   F34   S    
C61   O12   A    
C6    C10   A    
O11   Zn10  S    
C38   H60   S    
C56   F25   S    
C26   H30   S    
C62   O57   S    
C73   F28   S    
C140  O38   A    
C38   C39   S    
C74   F29   S    
C23   H27   S    
C114  C126  S    
O30   Zn11  S    
C13   N14   A    
O15   Zn5   S    
C71   F27   S    
C22   H23   S    
C122  C135  S    
C16   O52   S    
C86   H13   S    
C57   F26   S    
C56   C60   D    
C92   O17   A    
C132  O4    A    
C107  H46   S    
C117  F6    S    
C15   C116  A    
O59   Zn3   S    
C109  H68   S    
C31   H43   S    
C46   C59   D    
C61   C68   S    
C4    C8    A    
C34   H52   S    
C57   C62   D    
O13   Zn11  S    
C59   C130  S    
C143  C147  A    
C10   C15   A    
C12   O49   S    
C56   C65   S    
C22   H25   S    
C21   H21   S    
C75   F30   S    
C117  C121  D    
C100  C140  S    
C39   H61   S    
C101  C141  S    
O4    Zn2   S    
O32   Zn5   S    
C141  O35   A    
O34   Zn7   S    
C48   H82   S    
C89   O14   A    
C109  C113  D    
C32   H47   S    
O40   Zn12  S    
O27   Zn8   S    
C30   H41   S    
C1    O1    A    
C40   H64   S    
O1    Zn1   S    
C128  O59   A    
C139  O32   A    
C71   C98   A    
C63   C67   D    
C9    F19   S    
C138  N12   A    
C59   O54   S    
C124  O45   A    
C28   H37   S    
C103  N6    A    
C72   O23   A    
C46   C64   S    
O45   Zn2   S    
C125  O56   A    
C6    C148  A    
O25   Zn6   S    
C63   H90   S    
C47   C48   S    
C30   C31   S    
C4    C146  A    
C87   C96   A    
C134  O24   A    
C33   C34   S    
C118  F7    S    
C107  C115  S    
C8    F18   S    
C40   C41   S    
C50   H88   S    
C55   H3    S    
N3    N7    A    
C17   H11   S    
O37   Zn9   S    
O41   Zn2   S    
C43   H73   S    
C73   C99   A    
C37   H58   S    
N5    N16   A    
C145  F31   S    
C53   O57   S    
C137  O36   A    
C105  C143  A    
O31   Zn1   S    
C123  C136  S    
O14   Zn1   S    
C106  N3    A    
C44   H75   S    
C40   H65   S    
C129  O60   A    
C45   H78   S    
O6    Zn3   S    
C111  F36   S    
C23   C25   S    
C89   O18   A    
C77   O46   S    
C90   O15   A    
O18   Zn8   S    
O10   Zn9   S    
C21   H20   S    
C115  C120  D    
N1    N9    A    
C27   C28   S    
C93   C98   A    
C97   C101  A    
C33   H50   S    
C49   H85   S    
