data_mof_unit_54331.cif
_audit_creation_date              2012-12-11T17:01:25-0500
_audit_creation_method            fapswitch 2.2
_symmetry_space_group_name_H-M    P1
_symmetry_Int_Tables_number       1
_space_group_crystal_system       triclinic
_cell_length_a                    19.420752
_cell_length_b                    7.097618
_cell_length_c                    17.714598
_cell_angle_alpha                 90.315719
_cell_angle_beta                  108.860586
_cell_angle_gamma                 89.948081
_cell_volume                      2310.658045

loop_
_atom_site_label
_atom_site_type_symbol
_atom_type_description
_atom_site_fract_x
_atom_site_fract_y
_atom_site_fract_z
_atom_type_partial_charge
O1    O     O_R   0.413720 0.494330 0.415730 -0.548631
O2    O     O_R   0.586280 0.994330 0.584270 -0.537330
O3    O     O_R   0.560210 0.819300 0.430070 -0.506805
O4    O     O_R   0.439790 0.319300 0.569930 -0.517795
C1    C     C_R   0.582214 0.654904 0.415583 0.782479
C2    C     C_R   0.417583 0.155740 0.584410 0.751346
O5    O     O_R   0.412670 0.823730 0.406310 -0.545230
O6    O     O_R   0.587330 0.323730 0.593690 -0.551411
O7    O     O_R   0.437690 0.998790 0.560340 -0.542599
O8    O     O_R   0.562310 0.498790 0.439660 -0.544739
C3    C     C_R   0.385648 0.654708 0.383263 0.714905
C4    C     C_R   0.615066 0.155646 0.615987 0.744935
O9    O     O_3   0.508380 0.662350 0.550560 -0.376549
O10   O     O_3   0.491620 0.162350 0.449440 -0.372044
V1    V     V_3+5 0.498450 0.935370 0.490620 1.515240
V2    V     V_3+5 0.501550 0.435370 0.509380 1.484144
C5    C     C_R   0.732322 0.994135 0.691839 0.089356
C6    C     C_R   0.271635 0.488788 0.302154 -0.030451
C7    C     C_R   0.684789 0.147813 0.682918 -0.250132
C8    C     C_R   0.319228 0.641794 0.312571 -0.120095
C9    C     C_R   0.701385 0.284076 0.744270 -0.132552
C10   C     C_R   0.303863 0.775599 0.250915 -0.142490
H1    H     H_    0.663450 0.397670 0.741830 0.161833
H2    H     H_    0.341698 0.889942 0.254336 0.158039
C11   C     C_R   0.762450 0.264790 0.813471 0.447603
C12   C     C_R   0.240268 0.763067 0.183622 0.382642
C13   C     C_R   0.813204 0.117902 0.819039 -0.230656
C14   C     C_R   0.187507 0.619292 0.179530 -0.130761
C15   C     C_R   0.793440 0.975874 0.760902 0.011142
C16   C     C_R   0.207260 0.479090 0.238184 0.017431
C17   C     C_3   0.768388 0.781770 0.773254 0.374002
C18   C     C_3   0.166483 0.396471 0.288913 0.395786
C19   C     C_3   0.710954 0.793026 0.692139 0.197222
C20   C     C_3   0.237679 0.404083 0.358807 0.167675
H3    H     H_    0.654205 0.769290 0.691899 0.079236
H4    H     H_    0.260492 0.263541 0.381509 0.057998
C21   C     C_R   0.310598 0.011634 0.616298 0.263448
C22   C     C_R   0.684211 0.498965 0.378045 0.268583
C23   C     C_R   0.366913 0.148722 0.632349 -0.213181
C24   C     C_R   0.632008 0.645542 0.367020 -0.203458
C25   C     C_R   0.374322 0.282328 0.693963 0.282939
C26   C     C_R   0.627879 0.786267 0.309746 0.277194
C27   C     C_R   0.328820 0.272475 0.742467 0.023065
C28   C     C_R   0.673517 0.777307 0.261775 0.026313
C29   C     C_R   0.273703 0.133570 0.727171 -0.015366
C30   C     C_R   0.724931 0.630215 0.272196 -0.010440
C31   C     C_R   0.265487 0.002445 0.664778 0.025141
C32   C     C_R   0.728971 0.489725 0.329282 0.021324
C33   C     C_R   0.338752 0.394990 0.807656 -0.158023
C34   C     C_R   0.667280 0.910217 0.201909 -0.162938
C35   C     C_R   0.294024 0.385224 0.854913 -0.113500
C36   C     C_R   0.714317 0.907537 0.157638 -0.106604
C37   C     C_R   0.237479 0.252248 0.839414 0.086647
C38   C     C_R   0.769480 0.770844 0.170567 0.080835
C39   C     C_R   0.226671 0.125796 0.774460 -0.026070
C40   C     C_R   0.773131 0.625686 0.226278 -0.027724
C41   C     C_R   0.169555 0.991104 0.757032 0.007151
C42   C     C_R   0.825973 0.480506 0.238213 0.005544
C43   C     C_R   0.165042 0.853698 0.696885 0.208749
C44   C     C_R   0.827259 0.336365 0.294441 0.216425
C45   C     C_R   0.211947 0.862456 0.651607 -0.161233
C46   C     C_R   0.779333 0.343395 0.338482 -0.172319
C47   C     C_R   0.192814 0.241063 0.888399 0.085645
C48   C     C_R   0.820321 0.777826 0.128879 0.129776
C49   C     C_R   0.131207 0.121382 0.866419 -0.212853
C50   C     C_R   0.871383 0.628782 0.137359 -0.214555
C51   C     C_R   0.118209 0.001570 0.798584 0.340466
C52   C     C_R   0.876326 0.486823 0.195380 0.347178
H5    H     H_    0.381939 0.498503 0.824136 0.143802
H6    H     H_    0.625747 0.018098 0.187946 0.144263
H7    H     H_    0.304241 0.486103 0.903100 0.161509
H8    H     H_    0.705395 0.014537 0.112572 0.163779
H9    H     H_    0.206687 0.755827 0.606099 0.207428
H10   H     H_    0.782161 0.232207 0.381012 0.200993
O11   O     O_R   0.937800 0.775460 0.060470 -0.515670
O12   O     O_R   0.062200 0.275460 0.939530 -0.520934
O13   O     O_R   0.087350 0.441340 0.093710 -0.525461
O14   O     O_R   0.912650 0.941340 0.906290 -0.541172
C53   C     C_R   0.115613 0.610336 0.115301 0.741276
C54   C     C_R   0.884011 0.109224 0.885102 0.721066
O15   O     O_R   0.939820 0.446010 0.069950 -0.528475
O16   O     O_R   0.060180 0.946010 0.930050 -0.539829
O17   O     O_R   0.913690 0.271230 0.915700 -0.538764
O18   O     O_R   0.086310 0.771230 0.084300 -0.531575
C55   C     C_R   0.918927 0.616030 0.085455 0.756579
C56   C     C_R   0.082052 0.114085 0.915994 0.738379
O19   O     O_3   0.991670 0.603050 0.949510 -0.380917
O20   O     O_3   0.008330 0.103050 0.050490 -0.345814
V3    V     V_3+5 0.001550 0.329940 0.009370 1.586382
V4    V     V_3+5 0.998450 0.829940 0.990630 1.568744
I1    I     I_    0.223754 0.387917 0.000913 -0.401144
I2    I     I_    0.822559 0.029829 0.061612 -0.325744
O21   O     O_3   0.054105 0.901129 0.769736 -0.598554
H11   H     H_    0.014725 0.970393 0.782086 0.298345
O22   O     O_3   0.932794 0.359488 0.213857 -0.593071
H12   H     H_    0.977422 0.426269 0.213473 0.319946
I3    I     I_    0.097251 0.609138 0.673692 -0.256284
I4    I     I_    0.896602 0.094548 0.321169 -0.256554
O23   O     O_3   0.766479 0.380309 0.877255 -0.618775
H13   H     H_    0.794444 0.317194 0.927384 0.311924
O24   O     O_3   0.232133 0.894704 0.124400 -0.618575
H14   H     H_    0.203013 0.837942 0.072838 0.302519
I5    I     I_    0.717537 0.779453 0.865891 -0.386533
I6    I     I_    0.126892 0.116830 0.253388 -0.263514
O25   O     O_3   0.821160 0.643551 0.778075 -0.594322
H15   H     H_    0.851610 0.638506 0.834909 0.333420
O26   O     O_3   0.113105 0.520343 0.297357 -0.609353
H16   H     H_    0.092836 0.460171 0.335984 0.342667
O27   O     O_3   0.728874 0.692370 0.632721 -0.602562
H17   H     H_    0.708139 0.564575 0.631785 0.301235
O28   O     O_3   0.235120 0.531524 0.418718 -0.591562
H18   H     H_    0.281291 0.514541 0.463249 0.303209
O29   O     O_3   0.296827 0.888381 0.552400 -0.627399
H19   H     H_    0.307427 0.952936 0.507986 0.296743
O30   O     O_3   0.694572 0.366832 0.437698 -0.633010
H20   H     H_    0.689917 0.430980 0.485595 0.304885
O31   O     O_3   0.428166 0.417267 0.707283 -0.624462
H21   H     H_    0.407097 0.539874 0.715364 0.295306
O32   O     O_3   0.577470 0.929003 0.300246 -0.626493
H22   H     H_    0.602571 0.049926 0.299075 0.301222

loop_
_geom_bond_atom_site_label_1
_geom_bond_atom_site_label_2
_ccdc_geom_bond_type
C50   C52   A    
C47   C49   A    
O21   H11   S    
C13   C15   A    
O31   H21   S    
C5    C15   A    
C37   C39   A    
O22   H12   S    
O1    C3    A    
O2    C4    A    
C2    O7    A    
C49   C56   S    
C23   C25   A    
O14   V4    S    
O5    C3    A    
O13   V3    S    
O24   H14   S    
C5    C19   S    
C7    C9    A    
C44   I4    S    
C12   O24   S    
C53   O18   A    
O14   C54   A    
C26   O32   S    
C41   C43   A    
C21   O29   S    
C42   C44   A    
O30   H20   S    
C6    C8    A    
C44   C46   A    
C29   C31   A    
C14   C53   S    
O11   V4    S    
C19   H3    S    
C11   O23   S    
O28   H18   S    
C36   C38   A    
C49   C51   A    
C18   O26   S    
C34   C36   A    
O26   H16   S    
C18   I6    S    
C6    C16   A    
C21   C31   A    
C25   C27   A    
C22   C32   A    
O12   V3    S    
O15   V3    S    
C24   C26   A    
O6    V2    S    
C22   C24   A    
C33   H5    S    
C20   O28   S    
C17   O25   S    
O18   V4    S    
C41   C51   A    
C54   O17   A    
C28   C30   A    
C30   C32   A    
O13   C53   A    
O17   V3    S    
C50   C55   S    
C38   C40   A    
C3    C8    S    
C43   C45   A    
C52   O22   S    
O4    C2    A    
C13   C54   S    
C27   C33   A    
O5    V1    S    
C45   H9    S    
O16   C56   A    
C33   C35   A    
C35   C37   A    
C17   I5    S    
O4    V2    S    
C36   H8    S    
C6    C20   S    
C32   C46   A    
O23   H13   S    
O6    C4    A    
C17   C19   S    
O1    V2    S    
O2    V1    S    
C27   C29   A    
C48   C50   A    
C42   C52   A    
O20   V4    S    
C9    H1    S    
C43   I3    S    
C10   H2    S    
O9    V2    S    
C19   O27   S    
C48   I2    S    
C47   I1    S    
O12   C56   A    
O3    V1    S    
O11   C55   A    
O29   H19   S    
C28   C34   A    
C9    C11   A    
O10   V1    S    
C8    C10   A    
O3    C1    A    
C31   C45   A    
O32   H22   S    
C35   H7    S    
C11   C13   A    
O25   H15   S    
C12   C14   A    
O16   V4    S    
C39   C41   A    
C34   H6    S    
C26   C28   A    
C1    O8    A    
C21   C23   A    
O8    V2    S    
O27   H17   S    
C16   C18   S    
C22   O30   S    
C37   C47   A    
C38   C48   A    
C4    C7    S    
C14   C16   A    
C5    C7    A    
C40   C42   A    
C20   H4    S    
O7    V1    S    
O20   V3    S    
C29   C39   A    
C15   C17   S    
C10   C12   A    
O19   V4    S    
C30   C40   A    
C51   O21   S    
O19   V3    S    
C2    C23   S    
C46   H10   S    
C25   O31   S    
C1    C24   S    
O15   C55   A    
C18   C20   S    
