data_mof_unit_16995.cif
_audit_creation_date              2012-12-10T18:12:29-0500
_audit_creation_method            fapswitch 2.2
_symmetry_space_group_name_H-M    P1
_symmetry_Int_Tables_number       1
_space_group_crystal_system       triclinic
_cell_length_a                    9.589328
_cell_length_b                    11.014949
_cell_length_c                    17.216906
_cell_angle_alpha                 88.914098
_cell_angle_beta                  82.879935
_cell_angle_gamma                 89.28395
_cell_volume                      1804.11013522

loop_
_atom_site_label
_atom_site_type_symbol
_atom_type_description
_atom_site_fract_x
_atom_site_fract_y
_atom_site_fract_z
_atom_type_partial_charge
C1    C     C_R   0.501236 0.738351 0.494168 0.856160
C2    C     C_R   0.356849 0.524530 0.789831 0.137480
C3    C     C_R   0.453345 0.583461 0.145597 -0.186523
C4    C     C_R   0.438863 0.576086 0.226856 -0.131319
C5    C     C_R   0.659907 0.464613 0.220722 -0.233836
C6    C     C_R   0.673827 0.471244 0.139250 -0.125953
C7    C     C_R   0.568666 0.527795 0.101754 0.137804
C8    C     C_2   0.477360 0.451688 0.984846 0.197211
C9    C     C_2   0.571385 0.518315 0.017059 -0.216602
C10   C     C_R   0.540723 0.514630 0.264820 -0.010860
C11   C     C_3   0.363362 0.925389 0.463445 -0.006629
C12   C     C_R   0.478481 0.491596 0.650501 0.820493
C13   C     C_3   0.354389 0.064742 0.477893 -0.070466
C14   C     C_3   0.532738 0.922230 0.570358 0.377389
C15   C     C_3   0.624652 0.922350 0.427781 0.288127
C16   C     C_3   0.503478 0.874646 0.488376 -0.186499
C17   C     C_3   0.503713 0.117612 0.493709 -0.079072
C18   C     C_3   0.527179 0.062395 0.574535 -0.497100
C19   C     C_3   0.630940 0.066656 0.429984 0.214077
C20   C     C_3   0.921844 0.377511 0.487410 0.353512
C21   C     C_3   0.082458 0.373638 0.500155 0.256321
C22   C     C_3   0.936134 0.588541 0.438118 0.614684
C23   C     C_R   0.501119 0.258784 0.498311 0.760548
C24   C     C_3   0.899581 0.540753 0.574392 -0.367656
C25   C     C_3   0.100229 0.559491 0.428353 1.082153
C26   C     C_3   0.065824 0.557476 0.569032 0.494690
C27   C     C_R   0.521928 0.503596 0.350106 0.775237
C28   C     C_R   0.465604 0.469906 0.737016 -0.166047
C29   C     C_R   0.570322 0.397357 0.769309 -0.002022
C30   C     C_R   0.580689 0.402382 0.849820 0.602731
C31   C     C_R   0.476755 0.460160 0.899829 -0.031692
C32   C     C_R   0.364700 0.517784 0.870343 -0.295864
Cu1   Cu    Cu3+1 0.357600 0.500140 0.499960 1.055576
Cu2   Cu    Cu3+1 0.642400 0.499860 0.500040 0.964714
H1    H     H_    0.762814 0.427575 0.105560 0.151618
H2    H     H_    0.278672 0.877585 0.499925 0.268056
H3    H     H_    0.328542 0.109536 0.423809 0.164241
H4    H     H_    0.444183 0.090750 0.621416 0.224005
H5    H     H_    0.720571 0.878350 0.446199 0.183490
H6    H     H_    0.347684 0.617407 0.259968 0.184959
H7    H     H_    0.639350 0.891289 0.581775 0.115657
H8    H     H_    0.624360 0.097387 0.594177 0.138617
H9    H     H_    0.866883 0.316555 0.532606 0.146351
H10   H     H_    0.142116 0.318187 0.453909 0.190960
H11   H     H_    0.844184 0.626621 0.593054 0.260197
H12   H     H_    0.738573 0.415419 0.248959 0.162318
H13   H     H_    0.866094 0.473836 0.622028 0.135808
H14   H     H_    0.099385 0.516838 0.622214 0.147635
H15   H     H_    0.650413 0.569806 0.979910 0.153114
H16   H     H_    0.282821 0.558494 0.911106 0.158240
H17   H     H_    0.371898 0.627863 0.116712 0.136686
N1    N     N_3   0.856560 0.499750 0.498270 -0.282424
N2    N     N_3   0.143860 0.496700 0.498910 -0.296077
O1    O     O_R   0.379740 0.682430 0.499960 -0.497221
O2    O     O_R   0.620260 0.682190 0.500020 -0.572999
O3    O     O_R   0.365800 0.500150 0.613560 -0.568155
O4    O     O_R   0.606310 0.499910 0.613620 -0.603495
O5    O     O_R   0.379740 0.317810 0.499980 -0.580979
O6    O     O_R   0.620260 0.317570 0.500040 -0.589580
O7    O     O_R   0.393690 0.500090 0.386380 -0.518610
O8    O     O_R   0.634200 0.499850 0.386440 -0.605191
C33   C     C_3   0.666260 0.306752 0.722002 -0.354697
C34   C     C_3   0.638430 0.176025 0.751336 -0.781875
H18   H     H_    0.659017 0.162613 0.812831 0.301026
H19   H     H_    0.527669 0.151768 0.746898 0.241163
H20   H     H_    0.709322 0.112906 0.715217 0.230763
H21   H     H_    0.651630 0.306663 0.659398 0.203889
H22   H     H_    0.777720 0.329274 0.725994 0.234825
C35   C     C_3   0.342595 0.890141 0.378030 -0.305606
C36   C     C_3   0.197428 0.917828 0.356228 -0.859552
H23   H     H_    0.185258 0.872021 0.300671 0.255326
H24   H     H_    0.116290 0.884960 0.403088 0.332138
H25   H     H_    0.186079 0.016652 0.345218 0.233326
H26   H     H_    0.414873 0.936895 0.333745 0.264186
H27   H     H_    0.365375 0.792245 0.368969 0.270592
C37   C     C_3   0.226315 0.099546 0.540661 -0.332306
C38   C     C_3   0.146579 0.004853 0.595227 -0.783252
H28   H     H_    0.083455 0.944644 0.562394 0.278200
H29   H     H_    0.217322 0.951232 0.628561 0.315837
H30   H     H_    0.070545 0.052640 0.638514 0.249561
H31   H     H_    0.257887 0.169271 0.579953 0.282793
H32   H     H_    0.144488 0.137948 0.507802 0.230616
F1    F     F_    0.441414 0.872935 0.630332 -0.707729
F2    F     F_    0.626801 0.876809 0.353275 -0.716073
C39   C     C_3   0.638368 0.133142 0.346518 -0.268089
C40   C     C_3   0.508028 0.184635 0.313429 -0.897365
H33   H     H_    0.435559 0.115502 0.297930 0.254246
H34   H     H_    0.451450 0.252637 0.352151 0.251232
H35   H     H_    0.543297 0.233043 0.257451 0.246723
H36   H     H_    0.703597 0.215572 0.348302 0.239064
H37   H     H_    0.695760 0.074875 0.300958 0.251205
C41   C     C_3   0.778793 0.086122 0.458455 -0.459681
C42   C     C_3   0.906254 0.063212 0.397722 -0.780374
H38   H     H_    0.902352 0.972327 0.371788 0.266276
H39   H     H_    0.917335 0.132347 0.349870 0.282558
H40   H     H_    0.000130 0.069593 0.428268 0.245312
H41   H     H_    0.786682 0.175876 0.478625 0.277850
H42   H     H_    0.795000 0.028363 0.510213 0.175980
F3    F     F_    0.906949 0.336793 0.413463 -0.710771
F4    F     F_    0.092056 0.319197 0.572558 -0.746581
C43   C     C_3   0.883880 0.599145 0.356374 -0.253532
C44   C     C_3   0.969909 0.681444 0.296035 -0.800374
H43   H     H_    0.971392 0.774749 0.318569 0.277580
H44   H     H_    0.078602 0.647948 0.279555 0.286900
H45   H     H_    0.918354 0.685864 0.241695 0.233188
H46   H     H_    0.877264 0.508865 0.330172 0.241207
H47   H     H_    0.782381 0.648835 0.363970 0.262772
F5    F     F_    0.136172 0.487461 0.363177 -0.712448
F6    F     F_    0.098813 0.679588 0.569546 -0.631834
F7    F     F_    0.917690 0.706636 0.465919 -0.658446
F8    F     F_    0.172930 0.665953 0.415121 -0.636154
C45   C     C_3   0.223920 0.580365 0.765734 -0.426149
C46   C     C_3   0.246441 0.705250 0.727174 -0.644071
H48   H     H_    0.301831 0.765012 0.764343 0.257244
H49   H     H_    0.307598 0.697969 0.668831 0.319673
H50   H     H_    0.143120 0.747384 0.719511 0.245371
H51   H     H_    0.177505 0.515703 0.728895 0.214715
H52   H     H_    0.142876 0.591688 0.817279 0.197883
C47   C     C_3   0.369374 0.370105 0.031748 -0.393373
C48   C     C_3   0.388254 0.238345 0.006110 -0.763208
H53   H     H_    0.369756 0.229598 0.944042 0.250798
H54   H     H_    0.496162 0.205574 0.012988 0.271117
H55   H     H_    0.311547 0.180325 0.042983 0.232912
H56   H     H_    0.376196 0.371129 0.095514 0.222451
H57   H     H_    0.262039 0.402058 0.022944 0.193785
F9    F     F_    0.689191 0.346319 0.880435 -0.686728

loop_
_geom_bond_atom_site_label_1
_geom_bond_atom_site_label_2
_ccdc_geom_bond_type
C10   C27   S    
C24   N1    S    
C23   O5    A    
C45   H52   S    
C34   H19   S    
C43   H47   S    
C42   H38   S    
C14   C18   S    
C30   F9    S    
C39   H37   S    
C41   H42   S    
C47   H56   S    
C15   C19   S    
C2    C45   S    
Cu1   O5    S    
C22   C43   S    
C33   H21   S    
C12   C28   S    
C24   H11   S    
C28   C29   A    
C24   C26   S    
C15   F2    S    
C3    C7    A    
C27   O7    A    
C18   H8    S    
C45   H51   S    
C40   H34   S    
C15   C16   S    
C43   H46   S    
C6    H1    S    
C44   H45   S    
C2    C32   A    
C19   C41   S    
C27   O8    A    
C4    H6    S    
C8    C9    D    
C22   F7    S    
C22   C25   S    
Cu2   O4    S    
C36   H23   S    
C13   H3    S    
C48   H55   S    
C26   H14   S    
C46   H50   S    
Cu1   O3    S    
C34   H20   S    
Cu2   O2    S    
C42   H39   S    
C8    C31   S    
C35   C36   S    
C14   F1    S    
C36   H25   S    
C45   C46   S    
C48   H54   S    
C41   H41   S    
C17   C18   S    
C38   H29   S    
Cu1   N2    S    
C43   C44   S    
C9    H15   S    
C37   C38   S    
C37   H32   S    
C21   F4    S    
C3    H17   S    
C40   H33   S    
C39   C40   S    
Cu2   O8    S    
C23   O6    A    
C1    O1    A    
C29   C30   A    
C21   H10   S    
C11   C16   S    
C31   C32   A    
C13   C37   S    
C30   C31   A    
C47   C48   S    
C32   H16   S    
C33   C34   S    
Cu1   Cu2   S    
C35   H26   S    
C1    C16   S    
C17   C23   S    
C44   H44   S    
C26   F6    S    
C15   H5    S    
C12   O3    A    
C14   H7    S    
C12   O4    A    
C47   H57   S    
Cu1   O7    S    
Cu2   O6    S    
C14   C16   S    
C4    C10   A    
C3    C4    A    
C26   N2    S    
C20   H9    S    
C48   H53   S    
C22   N1    S    
C46   H48   S    
C38   H30   S    
Cu1   O1    S    
C7    C9    S    
C29   C33   S    
C11   H2    S    
C24   H13   S    
C25   N2    S    
C19   C39   S    
C40   H35   S    
C37   H31   S    
C36   H24   S    
C39   H36   S    
C11   C35   S    
C6    C7    A    
C13   C17   S    
C42   H40   S    
C5    H12   S    
Cu2   N1    S    
C33   H22   S    
C18   H4    S    
C5    C10   A    
C20   N1    S    
C21   N2    S    
C11   C13   S    
C5    C6    A    
C20   F3    S    
C41   C42   S    
C17   C19   S    
C35   H27   S    
C1    O2    A    
C44   H43   S    
C25   F8    S    
C34   H18   S    
C20   C21   S    
C8    C47   S    
C38   H28   S    
C2    C28   A    
C25   F5    S    
C46   H49   S    
