data_mof_unit_61729.cif
_audit_creation_date              2012-12-11T17:30:26-0500
_audit_creation_method            fapswitch 2.2
_symmetry_space_group_name_H-M    P1
_symmetry_Int_Tables_number       1
_space_group_crystal_system       triclinic
_cell_length_a                    26.235346
_cell_length_b                    7.254982
_cell_length_c                    23.853375
_cell_angle_alpha                 90.000092
_cell_angle_beta                  100.958403
_cell_angle_gamma                 89.999944
_cell_volume                      4457.39084786

loop_
_atom_site_label
_atom_site_type_symbol
_atom_type_description
_atom_site_fract_x
_atom_site_fract_y
_atom_site_fract_z
_atom_type_partial_charge
O1    O     O_R   0.192950 0.385540 0.693930 -0.534145
O2    O     O_R   0.807050 0.614460 0.306070 -0.534145
O3    O     O_R   0.307050 0.885540 0.806070 -0.534145
O4    O     O_R   0.692950 0.114460 0.193930 -0.534145
O5    O     O_R   0.296670 0.712560 0.696510 -0.515703
O6    O     O_R   0.703330 0.287440 0.303490 -0.515703
O7    O     O_R   0.203330 0.212560 0.803490 -0.515701
O8    O     O_R   0.796670 0.787440 0.196510 -0.515701
C1    C     C_R   0.311757 0.546894 0.683244 0.718707
C2    C     C_R   0.688243 0.453106 0.316756 0.718707
C3    C     C_R   0.188243 0.046894 0.816756 0.718708
C4    C     C_R   0.811757 0.953105 0.183244 0.718708
O9    O     O_R   0.192700 0.715080 0.687210 -0.531810
O10   O     O_R   0.807300 0.284920 0.312790 -0.531810
O11   O     O_R   0.307300 0.215080 0.812790 -0.531811
O12   O     O_R   0.692700 0.784920 0.187210 -0.531811
O13   O     O_R   0.202340 0.888100 0.796700 -0.538370
O14   O     O_R   0.797660 0.111900 0.203300 -0.538369
O15   O     O_R   0.297660 0.388100 0.703300 -0.538370
O16   O     O_R   0.702340 0.611900 0.296700 -0.538370
C5    C     C_R   0.174447 0.546662 0.672061 0.716053
C6    C     C_R   0.825553 0.453338 0.327939 0.716053
C7    C     C_R   0.325553 0.046662 0.827939 0.716048
C8    C     C_R   0.674447 0.953338 0.172061 0.716048
O17   O     O_3   0.253290 0.552920 0.785930 -0.361642
O18   O     O_3   0.746710 0.447080 0.214070 -0.361642
O19   O     O_3   0.246710 0.052920 0.714070 -0.361643
O20   O     O_3   0.753290 0.947080 0.285930 -0.361643
V1    V     V_3+5 0.249390 0.826720 0.743330 1.517902
V2    V     V_3+5 0.750610 0.173280 0.256670 1.517901
V3    V     V_3+5 0.250610 0.326720 0.756670 1.517901
V4    V     V_3+5 0.749390 0.673280 0.243330 1.517901
H1    H     H_    0.456348 0.715437 0.957434 0.118243
H2    H     H_    0.543652 0.284563 0.042566 0.118243
H3    H     H_    0.043695 0.215434 0.542509 0.118251
H4    H     H_    0.956305 0.784566 0.457490 0.118251
C9    C     C_R   0.519615 0.826913 0.019036 -0.141751
C10   C     C_R   0.480385 0.173087 0.980964 -0.141751
C11   C     C_R   0.980409 0.326911 0.480933 -0.141755
C12   C     C_R   0.019590 0.673089 0.519067 -0.141755
H5    H     H_    0.534301 0.691924 0.033328 0.116869
H6    H     H_    0.465699 0.308076 0.966672 0.116869
H7    H     H_    0.965742 0.191921 0.466616 0.116862
H8    H     H_    0.034258 0.808079 0.533384 0.116862
C13   C     C_R   0.544829 0.986485 0.043580 0.132494
C14   C     C_R   0.455170 0.013515 0.956420 0.132494
C15   C     C_R   0.955170 0.486484 0.456420 0.132495
C16   C     C_R   0.044829 0.513516 0.543580 0.132495
C17   C     C_R   0.524858 0.159662 0.024216 -0.141521
C18   C     C_R   0.475142 0.840338 0.975784 -0.141521
C19   C     C_R   0.975117 0.659663 0.475816 -0.141515
C20   C     C_R   0.024882 0.340337 0.524184 -0.141515
C21   C     C_1   0.590816 0.972860 0.088629 -0.040709
C22   C     C_1   0.409184 0.027140 0.911371 -0.040710
C23   C     C_1   0.909184 0.472860 0.411371 -0.040707
C24   C     C_1   0.090816 0.527140 0.588629 -0.040707
C25   C     C_1   0.370947 0.037171 0.873549 -0.154070
C26   C     C_1   0.629053 0.962829 0.126451 -0.154070
C27   C     C_1   0.129053 0.537171 0.626451 -0.154067
C28   C     C_1   0.870947 0.462829 0.373549 -0.154067
C29   C     C_R   0.882323 0.114952 0.145050 -0.160871
C30   C     C_R   0.117677 0.885047 0.854949 -0.160871
C31   C     C_R   0.617673 0.614945 0.354945 -0.160879
C32   C     C_R   0.382327 0.385055 0.645055 -0.160879
H9    H     H_    0.880394 0.226736 0.174676 0.148783
H10   H     H_    0.119606 0.773264 0.825324 0.148783
H11   H     H_    0.619599 0.726721 0.325316 0.148769
H12   H     H_    0.380401 0.273279 0.674684 0.148769
C33   C     C_R   0.919146 0.125652 0.109666 -0.108637
C34   C     C_R   0.080854 0.874348 0.890334 -0.108638
C35   C     C_R   0.580850 0.625643 0.390330 -0.108641
C36   C     C_R   0.419150 0.374356 0.609670 -0.108641
H13   H     H_    0.944077 0.245632 0.112857 0.153641
H14   H     H_    0.055923 0.754368 0.887143 0.153641
H15   H     H_    0.555916 0.745616 0.387135 0.153638
H16   H     H_    0.444084 0.254384 0.612865 0.153638
C37   C     C_R   0.923993 0.983090 0.071142 -0.039356
C38   C     C_R   0.076007 0.016910 0.928857 -0.039356
C39   C     C_R   0.576007 0.483092 0.428858 -0.039355
C40   C     C_R   0.423993 0.516908 0.571142 -0.039355
C41   C     C_R   0.890485 0.830990 0.068356 -0.143459
C42   C     C_R   0.109515 0.169010 0.931644 -0.143459
C43   C     C_R   0.609520 0.331002 0.431648 -0.143457
C44   C     C_R   0.390480 0.668998 0.568352 -0.143457
H17   H     H_    0.892844 0.720306 0.038497 0.175598
H18   H     H_    0.107156 0.279694 0.961503 0.175598
H19   H     H_    0.607164 0.220324 0.461511 0.175598
H20   H     H_    0.392836 0.779676 0.538489 0.175598
C45   C     C_R   0.853301 0.819042 0.103382 0.258593
C46   C     C_R   0.146699 0.180958 0.896618 0.258592
C47   C     C_R   0.646704 0.319054 0.396622 0.258593
C48   C     C_R   0.353296 0.680946 0.603378 0.258593
C49   C     C_R   0.849168 0.961405 0.143186 -0.105075
C50   C     C_R   0.150832 0.038595 0.856814 -0.105075
C51   C     C_R   0.650832 0.461407 0.356814 -0.105069
C52   C     C_R   0.349168 0.538593 0.643185 -0.105069
N1    N     N_R   0.968641 0.852662 0.997317 -0.274715
N2    N     N_R   0.031359 0.147338 0.002683 -0.274715
N3    N     N_R   0.531367 0.352681 0.502692 -0.274716
N4    N     N_R   0.468633 0.647319 0.497307 -0.274716
N5    N     N_R   0.004168 0.860199 0.964135 -0.275941
N6    N     N_R   0.995832 0.139801 0.035865 -0.275941
N7    N     N_R   0.495840 0.360217 0.535874 -0.275944
N8    N     N_R   0.504160 0.639782 0.464125 -0.275944
C53   C     C_R   0.036375 0.007731 0.966064 0.541611
C54   C     C_R   0.963625 0.992269 0.033936 0.541611
C55   C     C_R   0.463625 0.507731 0.533936 0.541613
C56   C     C_R   0.536375 0.492269 0.466064 0.541613
Br1   Br    Br    0.808231 0.607730 0.091434 -0.530716
Br2   Br    Br    0.191769 0.392270 0.908566 -0.530716
Br3   Br    Br    0.691779 0.107758 0.408575 -0.530703
Br4   Br    Br    0.308221 0.892242 0.591425 -0.530703

loop_
_geom_bond_atom_site_label_1
_geom_bond_atom_site_label_2
_ccdc_geom_bond_type
O17   V3    S    
C43   H19   S    
O1    C5    A    
C45   Br1   S    
C34   C38   A    
O13   V1    S    
C33   C37   A    
N3    N7    A    
C48   C52   A    
C40   C44   A    
O15   V3    S    
C35   C39   A    
C10   C17   A    
O7    C3    A    
N3    C56   A    
C40   C55   S    
N2    C53   A    
C38   C53   S    
C32   H12   S    
C11   C15   A    
C37   C54   S    
C5    C27   S    
C6    C28   S    
O4    C8    A    
C29   C49   A    
O19   V1    S    
C29   C33   A    
C31   C51   A    
O1    V3    S    
C30   C34   A    
O2    V4    S    
C47   Br3   S    
O3    V1    S    
C12   C16   A    
C34   H14   S    
O3    C7    A    
C1    O15   A    
N4    N8    A    
C2    O16   A    
H2    C17   S    
O2    C6    A    
C33   H13   S    
O14   V2    S    
C37   C41   A    
C12   H8    S    
C16   C24   S    
C36   H16   S    
C41   C45   A    
O11   C7    A    
C11   C20   A    
C13   C21   S    
O12   C8    A    
C23   C28   T    
C9    H5    S    
O10   V2    S    
C46   C50   A    
O5    V1    S    
N5    C53   A    
C31   H11   S    
O7    V3    S    
C30   H10   S    
O8    V4    S    
C32   C52   A    
O18   V4    S    
C48   Br4   S    
C15   C19   A    
H1    C18   S    
C42   H18   S    
O4    V2    S    
O5    C1    A    
C38   C42   A    
C13   C17   A    
O8    C4    A    
C14   C22   S    
O9    C5    A    
C1    C52   S    
H4    C19   S    
N1    C54   A    
C3    C50   S    
O6    V2    S    
C31   C35   A    
C30   C50   A    
C4    C49   S    
C46   Br2   S    
C9    C13   A    
N8    C56   A    
C15   C23   S    
O16   V4    S    
O9    V1    S    
C7    C25   S    
C3    O13   A    
N4    C55   A    
C44   H20   S    
O6    C2    A    
C11   H7    S    
C21   C26   T    
O11   V3    S    
O12   V4    S    
C12   C19   A    
C43   C47   A    
C14   C18   A    
C42   C46   A    
C24   C27   T    
O10   C6    A    
O20   V2    S    
C36   C40   A    
N2    N6    A    
C35   H15   S    
C9    C18   A    
C2    C51   S    
C39   C56   S    
N6    C54   A    
C32   C36   A    
C45   C49   A    
C41   H17   S    
C10   C14   A    
C47   C51   A    
C39   C43   A    
C10   H6    S    
C29   H9    S    
C16   C20   A    
C8    C26   S    
C4    O14   A    
H3    C20   S    
N7    C55   A    
C44   C48   A    
N1    N5    A    
C22   C25   T    
