data_mof_unit_60602.cif
_audit_creation_date              2012-12-10T19:04:58-0500
_audit_creation_method            fapswitch 2.2
_symmetry_space_group_name_H-M    P1
_symmetry_Int_Tables_number       1
_space_group_crystal_system       triclinic
_cell_length_a                    13.060272
_cell_length_b                    13.638212
_cell_length_c                    15.763175
_cell_angle_alpha                 90.029937
_cell_angle_beta                  92.536921
_cell_angle_gamma                 85.693775
_cell_volume                      2797.03580566

loop_
_atom_site_label
_atom_site_type_symbol
_atom_type_description
_atom_site_fract_x
_atom_site_fract_y
_atom_site_fract_z
_atom_type_partial_charge
C1    C     C_R   0.481206 0.685097 0.499071 0.889802
C2    C     C_3   0.393137 0.535665 0.047103 -0.596728
C3    C     C_3   0.503075 0.501803 0.082832 0.105093
C4    C     C_3   0.527167 0.395167 0.049097 -0.016533
C5    C     C_3   0.537824 0.398285 0.952064 -0.456307
C6    C     C_1   0.503068 0.501105 0.174229 0.059765
C7    C     C_1   0.497843 0.500936 0.825864 0.018552
C8    C     C_1   0.497758 0.500399 0.750662 -0.155815
C9    C     C_1   0.534112 0.211871 0.501258 -0.159356
C10   C     C_2   0.548156 0.020206 0.501316 0.492704
C11   C     C_2   0.458744 0.979165 0.497488 -0.206756
C12   C     C_R   0.499220 0.499994 0.661952 0.892721
C13   C     C_1   0.458705 0.875506 0.497642 0.106504
C14   C     C_1   0.544100 0.124566 0.501421 -0.128941
C15   C     C_1   0.466482 0.788160 0.498183 -0.136490
C16   C     C_2   0.033327 0.472917 0.476131 -0.228095
C17   C     C_2   0.966668 0.527101 0.523834 -0.228713
C18   C     C_1   0.854670 0.519583 0.517208 0.176391
C19   C     C_1   0.145328 0.480424 0.482774 0.162560
C20   C     C_R   0.518834 0.314904 0.500850 0.910123
C21   C     C_R   0.500788 0.500040 0.338063 0.902080
C22   C     C_3   0.390305 0.533683 0.948597 0.315691
C23   C     C_3   0.574429 0.576672 0.951232 -0.583680
C24   C     C_3   0.581484 0.574031 0.050374 0.604148
C25   C     C_1   0.502338 0.500574 0.249396 -0.113873
C26   C     C_3   0.499343 0.501622 0.917267 0.134171
H1    H     H_    0.369080 0.610933 0.069171 0.203426
H2    H     H_    0.336063 0.487333 0.071734 0.215147
H3    H     H_    0.385701 0.023199 0.494458 0.119913
H4    H     H_    0.996133 0.578871 0.569433 0.173548
H5    H     H_    0.003863 0.421146 0.430531 0.175839
H6    H     H_    0.368089 0.609751 0.925376 0.156320
H7    H     H_    0.651399 0.560922 0.924482 0.206307
H8    H     H_    0.546906 0.651389 0.927869 0.190252
H9    H     H_    0.493960 0.339984 0.921370 0.188152
H10   H     H_    0.619615 0.382028 0.936567 0.209593
H11   H     H_    0.460941 0.351297 0.061969 0.152078
N1    N     N_1   0.234540 0.484780 0.486630 -0.087528
N2    N     N_1   0.765460 0.515220 0.513370 -0.084166
O1    O     O_R   0.402510 0.634760 0.495110 -0.613969
O2    O     O_R   0.572960 0.644530 0.503690 -0.585686
O3    O     O_R   0.414740 0.495110 0.618560 -0.600270
O4    O     O_R   0.585180 0.504880 0.627150 -0.612513
O5    O     O_R   0.427040 0.355470 0.496310 -0.607224
O6    O     O_R   0.597490 0.365240 0.504890 -0.607529
O7    O     O_R   0.414820 0.495120 0.372850 -0.615225
O8    O     O_R   0.585260 0.504890 0.381440 -0.588006
Zn1   Zn    Zn3+2 0.386190 0.493480 0.494270 0.996126
Zn2   Zn    Zn3+2 0.613810 0.506520 0.505730 1.016831
O9    O     O_3   0.315118 0.473593 0.915331 -0.732877
H12   H     H_    0.327794 0.407455 0.941502 0.344751
I1    I     I_    0.654514 0.309225 0.111878 -0.328321
O10   O     O_3   0.640635 0.963504 0.505178 -0.731405
H13   H     H_    0.696975 0.008496 0.507642 0.342932
I2    I     I_    0.550001 0.722279 0.097261 -0.308139
O11   O     O_3   0.682206 0.545817 0.081656 -0.700770
H14   H     H_    0.712725 0.493206 0.045178 0.353395

loop_
_geom_bond_atom_site_label_1
_geom_bond_atom_site_label_2
_ccdc_geom_bond_type
C2    C22   S    
C2    H2    S    
C9    C14   T    
C2    H1    S    
C1    C15   S    
C19   N1    T    
C24   O11   S    
C9    C20   S    
N1    Zn1   S    
C20   O6    A    
O6    Zn2   S    
C8    C12   S    
C23   H8    S    
C3    C6    S    
C17   C18   S    
C7    C8    T    
O8    Zn2   S    
O3    Zn1   S    
O10   H13   S    
C4    H11   S    
C24   I2    S    
C17   H4    S    
C11   C13   S    
C3    C24   S    
C16   C17   D    
C7    C26   S    
C22   H6    S    
C4    I1    S    
C16   C19   S    
C5    H9    S    
C1    O2    A    
N2    Zn2   S    
C2    C3    S    
C12   O4    A    
C13   C15   T    
C10   C14   S    
O7    Zn1   S    
C6    C25   T    
C10   C11   D    
C23   C24   S    
C5    C26   S    
C5    H10   S    
O5    Zn1   S    
C22   O9    S    
O11   H14   S    
C11   H3    S    
C23   H7    S    
C21   O7    A    
C22   C26   S    
C23   C26   S    
O2    Zn2   S    
O1    Zn1   S    
C18   N2    T    
C21   C25   S    
C10   O10   S    
C12   O3    A    
O9    H12   S    
C1    O1    A    
C20   O5    A    
O4    Zn2   S    
C3    C4    S    
C21   O8    A    
C4    C5    S    
C16   H5    S    
