data_mof_unit_65502.cif
_audit_creation_date              2012-12-10T18:15:26-0500
_audit_creation_method            fapswitch 2.2
_symmetry_space_group_name_H-M    P1
_symmetry_Int_Tables_number       1
_space_group_crystal_system       triclinic
_cell_length_a                    21.374609
_cell_length_b                    29.190898
_cell_length_c                    29.190628
_cell_angle_alpha                 90.012715
_cell_angle_beta                  89.977606
_cell_angle_gamma                 90.001383
_cell_volume                      18213.31626

loop_
_atom_site_label
_atom_site_type_symbol
_atom_type_description
_atom_site_fract_x
_atom_site_fract_y
_atom_site_fract_z
_atom_type_partial_charge
C1    C     C_R   0.999998 0.000001 0.086740 0.906347
C2    C     C_1   0.999976 0.999996 0.770576 0.003986
C3    C     C_3   0.310284 0.499759 0.499939 0.009333
C4    C     C_1   0.000007 0.000019 0.137408 -0.228355
C5    C     C_1   0.999993 0.999995 0.862592 -0.228498
C6    C     C_1   0.500006 0.500020 0.637408 -0.228400
C7    C     C_1   0.499994 0.499995 0.362592 -0.228454
C8    C     C_1   0.500023 0.500020 0.729424 0.003960
C9    C     C_1   0.499977 0.499996 0.270576 0.003968
C10   C     C_1   0.000030 0.000015 0.271620 0.003503
C11   C     C_1   0.999970 0.999995 0.728380 0.003533
C12   C     C_1   0.500030 0.500015 0.771620 0.003516
C13   C     C_1   0.499970 0.499995 0.228380 0.003520
C14   C     C_1   0.000034 0.000006 0.321441 0.001907
C15   C     C_1   0.999966 0.999993 0.678559 0.001934
C16   C     C_1   0.500034 0.500006 0.821441 0.001919
C17   C     C_R   0.000002 0.999992 0.913260 0.906435
C18   C     C_1   0.499966 0.499993 0.178559 0.001922
C19   C     C_1   0.000030 0.999998 0.363639 -0.203438
C20   C     C_1   0.999970 0.999992 0.636361 -0.203421
C21   C     C_1   0.500030 0.499998 0.863639 -0.203430
C22   C     C_1   0.499970 0.499992 0.136361 -0.203429
C23   C     C_R   0.500000 0.086703 0.000005 0.907745
C24   C     C_R   0.000000 0.586703 0.500005 0.907713
C25   C     C_R   0.377227 0.999411 0.000014 0.893019
C26   C     C_R   0.622772 0.999368 0.999992 0.892992
C27   C     C_R   0.877227 0.499411 0.500014 0.893018
C28   C     C_R   0.499998 0.500001 0.586740 0.906375
C29   C     C_R   0.122773 0.499387 0.499988 0.893003
C30   C     C_R   0.499999 0.913188 0.999995 0.904739
C31   C     C_R   1.000000 0.413187 0.499995 0.904776
C32   C     C_R   0.000001 0.085666 0.500000 0.879253
C33   C     C_R   0.500001 0.585666 0.000000 0.879253
C34   C     C_R   0.000011 0.999991 0.414310 0.879213
C35   C     C_R   0.999989 0.999991 0.585690 0.879219
C36   C     C_R   0.500011 0.499991 0.914310 0.879215
C37   C     C_R   0.499989 0.499991 0.085690 0.879216
C38   C     C_R   0.122810 0.999953 0.000057 0.893208
C39   C     C_R   0.500002 0.499991 0.413260 0.906404
C40   C     C_R   0.877189 0.999952 0.999993 0.893211
C41   C     C_R   0.622810 0.499953 0.500057 0.893208
C42   C     C_R   0.377189 0.499952 0.499961 0.893210
C43   C     C_R   0.999999 0.914302 0.500000 0.879327
C44   C     C_R   0.499999 0.414302 1.000000 0.879327
C45   C     C_1   0.500000 0.137375 0.000012 -0.229443
C46   C     C_1   1.000000 0.637375 0.500012 -0.229433
C47   C     C_1   0.499999 0.179575 0.000013 0.000165
C48   C     C_1   0.999999 0.679575 0.500014 0.000162
C49   C     C_1   0.499999 0.229400 0.000012 0.004165
C50   C     C_1   0.000015 0.000023 0.179604 -0.000148
C51   C     C_1   0.999999 0.729400 0.500012 0.004163
C52   C     C_1   0.999998 0.771599 0.500010 0.003631
C53   C     C_1   0.499998 0.271599 0.000010 0.003632
C54   C     C_1   0.999998 0.821425 0.500006 0.002080
C55   C     C_1   0.499998 0.321425 0.000006 0.002081
C56   C     C_1   0.999998 0.863625 0.500003 -0.203466
C57   C     C_1   0.499998 0.363625 0.000003 -0.203465
C58   C     C_1   0.500000 0.862528 0.999987 -0.227281
C59   C     C_1   0.000000 0.362528 0.499988 -0.227291
C60   C     C_1   0.500001 0.820337 0.999986 -0.000534
C61   C     C_1   0.999985 0.999996 0.820396 -0.000105
C62   C     C_1   0.000001 0.320337 0.499986 -0.000529
C63   C     C_1   0.500001 0.770525 0.999988 0.003736
C64   C     C_1   0.000001 0.270525 0.499988 0.003739
C65   C     C_3   0.229564 0.023878 0.036252 -0.159460
C66   C     C_3   0.770457 0.021477 0.962331 -0.158211
C67   C     C_3   0.770411 0.021330 0.037726 -0.158159
C68   C     C_3   0.229556 0.018861 0.961022 -0.156961
C69   C     C_3   0.729564 0.523878 0.536251 -0.159456
C70   C     C_3   0.270443 0.523040 0.463238 -0.159012
C71   C     C_3   0.270432 0.519735 0.538561 -0.157377
C72   C     C_1   0.500014 0.500023 0.679604 -0.000131
C73   C     C_3   0.729556 0.518861 0.461022 -0.156965
C74   C     C_1   0.000002 0.228334 0.499990 0.003406
C75   C     C_1   0.500002 0.728334 0.999990 0.003405
C76   C     C_1   0.000002 0.178521 0.499994 0.001743
C77   C     C_1   0.500002 0.678521 0.999994 0.001742
C78   C     C_1   0.000002 0.136328 0.499997 -0.203492
C79   C     C_1   0.500002 0.636328 0.999997 -0.203493
C80   C     C_3   0.270782 0.042987 0.997175 -0.151252
C81   C     C_3   0.729207 0.043063 0.000075 -0.150981
C82   C     C_3   0.770782 0.542987 0.497174 -0.151251
C83   C     C_1   0.499986 0.499996 0.320396 -0.000122
C84   C     C_3   0.229214 0.543030 0.501871 -0.151101
C85   C     C_3   0.310335 0.999469 0.000062 0.009472
C86   C     C_3   0.689663 0.999442 0.999977 0.009484
C87   C     C_3   0.810335 0.499469 0.500062 0.009473
C88   C     C_3   0.189664 0.499453 0.499951 0.009476
C89   C     C_3   0.270446 0.980359 0.039136 -0.168288
C90   C     C_3   0.729574 0.977846 0.962234 -0.167721
C91   C     C_3   0.729530 0.977698 0.037629 -0.167633
C92   C     C_3   0.270456 0.975324 0.963908 -0.166803
C93   C     C_3   0.770446 0.480360 0.539136 -0.168286
C94   C     C_1   0.000024 0.000021 0.229424 0.003943
C95   C     C_3   0.229561 0.479461 0.461321 -0.168119
C96   C     C_3   0.229540 0.476143 0.536643 -0.167116
C97   C     C_3   0.770456 0.475323 0.463908 -0.166807
C98   C     C_3   0.229373 0.956221 0.002966 -0.169885
C99   C     C_3   0.770633 0.956110 0.999886 -0.169925
C100  C     C_3   0.729372 0.456221 0.502966 -0.169883
C101  C     C_3   0.270630 0.456158 0.498023 -0.169907
C102  C     C_3   0.189715 0.999765 0.000084 0.009341
C103  C     C_3   0.810284 0.999757 0.999984 0.009329
C104  C     C_3   0.689715 0.499765 0.500084 0.009341
H1    H     H_    0.289862 0.078283 0.994823 0.128600
H2    H     H_    0.289259 0.542126 0.433364 0.134245
H3    H     H_    0.289248 0.536122 0.569995 0.132735
H4    H     H_    0.710730 0.534526 0.429232 0.132378
H5    H     H_    0.289071 0.964626 0.070956 0.144209
H6    H     H_    0.710940 0.960093 0.931490 0.143144
H7    H     H_    0.710859 0.959825 0.068293 0.143085
H8    H     H_    0.289141 0.955516 0.934452 0.141962
H9    H     H_    0.789071 0.464627 0.570956 0.144214
H10   H     H_    0.210931 0.463009 0.429861 0.143844
H11   H     H_    0.210859 0.457005 0.566532 0.142361
H12   H     H_    0.710117 0.078434 0.000150 0.128516
H13   H     H_    0.789141 0.455515 0.434453 0.141958
H14   H     H_    0.210694 0.920811 0.005343 0.148135
H15   H     H_    0.789315 0.920621 0.999810 0.148230
H16   H     H_    0.710693 0.420811 0.505343 0.148135
H17   H     H_    0.289310 0.420703 0.496445 0.148187
H18   H     H_    0.789862 0.578283 0.494822 0.128600
H19   H     H_    0.210128 0.578368 0.503433 0.128552
H20   H     H_    0.210757 0.043638 0.065697 0.134643
H21   H     H_    0.789290 0.039292 0.931686 0.133513
H22   H     H_    0.789206 0.039024 0.068450 0.133431
H23   H     H_    0.210730 0.034526 0.929233 0.132382
H24   H     H_    0.710757 0.543638 0.565696 0.134647
O1    O     O_R   0.000000 0.964340 0.063140 -0.600244
O2    O     O_R   0.000000 0.035640 0.936880 -0.601313
O3    O     O_R   0.500000 0.535640 0.563120 -0.601456
O4    O     O_R   0.500000 0.535640 0.436880 -0.601382
O5    O     O_R   0.093030 0.964340 0.000000 -0.624296
O6    O     O_R   0.906970 0.964340 0.000000 -0.624332
O7    O     O_R   0.593030 0.464340 0.500000 -0.624295
O8    O     O_R   0.406970 0.464340 0.500000 -0.624315
O9    O     O_R   0.093040 0.035640 0.000000 -0.620647
O10   O     O_R   0.906960 0.035640 0.000000 -0.620617
O11   O     O_R   0.593040 0.535640 0.500000 -0.620647
O12   O     O_R   0.000000 0.964340 0.936860 -0.600016
O13   O     O_R   0.406960 0.535640 0.500000 -0.620632
O14   O     O_R   0.500000 0.063090 0.964350 -0.599416
O15   O     O_R   0.500000 0.063090 0.035650 -0.599278
O16   O     O_R   0.000000 0.563090 0.464350 -0.599387
O17   O     O_R   0.000000 0.563090 0.535650 -0.599335
O18   O     O_R   0.406990 0.999940 0.964350 -0.621979
O19   O     O_R   0.593010 0.999940 0.035650 -0.622329
O20   O     O_R   0.593010 0.999940 0.964350 -0.622327
O21   O     O_R   0.406990 0.999940 0.035650 -0.622701
O22   O     O_R   0.906990 0.499940 0.464350 -0.621988
O23   O     O_R   0.500000 0.464340 0.563140 -0.600171
O24   O     O_R   0.093010 0.499940 0.535650 -0.622104
O25   O     O_R   0.093010 0.499940 0.464350 -0.622562
O26   O     O_R   0.906990 0.499940 0.535650 -0.622693
O27   O     O_R   0.500000 0.936790 0.964340 -0.602384
O28   O     O_R   0.500000 0.936790 0.035660 -0.602262
O29   O     O_R   0.000000 0.436790 0.464340 -0.602332
O30   O     O_R   1.000000 0.436790 0.535660 -0.602285
O31   O     O_R   0.052540 0.063140 0.500000 -0.592676
O32   O     O_R   0.947460 0.063140 0.500000 -0.592674
O33   O     O_R   0.552540 0.563140 0.000000 -0.592677
O34   O     O_R   0.500000 0.464340 0.436860 -0.600095
O35   O     O_R   0.447460 0.563140 0.000000 -0.592675
O36   O     O_R   0.052540 0.999990 0.436840 -0.592651
O37   O     O_R   0.947460 0.999990 0.563160 -0.592645
O38   O     O_R   0.947460 0.999990 0.436840 -0.592629
O39   O     O_R   0.052540 0.999990 0.563160 -0.592624
O40   O     O_R   0.552540 0.499990 0.936840 -0.592650
O41   O     O_R   0.447460 0.499990 0.063160 -0.592650
O42   O     O_R   0.447460 0.499990 0.936840 -0.592625
O43   O     O_R   0.552540 0.499990 0.063160 -0.592625
O44   O     O_R   0.052520 0.936840 0.500000 -0.592595
O45   O     O_R   0.947480 0.936840 0.500000 -0.592597
O46   O     O_R   0.552520 0.436840 0.000000 -0.592595
O47   O     O_R   0.447480 0.436840 0.000000 -0.592597
O48   O     O_R   0.000000 0.035640 0.063120 -0.601529
Zn1   Zn    Zn3+2 0.000000 0.952380 0.000000 0.952677
Zn2   Zn    Zn3+2 0.929860 0.999990 0.500000 0.966503
Zn3   Zn    Zn3+2 0.570140 0.499990 0.000000 0.966503
Zn4   Zn    Zn3+2 0.429860 0.499990 0.000000 0.966503
Zn5   Zn    Zn3+2 0.500000 0.452380 0.500000 0.952686
Zn6   Zn    Zn3+2 0.000000 0.047600 0.000000 0.955901
Zn7   Zn    Zn3+2 0.500000 0.547600 0.500000 0.955893
Zn8   Zn    Zn3+2 0.500000 0.999950 0.952390 0.954521
Zn9   Zn    Zn3+2 0.500000 0.999950 0.047610 0.954199
Zn10  Zn    Zn3+2 0.000000 0.499950 0.452390 0.954408
Zn11  Zn    Zn3+2 0.000000 0.499950 0.547610 0.954310
Zn12  Zn    Zn3+2 0.070140 0.999990 0.500000 0.966503

loop_
_geom_bond_atom_site_label_1
_geom_bond_atom_site_label_2
_ccdc_geom_bond_type
C68   C80   S    
C7    C83   T    
C88   C96   S    
C1    O48   A    
O21   Zn9   S    
C16   C21   T    
C23   C45   S    
C71   H3    S    
C73   C82   S    
O14   Zn8   S    
C44   O47   A    
C100  C104  S    
O43   Zn3   S    
O30   Zn11  S    
C67   C103  S    
C3    C42   S    
C21   C36   S    
O16   Zn10  S    
O28   Zn9   S    
O19   Zn9   S    
C84   H19   S    
O48   Zn6   S    
C74   C76   S    
C13   C18   S    
O17   Zn11  S    
C60   C63   S    
C42   O8    A    
C33   O35   A    
C76   C78   T    
C1    O1    A    
C86   C91   S    
O4    Zn7   S    
C37   O41   A    
C65   H20   S    
C5    C17   S    
C39   O4    A    
C10   C94   T    
C95   H10   S    
C58   C60   T    
C82   C87   S    
C89   H5    S    
C36   O40   A    
C25   O21   A    
C38   O5    A    
C91   H7    S    
C9    C13   T    
C29   C88   S    
C62   C64   S    
C69   C82   S    
C68   C92   S    
C30   C58   S    
C20   C35   S    
O3    Zn7   S    
C48   C51   S    
C6    C28   S    
C12   C16   S    
C69   H24   S    
C40   O10   A    
O8    Zn5   S    
C35   O39   A    
C23   O14   A    
O23   Zn5   S    
C25   O18   A    
O38   Zn2   S    
O33   Zn3   S    
C70   C84   S    
O41   Zn4   S    
C81   C86   S    
C2    C61   S    
C26   C86   S    
C32   O31   A    
C3    C101  S    
C27   O26   A    
C30   O28   A    
C88   C95   S    
C65   C80   S    
C96   C101  S    
C50   C94   S    
O37   Zn2   S    
O15   Zn9   S    
C23   O15   A    
C11   C15   S    
C65   C102  S    
O24   Zn11  S    
C2    C11   T    
C14   C19   T    
C25   C85   S    
C85   C92   S    
C52   C54   S    
C98   H14   S    
C54   C56   T    
C53   C55   S    
C15   C20   T    
C46   C48   T    
C8    C72   S    
C66   C81   S    
C92   C98   S    
C51   C52   T    
C40   O6    A    
C3    C70   S    
O29   Zn10  S    
O34   Zn5   S    
C66   C90   S    
C99   C103  S    
O2    Zn6   S    
C67   H22   S    
C85   C89   S    
O27   Zn8   S    
C92   H8    S    
C73   H4    S    
C87   C97   S    
O9    Zn6   S    
C98   C102  S    
C22   C37   S    
O1    Zn1   S    
C80   H1    S    
C101  H17   S    
O42   Zn4   S    
O13   Zn7   S    
O31   Zn12  S    
C33   O33   A    
C37   O43   A    
C80   C85   S    
C73   C104  S    
C40   C103  S    
C93   C100  S    
C44   C57   S    
C8    C12   T    
C42   O13   A    
C67   C91   S    
O12   Zn1   S    
C77   C79   T    
C5    C61   T    
C6    C72   T    
C93   H9    S    
C39   O34   A    
C26   O20   A    
C75   C77   S    
C68   H23   S    
O32   Zn2   S    
C31   O29   A    
C34   O36   A    
C9    C83   S    
C100  H16   S    
C30   O27   A    
C32   C78   S    
C73   C97   S    
C27   O22   A    
C55   C57   T    
C70   H2    S    
O7    Zn5   S    
C90   C99   S    
C41   O7    A    
C97   C100  S    
O11   Zn7   S    
C29   O25   A    
C71   C84   S    
C69   C104  S    
C31   C59   S    
C59   C62   T    
C64   C74   T    
C96   H11   S    
C17   O2    A    
C18   C22   T    
C36   O42   A    
C66   C103  S    
C33   C79   S    
C84   C88   S    
C44   O46   A    
O36   Zn12  S    
C19   C34   S    
O22   Zn10  S    
C43   O44   A    
C41   C104  S    
C67   C81   S    
C3    C71   S    
C71   C96   S    
C47   C49   S    
O40   Zn3   S    
O26   Zn11  S    
C65   C89   S    
C69   C93   S    
C66   H21   S    
O18   Zn8   S    
C89   C98   S    
C24   O17   A    
C28   O3    A    
C24   C46   S    
C1    C4    S    
C70   C95   S    
C38   C102  S    
C68   C102  S    
C27   C87   S    
C29   O24   A    
O20   Zn8   S    
C43   O45   A    
O5    Zn1   S    
C63   C75   T    
O45   Zn2   S    
C24   O16   A    
C49   C53   T    
O39   Zn12  S    
C87   C93   S    
C81   H12   S    
C86   C90   S    
C35   O37   A    
C38   O9    A    
C17   O12   A    
O6    Zn1   S    
C97   H13   S    
C26   O19   A    
O10   Zn6   S    
C41   O11   A    
C31   O30   A    
O47   Zn4   S    
C99   H15   S    
C95   C101  S    
C43   C56   S    
C45   C47   T    
C28   O23   A    
O25   Zn10  S    
C4    C50   T    
O35   Zn4   S    
C7    C39   S    
C91   C99   S    
C34   O38   A    
O46   Zn3   S    
C82   H18   S    
O44   Zn12  S    
C10   C14   S    
C32   O32   A    
C90   H6    S    
