data_mof_unit_31374.cif
_audit_creation_date              2012-12-10T16:37:48-0500
_audit_creation_method            fapswitch 2.2
_symmetry_space_group_name_H-M    P1
_symmetry_Int_Tables_number       1
_space_group_crystal_system       triclinic
_cell_length_a                    27.82603
_cell_length_b                    18.64819
_cell_length_c                    16.711054
_cell_angle_alpha                 89.999753
_cell_angle_beta                  60.837343
_cell_angle_gamma                 89.999613
_cell_volume                      7572.25668983

loop_
_atom_site_label
_atom_site_type_symbol
_atom_type_description
_atom_site_fract_x
_atom_site_fract_y
_atom_site_fract_z
_atom_type_partial_charge
C1    C     C_R   0.698783 0.262475 0.678133 0.905834
C2    C     C_R   0.300561 0.737484 0.322102 0.903060
C3    C     C_R   0.301217 0.262475 0.321868 0.905921
C4    C     C_R   0.699438 0.737485 0.677898 0.902952
C5    C     C_R   0.198783 0.762474 0.678133 0.905771
C6    C     C_R   0.800562 0.237485 0.322102 0.903060
C7    C     C_R   0.801216 0.762476 0.321868 0.905935
C8    C     C_R   0.199438 0.237485 0.677898 0.902885
C9    C     C_R   0.891571 0.500054 0.528354 -0.007784
C10   C     C_R   0.108374 0.500054 0.471766 -0.007795
C11   C     C_R   0.391519 0.000053 0.528481 -0.007777
C12   C     C_R   0.608344 0.000054 0.471833 -0.007831
C13   C     C_R   0.112662 0.371775 0.448749 0.138932
C14   C     C_R   0.887014 0.628144 0.552867 0.149805
C15   C     C_R   0.887289 0.371772 0.551344 0.138896
C16   C     C_R   0.112932 0.628143 0.447239 0.149841
C17   C     C_R   0.612629 0.871775 0.448815 0.138925
C18   C     C_R   0.386964 0.128145 0.552986 0.149774
C19   C     C_R   0.387246 0.871768 0.551445 0.138870
C20   C     C_R   0.612893 0.128145 0.447322 0.149854
C21   C     C_R   0.704761 0.243139 0.970062 0.021015
C22   C     C_R   0.266639 0.720253 0.061352 0.017570
C23   C     C_R   0.295239 0.243133 0.029945 0.021019
C24   C     C_R   0.733354 0.720267 0.938656 0.017573
C25   C     C_R   0.204754 0.743125 0.970067 0.021016
C26   C     C_R   0.766646 0.220266 0.061345 0.017566
C27   C     C_R   0.795241 0.743139 0.029937 0.021015
C28   C     C_R   0.233351 0.220265 0.938666 0.017594
C29   C     C_R   0.751255 0.198208 0.930024 -0.067354
C30   C     C_R   0.222572 0.769838 0.098445 -0.063129
C31   C     C_R   0.248746 0.198200 0.069986 -0.067358
C32   C     C_R   0.777421 0.769851 0.901559 -0.063135
C33   C     C_R   0.251247 0.698191 0.930031 -0.067349
C34   C     C_R   0.722580 0.269852 0.098439 -0.063124
C35   C     C_R   0.748745 0.698211 0.069979 -0.067355
C36   C     C_R   0.277419 0.269848 0.901568 -0.063135
C37   C     C_R   0.776414 0.179015 0.983607 0.076802
C38   C     C_R   0.186508 0.771100 0.059257 0.066958
C39   C     C_R   0.223582 0.179014 0.016407 0.076803
C40   C     C_R   0.813486 0.771113 0.940747 0.066959
C41   C     C_R   0.276405 0.678999 0.983617 0.076790
C42   C     C_R   0.686516 0.271116 0.059251 0.066959
C43   C     C_R   0.723584 0.679020 0.016398 0.076811
C44   C     C_R   0.313484 0.271109 0.940755 0.066960
C45   C     C_R   0.628895 0.304361 0.962879 0.042028
C46   C     C_R   0.337968 0.651683 0.074890 0.036402
C47   C     C_R   0.371104 0.304360 0.037125 0.042024
C48   C     C_R   0.662026 0.651693 0.925119 0.036408
C49   C     C_R   0.128892 0.804354 0.962880 0.042030
C50   C     C_R   0.837972 0.151690 0.074885 0.036406
C51   C     C_R   0.871105 0.804361 0.037122 0.042028
C52   C     C_R   0.162025 0.151691 0.925121 0.036405
C53   C     C_R   0.604839 0.330444 0.910117 -0.165742
C54   C     C_R   0.376668 0.646957 0.108223 -0.170012
C55   C     C_R   0.395161 0.330445 0.089886 -0.165714
C56   C     C_R   0.623330 0.646961 0.891780 -0.170046
C57   C     C_R   0.104838 0.830442 0.910117 -0.165760
C58   C     C_R   0.876670 0.146959 0.108222 -0.170020
C59   C     C_R   0.895161 0.830444 0.089884 -0.165717
C60   C     C_R   0.123330 0.146960 0.891781 -0.170065
C61   C     C_R   0.619842 0.299994 0.824888 0.089932
C62   C     C_R   0.372904 0.694251 0.175816 0.074395
C63   C     C_R   0.380160 0.299996 0.175114 0.089928
C64   C     C_R   0.627094 0.694253 0.824185 0.074395
C65   C     C_R   0.119841 0.799993 0.824888 0.089921
C66   C     C_R   0.872906 0.194251 0.175816 0.074384
C67   C     C_R   0.880159 0.799995 0.175112 0.089931
C68   C     C_R   0.127094 0.194252 0.824186 0.074364
C69   C     C_R   0.669528 0.262470 0.779848 -0.146159
C70   C     C_R   0.325364 0.734273 0.221578 -0.135759
C71   C     C_R   0.330476 0.262468 0.220152 -0.146172
C72   C     C_R   0.674633 0.734275 0.778423 -0.135740
C73   C     C_R   0.169526 0.762467 0.779849 -0.146128
C74   C     C_R   0.825367 0.234274 0.221578 -0.135770
C75   C     C_R   0.830473 0.762470 0.220152 -0.146190
C76   C     C_R   0.174634 0.234274 0.778424 -0.135709
C77   C     C_R   0.694714 0.235285 0.831476 -0.015800
C78   C     C_R   0.294193 0.752863 0.176293 -0.002621
C79   C     C_R   0.305293 0.235278 0.168523 -0.015806
C80   C     C_R   0.705802 0.752869 0.823710 -0.002617
C81   C     C_R   0.194711 0.735278 0.831478 -0.015800
C82   C     C_R   0.794199 0.252869 0.176289 -0.002611
C83   C     C_R   0.805287 0.735286 0.168524 -0.015804
C84   C     C_R   0.205803 0.252867 0.823713 -0.002624
C85   C     C_R   0.703369 0.130140 0.498631 0.930620
C86   C     C_R   0.296864 0.870026 0.500717 0.927477
C87   C     C_R   0.296569 0.130165 0.501509 0.930623
C88   C     C_R   0.703075 0.870050 0.499424 0.927468
C89   C     C_R   0.203392 0.630147 0.498571 0.930633
C90   C     C_R   0.796899 0.370039 0.500632 0.927526
C91   C     C_R   0.796603 0.630152 0.501427 0.930682
C92   C     C_R   0.203097 0.370044 0.499365 0.927484
C93   C     C_R   0.676381 0.261140 0.921044 0.024897
C94   C     C_R   0.299889 0.708976 0.103645 0.021134
C95   C     C_R   0.323621 0.261135 0.078959 0.024890
C96   C     C_R   0.700104 0.708986 0.896362 0.021138
C97   C     C_R   0.176376 0.761130 0.921047 0.024903
C98   C     C_R   0.799895 0.208984 0.103640 0.021141
C99   C     C_R   0.823620 0.761139 0.078955 0.024900
C100  C     C_R   0.200103 0.208985 0.896367 0.021144
C101  C     C_R   0.604247 0.314264 0.058462 -0.178764
C102  C     C_R   0.335781 0.601315 0.013781 -0.191271
C103  C     C_R   0.395752 0.314262 0.941541 -0.178765
C104  C     C_R   0.664209 0.601332 0.986240 -0.191248
C105  C     C_R   0.104242 0.814255 0.058464 -0.178771
C106  C     C_R   0.835787 0.101326 0.013770 -0.191260
C107  C     C_R   0.895754 0.814264 0.941538 -0.178765
C108  C     C_R   0.164210 0.101327 0.986237 -0.191237
C109  C     C_R   0.631974 0.295866 0.105975 -0.197719
C110  C     C_R   0.307578 0.616309 0.966188 -0.203823
C111  C     C_R   0.368026 0.295857 0.894029 -0.197708
C112  C     C_R   0.692408 0.616332 0.033837 -0.203828
C113  C     C_R   0.131967 0.795851 0.105979 -0.197700
C114  C     C_R   0.807586 0.116325 0.966175 -0.203828
C115  C     C_R   0.868028 0.795863 0.894024 -0.197709
C116  C     C_R   0.192409 0.116324 0.033836 -0.203846
C117  C     C_R   0.735681 0.180777 0.799060 0.197253
C118  C     C_R   0.257800 0.812835 0.200700 0.177202
C119  C     C_R   0.264337 0.180758 0.200933 0.197264
C120  C     C_R   0.742195 0.812841 0.799300 0.177199
C121  C     C_R   0.235676 0.680767 0.799063 0.197212
C122  C     C_R   0.757808 0.312842 0.200697 0.177178
C123  C     C_R   0.764319 0.680780 0.200941 0.197247
C124  C     C_R   0.242195 0.312838 0.799304 0.177167
C125  C     C_R   0.770229 0.172764 0.838997 -0.043530
C126  C     C_R   0.218813 0.817735 0.168661 -0.032892
C127  C     C_R   0.229785 0.172738 0.161004 -0.043538
C128  C     C_R   0.781182 0.817744 0.831338 -0.032910
C129  C     C_R   0.270222 0.672747 0.839004 -0.043524
C130  C     C_R   0.718821 0.317746 0.168658 -0.032891
C131  C     C_R   0.729770 0.672770 0.161006 -0.043541
C132  C     C_R   0.281181 0.317741 0.831346 -0.032920
C133  C     C_R   0.078083 0.095472 0.929885 0.947526
C134  C     C_R   0.931307 0.893980 0.060787 0.898774
C135  C     C_R   0.921917 0.095471 0.070116 0.947391
C136  C     C_R   0.068693 0.893979 0.939213 0.898853
C137  C     C_R   0.578083 0.595472 0.929885 0.947439
C138  C     C_R   0.431306 0.393980 0.060788 0.898750
C139  C     C_R   0.421917 0.595471 0.070116 0.947319
C140  C     C_R   0.568693 0.393980 0.939213 0.898832
C141  C     C_R   0.556372 0.130192 0.474554 0.095228
C142  C     C_R   0.443698 0.869882 0.524537 0.092653
C143  C     C_R   0.443478 0.130192 0.525804 0.095316
C144  C     C_R   0.556172 0.869885 0.475754 0.092587
C145  C     C_R   0.056416 0.630192 0.474444 0.095267
C146  C     C_R   0.943741 0.369882 0.524436 0.092631
C147  C     C_R   0.943528 0.630192 0.525675 0.095283
C148  C     C_R   0.056208 0.369883 0.475671 0.092628
C149  C     C_R   0.528127 0.195208 0.485501 -0.210478
C150  C     C_R   0.471924 0.804963 0.513568 -0.218696
C151  C     C_R   0.471719 0.195207 0.514870 -0.210453
C152  C     C_R   0.527953 0.804965 0.486688 -0.218772
C153  C     C_R   0.028175 0.695209 0.485377 -0.210470
C154  C     C_R   0.971963 0.304963 0.513481 -0.218729
C155  C     C_R   0.971768 0.695209 0.514739 -0.210467
C156  C     C_R   0.027990 0.304964 0.486609 -0.218796
C157  C     C_R   0.472256 0.065219 0.510106 0.009746
C158  C     C_R   0.527543 0.934888 0.490554 0.010306
C159  C     C_R   0.527594 0.065220 0.490260 0.009755
C160  C     C_R   0.472317 0.934887 0.509778 0.010295
C161  C     C_R   0.972304 0.565220 0.509982 0.009746
C162  C     C_R   0.027583 0.434887 0.490456 0.010300
C163  C     C_R   0.027638 0.565220 0.490148 0.009747
C164  C     C_R   0.972362 0.434887 0.509669 0.010297
C165  C     C_R   0.945004 0.500050 0.518018 -0.053934
C166  C     C_R   0.054939 0.500050 0.482112 -0.053926
C167  C     C_R   0.444956 0.000049 0.518138 -0.053952
C168  C     C_R   0.554900 0.000050 0.482207 -0.053931
C169  C     C_R   0.864932 0.434759 0.533796 0.026155
C170  C     C_R   0.135255 0.565333 0.465325 0.029199
C171  C     C_R   0.135019 0.434760 0.466305 0.026141
C172  C     C_R   0.864693 0.565332 0.534783 0.029217
C173  C     C_R   0.364881 0.934758 0.533917 0.026208
C174  C     C_R   0.635228 0.065333 0.465382 0.029223
C175  C     C_R   0.634994 0.934760 0.466356 0.026176
C176  C     C_R   0.364640 0.065332 0.534910 0.029277
C177  C     C_R   0.816556 0.435387 0.524472 -0.171111
C178  C     C_R   0.183637 0.564808 0.474766 -0.170146
C179  C     C_R   0.183405 0.435390 0.475598 -0.171096
C180  C     C_R   0.816322 0.564811 0.525310 -0.170168
C181  C     C_R   0.316504 0.935382 0.524591 -0.171137
C182  C     C_R   0.683623 0.064807 0.474793 -0.170132
C183  C     C_R   0.683392 0.935392 0.475623 -0.171073
C184  C     C_R   0.316270 0.064816 0.525429 -0.170188
C185  C     C_R   0.789253 0.500087 0.530775 -0.126229
C186  C     C_R   0.210702 0.500086 0.469305 -0.126118
C187  C     C_R   0.289198 0.000087 0.530893 -0.126228
C188  C     C_R   0.710699 0.000087 0.469296 -0.126338
H1    H     H_    0.048539 0.254048 0.478043 0.160826
H2    H     H_    0.950964 0.746214 0.525059 0.143489
H3    H     H_    0.951417 0.254047 0.522033 0.160835
H4    H     H_    0.048981 0.746214 0.475049 0.143497
H5    H     H_    0.548504 0.754049 0.478108 0.160806
H6    H     H_    0.450914 0.246213 0.525193 0.143490
H7    H     H_    0.451381 0.754046 0.522111 0.160834
H8    H     H_    0.548932 0.246213 0.475172 0.143493
H9    H     H_    0.562606 0.333775 0.098398 0.162283
H10   H     H_    0.355140 0.549492 0.002413 0.168204
H11   H     H_    0.437392 0.333774 0.901605 0.162284
H12   H     H_    0.644850 0.549509 0.997619 0.168217
H13   H     H_    0.062602 0.833769 0.098397 0.162276
H14   H     H_    0.855144 0.049502 0.002398 0.168213
H15   H     H_    0.937395 0.833776 0.901603 0.162278
H16   H     H_    0.144854 0.049503 0.997606 0.168210
H17   H     H_    0.610092 0.301239 0.179549 0.171804
H18   H     H_    0.308227 0.577126 0.918141 0.151882
H19   H     H_    0.389909 0.301225 0.820455 0.171806
H20   H     H_    0.691756 0.577154 0.081892 0.151874
H21   H     H_    0.110083 0.801221 0.179554 0.171808
H22   H     H_    0.808236 0.077144 0.918124 0.151876
H23   H     H_    0.889912 0.801234 0.820450 0.171808
H24   H     H_    0.191760 0.077139 0.081882 0.151881
O1    O     O_R   0.746490 0.236330 0.638080 -0.640446
O2    O     O_R   0.253510 0.763670 0.361920 -0.643964
O3    O     O_R   0.253510 0.236330 0.361920 -0.640424
O4    O     O_R   0.746490 0.763670 0.638080 -0.643982
O5    O     O_R   0.246490 0.736330 0.638080 -0.640500
O6    O     O_R   0.753510 0.263670 0.361920 -0.643933
O7    O     O_R   0.753510 0.736330 0.361920 -0.640398
O8    O     O_R   0.246490 0.263670 0.638080 -0.644036
O9    O     O_R   0.674170 0.186160 0.516270 -0.626392
O10   O     O_R   0.325830 0.813840 0.483730 -0.622892
O11   O     O_R   0.325830 0.186160 0.483730 -0.626323
O12   O     O_R   0.674170 0.813840 0.516270 -0.622973
O13   O     O_R   0.174170 0.686160 0.516270 -0.626336
O14   O     O_R   0.825830 0.313840 0.483730 -0.622949
O15   O     O_R   0.825830 0.686160 0.483730 -0.626374
O16   O     O_R   0.174170 0.313840 0.516270 -0.622916
O17   O     O_R   0.739960 0.127620 0.525000 -0.636357
O18   O     O_R   0.260040 0.872380 0.475000 -0.635399
O19   O     O_R   0.260040 0.127620 0.475000 -0.636328
O20   O     O_R   0.739960 0.872380 0.525000 -0.635418
O21   O     O_R   0.239960 0.627620 0.525000 -0.636342
O22   O     O_R   0.760040 0.372380 0.475000 -0.635432
O23   O     O_R   0.760040 0.627620 0.475000 -0.636369
O24   O     O_R   0.239960 0.372380 0.525000 -0.635379
O25   O     O_R   0.680700 0.294870 0.629350 -0.615215
O26   O     O_R   0.319300 0.705130 0.370650 -0.610589
O27   O     O_R   0.319300 0.294870 0.370650 -0.615190
O28   O     O_R   0.680700 0.705130 0.629350 -0.610615
O29   O     O_R   0.180700 0.794870 0.629350 -0.615271
O30   O     O_R   0.819300 0.205130 0.370650 -0.610575
O31   O     O_R   0.819300 0.794870 0.370650 -0.615177
O32   O     O_R   0.180700 0.205130 0.629350 -0.610663
O33   O     O_R   0.062020 0.072840 0.007170 -0.622260
O34   O     O_R   0.937980 0.927160 0.992830 -0.636960
O35   O     O_R   0.937980 0.072840 0.992830 -0.622241
O36   O     O_R   0.062020 0.927160 0.007170 -0.636959
O37   O     O_R   0.562020 0.572840 0.007170 -0.622220
O38   O     O_R   0.437980 0.427160 0.992830 -0.636940
O39   O     O_R   0.437980 0.572840 0.992830 -0.622202
O40   O     O_R   0.562020 0.427160 0.007170 -0.636935
O41   O     O_R   0.947860 0.073950 0.109290 -0.621641
O42   O     O_R   0.052140 0.926050 0.890710 -0.630666
O43   O     O_R   0.052140 0.073950 0.890710 -0.621541
O44   O     O_R   0.947860 0.926050 0.109290 -0.630801
O45   O     O_R   0.447860 0.573950 0.109290 -0.621717
O46   O     O_R   0.552140 0.426050 0.890710 -0.630773
O47   O     O_R   0.552140 0.573950 0.890710 -0.621616
O48   O     O_R   0.447860 0.426050 0.109290 -0.630924
Zn1   Zn    Zn3+2 0.792340 0.208750 0.507670 0.913629
Zn2   Zn    Zn3+2 0.207660 0.791250 0.492330 0.903669
Zn3   Zn    Zn3+2 0.207660 0.208750 0.492330 0.913690
Zn4   Zn    Zn3+2 0.792340 0.791250 0.507670 0.903633
Zn5   Zn    Zn3+2 0.292340 0.708750 0.507670 0.913560
Zn6   Zn    Zn3+2 0.707660 0.291250 0.492330 0.903644
Zn7   Zn    Zn3+2 0.707660 0.708750 0.492330 0.913641
Zn8   Zn    Zn3+2 0.292340 0.291250 0.507670 0.903586
Zn9   Zn    Zn3+2 0.505960 0.500000 0.080520 0.890245
Zn10  Zn    Zn3+2 0.494040 0.500000 0.919480 0.890263
Zn11  Zn    Zn3+2 0.005960 0.000000 0.080520 0.890270
Zn12  Zn    Zn3+2 0.994040 0.000000 0.919480 0.890286
C189  C     C_R   0.729765 0.500112 0.554833 0.179007
C190  C     C_R   0.688902 0.500926 0.647285 -0.165198
C191  C     C_R   0.633288 0.501270 0.670898 -0.133707
C192  C     C_R   0.617904 0.500824 0.602820 -0.147358
C193  C     C_R   0.658166 0.500080 0.510568 -0.184758
C194  C     C_R   0.713803 0.499826 0.486456 0.001101
H25   H     H_    0.700130 0.501326 0.700907 0.120264
H26   H     H_    0.602014 0.501761 0.742005 0.179836
H27   H     H_    0.574773 0.501039 0.621605 0.109600
H28   H     H_    0.646324 0.499669 0.457730 0.110913
H29   H     H_    0.744699 0.499365 0.414631 0.122885
C195  C     C_R   0.270221 0.500108 0.445037 0.178983
C196  C     C_R   0.286323 0.499833 0.513237 0.001087
C197  C     C_R   0.341998 0.500080 0.488882 -0.184797
C198  C     C_R   0.382149 0.500795 0.396567 -0.147117
C199  C     C_R   0.366618 0.501222 0.328677 -0.133674
C200  C     C_R   0.310973 0.500892 0.352528 -0.165794
H30   H     H_    0.255513 0.499387 0.585108 0.122880
H31   H     H_    0.353955 0.499686 0.541576 0.110821
H32   H     H_    0.425309 0.501001 0.377587 0.109602
H33   H     H_    0.397796 0.501684 0.257530 0.180271
H34   H     H_    0.299632 0.501276 0.299042 0.120317
C201  C     C_R   0.229735 0.000113 0.554755 0.178862
C202  C     C_R   0.188769 0.000941 0.647158 -0.164788
C203  C     C_R   0.133180 0.001298 0.670555 -0.133710
C204  C     C_R   0.117929 0.000851 0.602303 -0.147543
C205  C     C_R   0.158293 0.000092 0.510104 -0.184718
C206  C     C_R   0.213901 0.999826 0.486213 0.001177
H35   H     H_    0.199895 0.001346 0.700908 0.120222
H36   H     H_    0.101819 0.001802 0.741627 0.179482
H37   H     H_    0.074821 0.001078 0.620911 0.109592
H38   H     H_    0.146555 0.999682 0.457133 0.110951
H39   H     H_    0.244877 0.999356 0.414426 0.122930
C207  C     C_R   0.770199 0.000111 0.445173 0.179040
C208  C     C_R   0.786197 0.999826 0.513506 0.001118
C209  C     C_R   0.841845 0.000080 0.489333 -0.184723
C210  C     C_R   0.882079 0.000821 0.397064 -0.147274
C211  C     C_R   0.866658 0.001265 0.329030 -0.133681
C212  C     C_R   0.811034 0.000922 0.352704 -0.165284
H40   H     H_    0.755322 0.999367 0.585344 0.122844
H41   H     H_    0.853715 0.999671 0.542137 0.110874
H42   H     H_    0.925218 0.001034 0.378231 0.109593
H43   H     H_    0.897910 0.001752 0.257910 0.179897
H44   H     H_    0.799778 0.001321 0.299115 0.120263
C213  C     C_3   0.149999 0.317839 0.378097 -0.796847
H45   H     H_    0.193841 0.333953 0.346544 0.227312
H46   H     H_    0.144401 0.263284 0.407908 0.255579
H47   H     H_    0.140145 0.316460 0.321419 0.218525
C214  C     C_3   0.849739 0.682859 0.621989 -0.834475
H48   H     H_    0.853358 0.734880 0.587809 0.250009
H49   H     H_    0.806218 0.664810 0.657193 0.235003
H50   H     H_    0.861537 0.690377 0.676111 0.219339
C215  C     C_3   0.849951 0.317827 0.621975 -0.796819
H51   H     H_    0.806108 0.333942 0.653520 0.227327
H52   H     H_    0.855555 0.263277 0.592148 0.255582
H53   H     H_    0.859796 0.316436 0.678662 0.218539
C216  C     C_3   0.150203 0.682853 0.378098 -0.834476
H54   H     H_    0.146587 0.734881 0.412263 0.249976
H55   H     H_    0.193725 0.664807 0.342887 0.234990
H56   H     H_    0.138398 0.690360 0.323981 0.219334
C217  C     C_3   0.649960 0.817841 0.378152 -0.796753
H57   H     H_    0.693804 0.833951 0.346589 0.227358
H58   H     H_    0.644364 0.763285 0.407959 0.255539
H59   H     H_    0.640098 0.816467 0.321484 0.218536
C218  C     C_3   0.349687 0.182878 0.622073 -0.834570
H60   H     H_    0.353311 0.234887 0.587866 0.250050
H61   H     H_    0.306166 0.164831 0.657276 0.234977
H62   H     H_    0.361478 0.190418 0.676202 0.219360
C219  C     C_3   0.349910 0.817799 0.622040 -0.796893
H63   H     H_    0.306067 0.833909 0.653587 0.227304
H64   H     H_    0.355522 0.763260 0.592181 0.255596
H65   H     H_    0.359751 0.816387 0.678732 0.218556
C220  C     C_3   0.650152 0.182857 0.378171 -0.834384
H66   H     H_    0.646535 0.234887 0.412332 0.249923
H67   H     H_    0.693677 0.164820 0.342948 0.235041
H68   H     H_    0.638338 0.190355 0.324066 0.219311
C221  C     C_3   0.580717 0.302469 0.785843 -0.802904
H69   H     H_    0.585487 0.254060 0.743858 0.236240
H70   H     H_    0.537299 0.301698 0.841798 0.211122
H71   H     H_    0.588006 0.351303 0.743449 0.259716
C222  C     C_3   0.418392 0.702983 0.200490 -0.804286
H72   H     H_    0.412774 0.752657 0.240858 0.226763
H73   H     H_    0.419015 0.656593 0.241620 0.258117
H74   H     H_    0.458856 0.708338 0.137322 0.229669
C223  C     C_3   0.419285 0.302470 0.214158 -0.802878
H75   H     H_    0.414516 0.254061 0.256143 0.236258
H76   H     H_    0.462703 0.301699 0.158203 0.211125
H77   H     H_    0.411995 0.351304 0.256553 0.259731
C224  C     C_3   0.581607 0.702983 0.799507 -0.804339
H78   H     H_    0.587225 0.752656 0.759139 0.226753
H79   H     H_    0.580986 0.656592 0.758378 0.258084
H80   H     H_    0.541142 0.708337 0.862675 0.229669
C225  C     C_3   0.080717 0.802471 0.785841 -0.802878
H81   H     H_    0.085486 0.754063 0.743854 0.236262
H82   H     H_    0.037299 0.801701 0.841794 0.211110
H83   H     H_    0.088008 0.851306 0.743448 0.259695
C226  C     C_3   0.918392 0.202981 0.200493 -0.804316
H84   H     H_    0.912775 0.252655 0.240861 0.226758
H85   H     H_    0.919014 0.156590 0.241622 0.258088
H86   H     H_    0.958857 0.208335 0.137325 0.229670
C227  C     C_3   0.919283 0.802470 0.214159 -0.802900
H87   H     H_    0.914514 0.754061 0.256144 0.236247
H88   H     H_    0.962701 0.801699 0.158204 0.211120
H89   H     H_    0.911993 0.851304 0.256553 0.259717
C228  C     C_3   0.081607 0.202985 0.799509 -0.804326
H90   H     H_    0.087225 0.252658 0.759142 0.226778
H91   H     H_    0.080985 0.156595 0.758379 0.258058
H92   H     H_    0.041143 0.208339 0.862677 0.229660
C229  C     C_3   0.731777 0.119064 0.743418 -0.851012
H93   H     H_    0.693828 0.122000 0.737363 0.235502
H94   H     H_    0.767744 0.117795 0.673454 0.253026
H95   H     H_    0.729287 0.067568 0.778610 0.207426
C230  C     C_3   0.265484 0.877547 0.248589 -0.833230
H96   H     H_    0.229362 0.884662 0.317740 0.244823
H97   H     H_    0.303201 0.873658 0.255128 0.231892
H98   H     H_    0.270174 0.926586 0.207701 0.212861
C231  C     C_3   0.268251 0.119052 0.256576 -0.851013
H99   H     H_    0.306197 0.122005 0.262640 0.235518
H100  H     H_    0.232282 0.117774 0.326537 0.253074
H101  H     H_    0.270757 0.067553 0.221379 0.207407
C232  C     C_3   0.734509 0.877551 0.751409 -0.833195
H102  H     H_    0.770632 0.884666 0.682257 0.244807
H103  H     H_    0.696793 0.873660 0.744870 0.231865
H104  H     H_    0.729819 0.926592 0.792295 0.212874
C233  C     C_3   0.231771 0.619058 0.743416 -0.850913
H105  H     H_    0.193822 0.621998 0.737361 0.235534
H106  H     H_    0.267738 0.617790 0.673453 0.252998
H107  H     H_    0.229278 0.567560 0.778605 0.207422
C234  C     C_3   0.765495 0.377552 0.248585 -0.833204
H108  H     H_    0.729375 0.384669 0.317737 0.244814
H109  H     H_    0.803214 0.373660 0.255121 0.231870
H110  H     H_    0.770186 0.426592 0.207698 0.212880
C235  C     C_3   0.768221 0.619065 0.256583 -0.850999
H111  H     H_    0.806170 0.621998 0.262640 0.235513
H112  H     H_    0.732254 0.617796 0.326546 0.253032
H113  H     H_    0.770711 0.567569 0.221391 0.207425
C236  C     C_3   0.234511 0.377549 0.751412 -0.833088
H114  H     H_    0.270634 0.384663 0.682261 0.244785
H115  H     H_    0.196794 0.373658 0.744873 0.231894
H116  H     H_    0.229821 0.426589 0.792298 0.212866
C237  C     C_R   0.830653 0.160186 0.776841 0.130029
C238  C     C_R   0.868824 0.209540 0.777822 -0.152751
C239  C     C_R   0.924996 0.203482 0.715638 -0.123685
C240  C     C_R   0.943925 0.149163 0.650024 -0.154238
C241  C     C_R   0.906838 0.099984 0.647891 -0.155416
C242  C     C_R   0.850959 0.103582 0.712937 -0.143512
H117  H     H_    0.855006 0.254200 0.825249 0.132565
H118  H     H_    0.953687 0.242059 0.716889 0.142005
H119  H     H_    0.987293 0.145294 0.600640 0.120432
H120  H     H_    0.921665 0.057820 0.596941 0.126329
H121  H     H_    0.824478 0.061246 0.713273 0.135230
C243  C     C_R   0.175500 0.874369 0.208231 0.137783
C244  C     C_R   0.170088 0.926635 0.152399 -0.172407
C245  C     C_R   0.120914 0.965430 0.185429 -0.117609
C246  C     C_R   0.078575 0.955492 0.275082 -0.105762
C247  C     C_R   0.086017 0.909134 0.333576 -0.189183
C248  C     C_R   0.134278 0.868919 0.300395 -0.184227
H122  H     H_    0.201457 0.932323 0.081352 0.134676
H123  H     H_    0.114518 0.001579 0.141186 0.135616
H124  H     H_    0.040394 0.984863 0.299746 0.115728
H125  H     H_    0.053732 0.902727 0.403836 0.120123
H126  H     H_    0.138103 0.830873 0.345261 0.124538
C249  C     C_R   0.169366 0.160129 0.223176 0.130041
C250  C     C_R   0.131174 0.209484 0.222259 -0.152712
C251  C     C_R   0.075009 0.203409 0.284489 -0.123788
C252  C     C_R   0.056108 0.149072 0.350085 -0.154286
C253  C     C_R   0.093216 0.099888 0.352147 -0.155258
C254  C     C_R   0.149086 0.103501 0.287052 -0.143503
H127  H     H_    0.144972 0.254159 0.174851 0.132555
H128  H     H_    0.046301 0.241989 0.283293 0.142019
H129  H     H_    0.012746 0.145192 0.399507 0.120411
H130  H     H_    0.078412 0.057709 0.403080 0.126335
H131  H     H_    0.175584 0.061162 0.286660 0.135182
C255  C     C_R   0.824496 0.874375 0.791762 0.137801
C256  C     C_R   0.829909 0.926646 0.847586 -0.172401
C257  C     C_R   0.879080 0.965446 0.814547 -0.117625
C258  C     C_R   0.921417 0.955506 0.724892 -0.105802
C259  C     C_R   0.913976 0.909139 0.666407 -0.189172
C260  C     C_R   0.865717 0.868919 0.699597 -0.184201
H132  H     H_    0.798541 0.932338 0.918634 0.134669
H133  H     H_    0.885477 0.001599 0.858784 0.135621
H134  H     H_    0.959597 0.984878 0.700223 0.115732
H135  H     H_    0.946260 0.902728 0.596148 0.120110
H136  H     H_    0.861894 0.830867 0.654738 0.124505
C261  C     C_R   0.330646 0.660160 0.776851 0.130012
C262  C     C_R   0.368820 0.709504 0.777841 -0.152747
C263  C     C_R   0.424992 0.703441 0.715661 -0.123687
C264  C     C_R   0.443919 0.649126 0.650040 -0.154246
C265  C     C_R   0.406828 0.599956 0.647899 -0.155392
C266  C     C_R   0.350949 0.603559 0.712943 -0.143517
H137  H     H_    0.355006 0.754162 0.825272 0.132569
H138  H     H_    0.453686 0.742011 0.716917 0.142001
H139  H     H_    0.487287 0.645254 0.600658 0.120420
H140  H     H_    0.421653 0.557795 0.596946 0.126315
H141  H     H_    0.324466 0.561228 0.713271 0.135247
C267  C     C_R   0.675506 0.374378 0.208238 0.137793
C268  C     C_R   0.670089 0.426649 0.152417 -0.172401
C269  C     C_R   0.620918 0.465451 0.185467 -0.117655
C270  C     C_R   0.578588 0.455516 0.275127 -0.105815
C271  C     C_R   0.586035 0.409148 0.333606 -0.189162
C272  C     C_R   0.634293 0.368925 0.300406 -0.184201
H142  H     H_    0.701453 0.432339 0.081367 0.134678
H143  H     H_    0.614517 0.501605 0.141234 0.135624
H144  H     H_    0.540408 0.484891 0.299804 0.115734
H145  H     H_    0.553755 0.402741 0.403869 0.120117
H146  H     H_    0.638122 0.330874 0.345261 0.124542
C273  C     C_R   0.669346 0.660204 0.223166 0.130067
C274  C     C_R   0.631180 0.709573 0.222195 -0.152746
C275  C     C_R   0.575009 0.703528 0.284388 -0.123743
C276  C     C_R   0.556076 0.649207 0.350000 -0.154181
C277  C     C_R   0.593158 0.600012 0.352120 -0.155419
C278  C     C_R   0.649036 0.603598 0.287066 -0.143525
H147  H     H_    0.645002 0.754234 0.174770 0.132563
H148  H     H_    0.546321 0.742117 0.283147 0.142004
H149  H     H_    0.512709 0.645349 0.399391 0.120440
H150  H     H_    0.578328 0.557847 0.403068 0.126329
H151  H     H_    0.675515 0.561254 0.286721 0.135230
C279  C     C_R   0.324495 0.374375 0.791774 0.137810
C280  C     C_R   0.329906 0.426642 0.847605 -0.172398
C281  C     C_R   0.379079 0.465439 0.814572 -0.117611
C282  C     C_R   0.421417 0.455502 0.724919 -0.105766
C283  C     C_R   0.413977 0.409140 0.666429 -0.189173
C284  C     C_R   0.365717 0.368922 0.699611 -0.184213
H152  H     H_    0.298537 0.432331 0.918651 0.134666
H153  H     H_    0.385475 0.501588 0.858813 0.135626
H154  H     H_    0.459598 0.484872 0.700255 0.115724
H155  H     H_    0.446263 0.402731 0.596170 0.120102
H156  H     H_    0.361896 0.330875 0.654746 0.124487

loop_
_geom_bond_atom_site_label_1
_geom_bond_atom_site_label_2
_ccdc_geom_bond_type
C154  H3    S    
C223  H75   S    
C62   C222  S    
C216  H55   S    
C244  C245  A    
C9    C169  A    
C34   C42   A    
C263  C264  A    
C274  C275  A    
C218  H62   S    
O12   Zn7   S    
C17   C217  S    
C218  H60   S    
C181  C187  A    
C251  C252  A    
C67   C227  S    
C27   C99   A    
C85   C182  S    
C140  O46   A    
C197  H31   S    
C170  C178  A    
C12   C174  A    
C195  C196  A    
O33   Zn11  S    
C42   C109  A    
C230  H96   S    
O34   Zn12  S    
C24   C96   A    
C149  H8    S    
C231  H100  S    
C8    O32   A    
C3    O3    A    
C276  H149  S    
C30   C38   A    
C190  C191  A    
C261  C262  A    
O48   Zn9   S    
C271  H145  S    
C228  H92   S    
C5    O5    A    
C273  C274  A    
C203  H36   S    
C125  C237  S    
C147  C155  A    
C20   C220  S    
C241  H120  S    
C226  H86   S    
C123  C131  A    
C219  H64   S    
C277  H150  S    
C90   C177  S    
C11   C167  A    
C82   C98   A    
C157  C167  A    
C73   C81   A    
C222  H73   S    
C14   C214  S    
O15   Zn4   S    
C162  C164  A    
C243  C248  A    
C224  H80   S    
C138  O48   A    
C133  O33   A    
C84   C100  A    
C85   O17   A    
C227  H89   S    
C121  C129  A    
C37   C114  A    
C27   C35   A    
C10   C171  A    
C268  C269  A    
C21   C29   A    
C92   O24   A    
C81   C121  A    
C246  C247  A    
C23   C31   A    
C213  H47   S    
C24   C32   A    
C130  C267  S    
C259  H135  S    
C146  C154  A    
C207  C208  A    
O32   Zn3   S    
C220  H68   S    
C119  C231  S    
O47   Zn10  S    
C227  H87   S    
C202  C203  A    
C88   O20   A    
C63   C71   A    
C2    O2    A    
C223  H77   S    
C229  H93   S    
C235  H113  S    
C279  C280  A    
C188  C207  S    
C18   C218  S    
C250  C251  A    
C175  C183  A    
C260  H136  S    
C246  H124  S    
C217  H59   S    
C272  H146  S    
C176  C184  A    
C21   C42   A    
C48   C96   A    
C269  C270  A    
C90   O14   A    
C200  H34   S    
C131  C273  S    
C232  H102  S    
C189  C194  A    
C148  C162  A    
C257  C258  A    
C233  H106  S    
C191  H26   S    
C183  C188  A    
C240  C241  A    
O35   Zn12  S    
C108  C116  A    
O36   Zn11  S    
C21   C93   A    
C78   C94   A    
C9    C165  A    
O6    Zn6   S    
C23   C95   A    
O27   Zn8   S    
C209  H41   S    
C49   C97   A    
C242  H121  S    
C22   C41   A    
C121  C233  S    
C89   O13   A    
C51   C107  A    
C214  H48   S    
C24   C43   A    
C254  H131  S    
C236  H114  S    
C274  H147  S    
C82   C122  A    
C161  C165  A    
C17   C175  A    
C230  H97   S    
C18   C176  A    
C206  H39   S    
C193  H28   S    
C221  H69   S    
C4    O4    A    
C29   C125  A    
C69   C77   A    
C31   C127  A    
C45   C93   A    
C133  O43   A    
C71   C79   A    
C234  H108  S    
C179  C186  A    
C265  C266  A    
C62   C70   A    
C11   C176  A    
C282  H154  S    
C17   C144  A    
C151  H6    S    
C105  C113  A    
C18   C143  A    
C78   C118  A    
C269  H143  S    
C149  C151  A    
C101  H9    S    
O40   Zn9   S    
C66   C74   A    
C91   O23   A    
C8    C76   S    
C49   C57   A    
C124  C132  A    
C208  H40   S    
C89   O21   A    
C215  H52   S    
C52   C60   A    
C59   C67   A    
C252  C253  A    
C53   C61   A    
C266  H141  S    
C141  C159  A    
C20   C174  A    
C277  C278  A    
C55   C63   A    
C86   C181  S    
C244  H122  S    
C56   C64   A    
C284  H156  S    
C35   C43   A    
C205  H38   S    
O16   Zn3   S    
C10   C166  A    
C156  H1    S    
C45   C53   A    
C162  C166  A    
C193  C194  A    
C22   C94   A    
C171  C179  A    
C169  C177  A    
C51   C59   A    
O43   Zn12  S    
C137  O47   A    
O23   Zn7   S    
O44   Zn11  S    
C50   C98   A    
C262  C263  A    
C190  H25   S    
C135  O35   A    
C28   C36   A    
C271  C272  A    
C225  H83   S    
C104  C112  A    
C273  C278  A    
C145  C163  A    
C1    O25   A    
C240  H119  S    
C132  C279  S    
C14   C147  A    
C52   C100  A    
C135  O41   A    
C16   C216  S    
O1    Zn1   S    
C16   C145  A    
C178  C186  A    
C123  C235  S    
C107  H15   S    
C25   C38   A    
C105  H13   S    
C54   C139  S    
C46   C94   A    
C27   C40   A    
C63   C223  S    
C214  H50   S    
C91   C180  S    
C275  C276  A    
C64   C224  S    
C182  C188  A    
C89   C178  S    
C236  H116  S    
C109  H17   S    
O14   Zn1   S    
C92   O16   A    
O11   Zn8   S    
C255  C260  A    
C25   C97   A    
C243  C244  A    
C276  C277  A    
C221  H71   S    
C194  H29   S    
C67   C75   A    
C229  H95   S    
C111  H19   S    
C234  H110  S    
C187  C201  S    
C247  C248  A    
O24   Zn8   S    
C122  C234  S    
O19   Zn3   S    
C22   C30   A    
C20   C141  A    
C138  O38   A    
C15   C146  A    
O17   Zn1   S    
C58   C135  S    
C68   C76   A    
C59   C134  S    
C207  C212  A    
C184  C187  A    
C115  H23   S    
C32   C128  A    
C113  H21   S    
C144  C152  A    
C233  H105  S    
C56   C137  S    
C60   C133  S    
C143  C151  A    
C134  O34   A    
C61   C221  S    
C252  H129  S    
C5    C73   S    
C15   C215  S    
C150  H7    S    
C228  H91   S    
C250  H127  S    
O21   Zn5   S    
C13   C171  A    
O45   Zn9   S    
C267  C268  A    
C157  C159  A    
C258  C259  A    
C43   C112  A    
C3    O27   A    
C198  H32   S    
C6    O30   A    
C117  C125  A    
C25   C33   A    
C226  H85   S    
C119  C127  A    
C247  H125  S    
O18   Zn2   S    
C237  C238  A    
C225  H82   S    
C280  H152  S    
C191  C192  A    
C140  O40   A    
C76   C84   A    
C80   C120  A    
C222  H72   S    
C158  C168  A    
C224  H79   S    
O7    Zn7   S    
C164  C165  A    
C227  H88   S    
C40   C115  A    
C245  C246  A    
C101  C109  A    
C177  C185  A    
C281  C282  A    
C136  O36   A    
C103  C111  A    
C203  C204  A    
C213  H46   S    
C256  H132  S    
C34   C130  A    
C161  C163  A    
C6    O6    A    
C19   C219  S    
C79   C119  A    
C68   C228  S    
C220  H67   S    
O20   Zn4   S    
C154  C156  A    
C172  C180  A    
C173  C181  A    
C223  H76   S    
C118  C230  S    
C83   C99   A    
C282  C283  A    
C158  C160  A    
C174  C182  A    
C74   C82   A    
O39   Zn10  S    
C218  H61   S    
C6    C74   S    
C128  C255  S    
C211  H43   S    
C217  H58   S    
C229  H94   S    
C47   C103  A    
C256  C257  A    
C50   C58   A    
O37   Zn9   S    
C163  C166  A    
C13   C213  S    
O4    Zn4   S    
C147  C161  A    
C233  H107  S    
C270  H144  S    
C201  C202  A    
C38   C113  A    
C49   C105  A    
C54   C62   A    
C28   C39   A    
C210  C211  A    
C283  H155  S    
C1    C69   S    
C23   C44   A    
C208  C209  A    
O25   Zn6   S    
C86   O18   A    
C281  H153  S    
C3    C71   S    
C253  C254  A    
C19   C173  A    
C79   C95   A    
C196  C197  A    
C92   C179  S    
O3    Zn3   S    
C232  H103  S    
C217  H57   S    
C198  C199  A    
C251  H128  S    
C65   C225  S    
C46   C54   A    
C4    O28   A    
C199  H33   S    
C153  C155  A    
C45   C101  A    
C195  C200  A    
C19   C142  A    
O5    Zn5   S    
C262  H137  S    
C1    O1    A    
C238  C239  A    
C102  C110  A    
C35   C131  A    
C4    C72   S    
C222  H74   S    
C249  C254  A    
C33   C129  A    
C211  C212  A    
C91   O15   A    
O10   Zn5   S    
O2    Zn2   S    
C57   C65   A    
C137  O37   A    
C210  H42   S    
C120  C128  A    
C26   C37   A    
C201  C206  A    
C120  C232  S    
C10   C170  A    
C263  H138  S    
C275  H148  S    
C146  C164  A    
C33   C41   A    
C142  C150  A    
C36   C132  A    
C134  O44   A    
C116  H24   S    
C253  H130  S    
C75   C83   A    
O41   Zn11  S    
C139  O45   A    
O42   Zn12  S    
C215  H51   S    
O46   Zn10  S    
C44   C111  A    
C16   C170  A    
C264  C265  A    
C60   C68   A    
C72   C80   A    
C39   C116  A    
C267  C272  A    
C29   C37   A    
C50   C106  A    
C239  H118  S    
C9    C172  A    
C148  C156  A    
C225  H81   S    
C83   C123  A    
C2    C70   S    
C237  C242  A    
C232  H104  S    
C87   O11   A    
C30   C126  A    
C255  C256  A    
C70   C78   A    
C53   C140  S    
C216  H54   S    
C270  C271  A    
C241  C242  A    
C141  C149  A    
C219  H63   S    
C46   C102  A    
C90   O22   A    
C55   C138  S    
C81   C97   A    
C152  H5    S    
C106  C114  A    
C248  H126  S    
C136  O42   A    
C155  H2    S    
C77   C117  A    
C102  H10   S    
C197  C198  A    
O22   Zn6   S    
C235  H112  S    
C192  H27   S    
C258  H134  S    
C48   C104  A    
C65   C73   A    
C159  C168  A    
C15   C169  A    
C160  C167  A    
O9    Zn6   S    
C58   C66   A    
C214  H49   S    
C264  H139  S    
C280  C281  A    
C57   C136  S    
C236  H115  S    
C204  H37   S    
C230  H98   S    
C127  C249  S    
C28   C100  A    
C32   C40   A    
C259  C260  A    
C221  H70   S    
C212  H44   S    
O28   Zn7   S    
O13   Zn2   S    
C234  H109  S    
C26   C34   A    
C143  C157  A    
C245  H123  S    
C51   C99   A    
C202  H35   S    
C11   C173  A    
C231  H101  S    
C279  C284  A    
C112  H20   S    
C14   C172  A    
C104  H12   S    
C87   C184  S    
C205  C206  A    
C2    O26   A    
C88   C183  S    
C7    C75   S    
C117  C229  S    
C196  H30   S    
C215  H53   S    
C8    O8    A    
C66   C226  S    
C185  C189  S    
C106  H14   S    
C239  C240  A    
C261  C266  A    
C88   O12   A    
C189  C190  A    
C278  H151  S    
C110  H18   S    
C103  H11   S    
C257  H133  S    
C192  C193  A    
C107  C115  A    
C228  H90   S    
C186  C195  S    
C238  H117  S    
C26   C98   A    
C12   C175  A    
C126  C243  S    
C41   C110  A    
C216  H56   S    
C150  C152  A    
C80   C96   A    
O31   Zn4   S    
O38   Zn10  S    
C144  C158  A    
O8    Zn8   S    
C209  C210  A    
C77   C93   A    
C47   C55   A    
C226  H84   S    
C219  H65   S    
C61   C69   A    
C145  C153  A    
C48   C56   A    
C283  C284  A    
O26   Zn5   S    
C139  O39   A    
C142  C160  A    
C12   C168  A    
C268  H142  S    
C84   C124  A    
C86   O10   A    
C224  H78   S    
O29   Zn2   S    
C129  C261  S    
C199  C200  A    
C114  H22   S    
C7    O7    A    
C108  H16   S    
C124  C236  S    
C231  H99   S    
C85   O9    A    
C265  H140  S    
C87   O19   A    
O30   Zn1   S    
C31   C39   A    
C235  H111  S    
C64   C72   A    
C213  H45   S    
C36   C44   A    
C180  C185  A    
C249  C250  A    
C52   C108  A    
C204  C205  A    
C7    O31   A    
C47   C95   A    
C118  C126  A    
C13   C148  A    
C5    O29   A    
C220  H66   S    
C122  C130  A    
C153  H4    S    
