data_mof_unit_40381.cif
_audit_creation_date              2012-12-10T19:16:27-0500
_audit_creation_method            fapswitch 2.2
_symmetry_space_group_name_H-M    P1
_symmetry_Int_Tables_number       1
_space_group_crystal_system       triclinic
_cell_length_a                    10.643765
_cell_length_b                    9.76373
_cell_length_c                    27.451287
_cell_angle_alpha                 90.565444
_cell_angle_beta                  90.488107
_cell_angle_gamma                 90.266047
_cell_volume                      2852.54159678

loop_
_atom_site_label
_atom_site_type_symbol
_atom_type_description
_atom_site_fract_x
_atom_site_fract_y
_atom_site_fract_z
_atom_type_partial_charge
C1    C     C_R   0.257889 0.499552 0.499754 0.879676
C2    C     C_R   0.519591 0.653206 0.971885 0.043472
C3    C     C_R   0.698181 0.492750 0.974597 0.043721
C4    C     C_R   0.501169 0.499534 0.405820 0.869573
C5    C     C_R   0.611698 0.573425 0.947786 0.074228
C6    C     C_R   0.444428 0.742590 0.943962 -0.213479
C7    C     C_R   0.449425 0.741423 0.893529 -0.124478
C8    C     C_R   0.530143 0.652027 0.869323 -0.027678
C9    C     C_R   0.614351 0.570951 0.896225 -0.051147
C10   C     C_R   0.698235 0.484149 0.871462 -0.026845
C11   C     C_R   0.690087 0.472882 0.820594 0.520115
C12   C     C_R   0.550724 0.622442 0.278802 -0.110691
C13   C     C_R   0.526202 0.638750 0.818625 0.517798
C14   C     C_R   0.475091 0.448985 0.729659 -0.133888
C15   C     C_R   0.444286 0.436780 0.680021 -0.056528
C16   C     C_R   0.742557 0.500008 0.499997 0.842278
C17   C     C_R   0.636109 0.564845 0.661933 -0.220881
C18   C     C_R   0.664582 0.576018 0.711150 -0.074302
C19   C     C_R   0.582476 0.521105 0.745008 0.290966
C20   C     C_R   0.503404 0.638599 0.022656 0.045353
C21   C     C_R   0.590425 0.559125 0.049632 0.073988
C22   C     C_R   0.691901 0.492228 0.026192 0.043415
C23   C     C_R   0.526916 0.503715 0.251340 0.242614
C24   C     C_R   0.399449 0.695910 0.047143 -0.209966
C25   C     C_R   0.767239 0.413700 0.105383 -0.128882
C26   C     C_R   0.784777 0.410972 0.948580 -0.210452
C27   C     C_R   0.784228 0.406528 0.897988 -0.127479
C28   C     C_R   0.500846 0.500291 0.593950 0.967171
C29   C     C_R   0.781757 0.424053 0.055333 -0.210748
C30   C     C_3   0.074155 0.576974 0.545185 -0.402176
C31   C     C_3   0.071119 0.349363 0.500526 -0.403401
C32   C     C_3   0.930301 0.582055 0.544195 -0.384791
C33   C     C_3   0.928741 0.350303 0.502826 -0.359342
C34   C     C_R   0.574527 0.544485 0.100493 -0.049268
C35   C     C_3   0.071759 0.569023 0.452952 -0.402343
C36   C     C_3   0.121652 0.498660 0.499618 0.163986
C37   C     C_3   0.879219 0.499478 0.499775 0.141518
C38   C     C_3   0.927303 0.565264 0.452272 -0.395547
C39   C     C_3   0.376304 0.080078 0.482720 -0.280544
C40   C     C_3   0.379622 0.917838 0.479237 -0.278070
C41   C     C_3   0.593097 0.080180 0.464353 -0.239544
C42   C     C_3   0.600850 0.919419 0.467879 -0.227197
C43   C     C_3   0.524397 0.084268 0.548764 -0.132583
C44   C     C_3   0.513074 0.922281 0.549482 -0.122623
C45   C     C_R   0.469691 0.602581 0.123686 -0.027588
C46   C     C_R   0.453687 0.583525 0.173647 0.563628
C47   C     C_R   0.644619 0.456887 0.178367 0.556743
C48   C     C_R   0.492235 0.380362 0.274443 0.013435
C49   C     C_R   0.484927 0.379848 0.325482 -0.274514
C50   C     C_R   0.540743 0.621031 0.328973 -0.200797
C51   C     C_2   0.461406 0.252928 0.246469 0.945879
C52   C     C_2   0.646970 0.138711 0.571231 0.972047
C53   C     C_2   0.614146 0.860829 0.581601 0.967170
C54   C     C_2   0.328243 0.359403 0.665705 0.926776
C55   C     C_R   0.382922 0.677680 0.096675 -0.134564
C56   C     C_R   0.662734 0.470693 0.128178 -0.020817
C57   C     C_R   0.508324 0.499814 0.352689 -0.064598
C58   C     C_R   0.524381 0.501310 0.646134 -0.067076
H1    H     H_    0.560249 0.714662 0.349199 0.158974
H2    H     H_    0.108865 0.293788 0.532641 0.185535
H3    H     H_    0.892332 0.540291 0.578706 0.162984
H4    H     H_    0.899383 0.304513 0.537862 0.222280
H5    H     H_    0.901401 0.690749 0.541531 0.241278
H6    H     H_    0.890132 0.285951 0.472442 0.185127
H7    H     H_    0.104550 0.677403 0.451844 0.178590
H8    H     H_    0.108146 0.516016 0.419901 0.165289
H9    H     H_    0.890787 0.671383 0.448618 0.178997
H10   H     H_    0.893326 0.505064 0.420079 0.168357
H11   H     H_    0.349310 0.122923 0.446734 0.165434
H12   H     H_    0.837927 0.359281 0.126092 0.194272
H13   H     H_    0.366205 0.884317 0.440667 0.167812
H14   H     H_    0.301301 0.111961 0.508385 0.158895
H15   H     H_    0.298523 0.875460 0.499506 0.160109
H16   H     H_    0.566603 0.107914 0.426391 0.153971
H17   H     H_    0.593923 0.873978 0.430650 0.144721
H18   H     H_    0.449260 0.123846 0.573096 0.147515
H19   H     H_    0.424913 0.897502 0.569326 0.113289
H20   H     H_    0.686917 0.127472 0.469669 0.190909
H21   H     H_    0.694970 0.890304 0.481697 0.203887
H22   H     H_    0.301048 0.722385 0.113675 0.191962
H23   H     H_    0.850845 0.344024 0.966161 0.145777
H24   H     H_    0.413915 0.406235 0.757019 0.173992
H25   H     H_    0.380678 0.815158 0.960069 0.146614
H26   H     H_    0.326007 0.751156 0.028714 0.145795
H27   H     H_    0.458623 0.286689 0.344046 0.184687
H28   H     H_    0.411486 0.164788 0.182283 0.351978
H29   H     H_    0.865578 0.378763 0.040659 0.146212
H30   H     H_    0.577555 0.716451 0.260927 0.157208
H31   H     H_    0.731399 0.234346 0.628338 0.342315
H32   H     H_    0.680470 0.846518 0.650493 0.343667
H33   H     H_    0.199330 0.310314 0.614206 0.331337
H34   H     H_    0.701329 0.606725 0.635859 0.155065
H35   H     H_    0.387132 0.808525 0.873567 0.195361
H36   H     H_    0.849917 0.339304 0.879750 0.193967
H37   H     H_    0.748547 0.630229 0.723038 0.148415
H38   H     H_    0.112281 0.683383 0.546252 0.182798
H39   H     H_    0.101014 0.292554 0.467218 0.174398
H40   H     H_    0.106287 0.525509 0.578945 0.205352
N1    N     N_R   0.540566 0.511678 0.199751 -0.335413
N2    N     N_R   0.602326 0.546691 0.795695 -0.355936
N3    N     N_3   0.499750 0.138610 0.498940 -0.086653
N4    N     N_3   0.499750 0.861390 0.498940 -0.074698
O1    O     O_R   0.314910 0.616040 0.499990 -0.642740
O2    O     O_2   0.445047 0.714825 0.792364 -0.532199
O3    O     O_2   0.730051 0.389748 0.205666 -0.560230
O4    O     O_2   0.766504 0.386496 0.796328 -0.539739
O5    O     O_2   0.460892 0.142355 0.267058 -0.634561
O6    O     O_R   0.430602 0.258419 0.196907 -0.800486
O7    O     O_2   0.747912 0.113789 0.552342 -0.677584
O8    O     O_R   0.644662 0.205384 0.616532 -0.779509
O9    O     O_2   0.710243 0.813932 0.564592 -0.646760
O10   O     O_R   0.601273 0.872569 0.632132 -0.785909
O11   O     O_2   0.276311 0.286123 0.695401 -0.596533
O12   O     O_R   0.314910 0.383960 0.499990 -0.623638
O13   O     O_R   0.276913 0.369739 0.618917 -0.843517
O14   O     O_R   0.500140 0.616020 0.428740 -0.631490
O15   O     O_R   0.500140 0.383980 0.428740 -0.629896
O16   O     O_R   0.685320 0.616040 0.499970 -0.593069
O17   O     O_R   0.685320 0.383960 0.499970 -0.636792
O18   O     O_R   0.500090 0.616050 0.571230 -0.625969
O19   O     O_R   0.500090 0.383950 0.571230 -0.579229
O20   O     O_2   0.352343 0.636494 0.196159 -0.547477
Zn1   Zn    Zn3+2 0.500150 0.654960 0.499980 0.941821
Zn2   Zn    Zn3+2 0.500150 0.345040 0.499980 0.942357

loop_
_geom_bond_atom_site_label_1
_geom_bond_atom_site_label_2
_ccdc_geom_bond_type
C10   C27   A    
C23   N1    S    
C46   N1    A    
C34   C56   A    
C8    C13   A    
O14   Zn1   S    
C41   C42   S    
C35   C36   S    
C25   C56   A    
H32   O10   S    
O1    Zn1   S    
C47   N1    A    
C7    C8    A    
O17   Zn2   S    
C24   C55   A    
C12   C23   A    
C42   H17   S    
C50   H1    S    
C44   H19   S    
C22   C29   A    
O15   Zn2   S    
C32   H3    S    
C33   H4    S    
C43   C52   S    
C35   H7    S    
C54   O11   D    
C49   C57   A    
C40   H15   S    
C18   C19   A    
O19   Zn2   S    
C30   H38   S    
C41   H16   S    
C44   C53   S    
C48   C51   S    
C27   H36   S    
C20   C24   A    
C41   N3    S    
C51   O6    S    
C47   O3    S    
C4    C57   S    
C39   H14   S    
C31   C33   S    
C23   C48   A    
C9    C10   A    
C1    O1    A    
O18   Zn1   S    
C16   C37   S    
O12   Zn2   S    
C53   O9    D    
C42   H21   S    
C21   C22   A    
C18   H37   S    
C2    C6    A    
C17   H34   S    
C42   N4    S    
C39   N3    S    
C25   C29   A    
C7    H35   S    
N3    Zn2   S    
C12   H30   S    
C2    C20   A    
C15   C54   S    
C49   H27   S    
C35   C38   S    
C28   O18   A    
C16   O17   A    
C41   H20   S    
C44   N4    S    
C28   O19   A    
C8    C9    A    
C21   C34   A    
C35   H8    S    
C45   C46   A    
H31   O8    S    
C33   C37   S    
C11   N2    A    
C31   H2    S    
C43   C44   S    
C43   N3    S    
C5    C9    A    
C37   C38   S    
C16   O16   A    
C52   O8    S    
C54   O13   S    
C11   O4    S    
C17   C18   A    
C26   C27   A    
C34   C45   A    
C32   C37   S    
C38   H9    S    
C13   O2    S    
C40   H13   S    
C53   O10   S    
C48   C49   A    
C38   H10   S    
C26   H23   S    
C15   C58   A    
C4    O15   A    
C2    C5    A    
C1    O12   A    
C14   H24   S    
N4    Zn1   S    
C39   C40   S    
C43   H18   S    
C30   H40   S    
C6    H25   S    
C31   C36   S    
C50   C57   A    
C14   C19   A    
C4    O14   A    
C3    C26   A    
H28   O6    S    
C32   H5    S    
C3    C5    A    
C12   C50   A    
C19   N2    S    
C6    C7    A    
C28   C58   S    
C17   C58   A    
C30   C36   S    
C13   N2    A    
C24   H26   S    
C30   C32   S    
C55   H22   S    
C52   O7    D    
C33   H6    S    
C39   H11   S    
H33   O13   S    
O16   Zn1   S    
C31   H39   S    
C29   H29   S    
C10   C11   A    
C40   N4    S    
C20   C21   A    
C45   C55   A    
C51   O5    D    
C14   C15   A    
C46   O20   S    
C3    C22   A    
C25   H12   S    
C1    C36   S    
C47   C56   A    
