data_mof_unit_62149.cif
_audit_creation_date              2013-03-05T16:15:21-0500
_audit_creation_method            fapswitch 2.2
_symmetry_space_group_name_H-M    P1
_symmetry_Int_Tables_number       1
_space_group_crystal_system       triclinic
_cell_length_a                    23.542935
_cell_length_b                    14.258516
_cell_length_c                    13.361197
_cell_angle_alpha                 89.966221
_cell_angle_beta                  89.966344
_cell_angle_gamma                 90.013663
_cell_volume                      4485.18267009

loop_
_atom_site_label
_atom_site_type_symbol
_atom_site_description
_atom_site_fract_x
_atom_site_fract_y
_atom_site_fract_z
_atom_type_partial_charge
O1    O     O_R   0.500000 0.373710 0.576470 -0.598420
O2    O     O_R   0.500000 0.626290 0.423530 -0.598421
O3    O     O_R   0.500000 0.626290 0.576470 -0.600046
O4    O     O_R   0.500000 0.373710 0.423530 -0.600046
C1    C     C_R   0.500014 0.326534 0.500022 0.921879
C2    C     C_R   0.499985 0.673466 0.499978 0.921883
O5    O     O_R   0.416150 0.500000 0.576470 -0.597923
O6    O     O_R   0.583850 0.500000 0.423530 -0.597922
O7    O     O_R   0.583850 0.500000 0.576470 -0.597337
O8    O     O_R   0.416150 0.500000 0.423530 -0.597334
C3    C     C_R   0.387671 0.500190 0.500034 1.012348
C4    C     C_R   0.612329 0.499810 0.499966 1.012353
Zn1   Zn    Zn3+2 0.500000 0.500000 0.602090 0.996842
Zn2   Zn    Zn3+2 0.500000 0.500000 0.397910 0.996844
C5    C     C_R   0.881132 0.566035 0.444719 0.624455
C6    C     C_R   0.118867 0.433963 0.555279 0.624457
C7    C     C_R   0.881085 0.434041 0.555428 0.623439
C8    C     C_R   0.118914 0.565959 0.444572 0.623441
N1    N     N_R   0.853094 0.500025 0.500061 -0.308609
N2    N     N_R   0.146905 0.499974 0.499938 -0.308612
C9    C     C_R   0.940378 0.432643 0.556686 -0.043027
C10   C     C_R   0.059620 0.567357 0.443313 -0.043031
C11   C     C_R   0.940427 0.567424 0.443425 -0.043925
C12   C     C_R   0.059571 0.432575 0.556573 -0.043928
C13   C     C_R   0.970166 0.500018 0.500029 -0.008266
C14   C     C_R   0.029832 0.499981 0.499969 -0.008269
C15   C     C_R   0.970387 0.365798 0.612811 -0.124721
C16   C     C_R   0.029611 0.634202 0.387188 -0.124720
C17   C     C_R   0.970486 0.634235 0.387245 -0.124695
C18   C     C_R   0.029512 0.365763 0.612754 -0.124694
O9    O     O_2   0.851557 0.629995 0.391500 -0.526884
O10   O     O_2   0.148441 0.370003 0.608496 -0.526878
O11   O     O_2   0.851465 0.370070 0.608648 -0.529784
O12   O     O_2   0.148534 0.629930 0.391353 -0.529777
H1    H     H_    0.948332 0.313397 0.656868 0.199208
H2    H     H_    0.051666 0.686602 0.343131 0.199208
H3    H     H_    0.948470 0.686654 0.343220 0.199318
H4    H     H_    0.051528 0.313345 0.656778 0.199319
C19   C     C_R   0.236311 0.541614 0.579639 0.599151
C20   C     C_R   0.763688 0.458361 0.420374 0.599150
C21   C     C_R   0.236558 0.459122 0.420735 0.593698
C22   C     C_R   0.763441 0.540901 0.579251 0.593697
C23   C     C_R   0.295743 0.542580 0.580448 -0.067691
C24   C     C_R   0.704256 0.457395 0.419567 -0.067687
C25   C     C_R   0.295749 0.458960 0.420067 -0.081951
C26   C     C_R   0.704249 0.541063 0.579918 -0.081951
C27   C     C_R   0.325595 0.500699 0.500125 -0.235450
C28   C     C_R   0.674404 0.499301 0.499875 -0.235444
C29   C     C_R   0.207284 0.500138 0.500140 0.023077
C30   C     C_R   0.792715 0.499861 0.499859 0.023086
C31   C     C_1   0.500015 0.225895 0.500052 -0.204460
C32   C     C_1   0.499984 0.774104 0.499948 -0.204459
C33   C     C_1   0.500012 0.141332 0.500042 0.010474
C34   C     C_1   0.499988 0.858668 0.499958 0.010474
C35   C     C_1   0.500004 0.042280 0.500014 0.029313
C36   C     C_1   0.499996 0.957720 0.499986 0.029313
N3    N     N_1   0.500000 0.500000 0.261870 -0.058711
N4    N     N_1   0.500000 0.500000 0.738130 -0.058712
C37   C     C_1   0.499999 0.499995 0.169405 0.101059
C38   C     C_1   0.500001 0.500005 0.830595 0.101058
C39   C     C_1   0.500000 0.499997 0.049526 -0.028021
C40   C     C_1   0.500000 0.500003 0.950474 -0.028021
F1    F     F_    0.206234 0.582048 0.654931 -0.636569
F2    F     F_    0.793765 0.417906 0.345095 -0.636571
F3    F     F_    0.207290 0.418681 0.344539 -0.632786
F4    F     F_    0.792709 0.581365 0.655433 -0.632789
N5    N     N_3   0.326099 0.587578 0.660632 -0.395325
H5    H     H_    0.343550 0.649493 0.632038 0.186981
H6    H     H_    0.298738 0.606970 0.718616 0.260218
N6    N     N_3   0.673899 0.412372 0.339399 -0.395324
H7    H     H_    0.656442 0.350473 0.368018 0.186967
H8    H     H_    0.701261 0.392950 0.281426 0.260219
N7    N     N_3   0.325522 0.414469 0.339368 -0.403887
H9    H     H_    0.312803 0.344262 0.336281 0.228975
H10   H     H_    0.313354 0.446853 0.272501 0.238052
N8    N     N_3   0.674476 0.585580 0.660602 -0.403897
H11   H     H_    0.687195 0.655788 0.663663 0.228975
H12   H     H_    0.686645 0.553217 0.727480 0.238053

loop_
_geom_bond_atom_site_label_1
_geom_bond_atom_site_label_2
_geom_bond_distance
_ccdc_geom_bond_type
C35   C36   1.205688 T    
N7    H9    1.045642 S    
C3    C27   1.461473 S    
C4    C28   1.461461 S    
O3    C2    1.223192 A    
C26   N8    1.434048 S    
C5    N1    1.366259 A    
O1    C1    1.223360 A    
C11   C17   1.403557 A    
C25   N7    1.434050 S    
C16   C17   1.391985 A    
N8    H12   1.045640 S    
N3    C37   1.235446 T    
N4    C38   1.235446 T    
C18   H4    1.083186 S    
C38   C40   1.601723 S    
C22   C26   1.393567 A    
C25   C27   1.411922 A    
O7    Zn1   2.003337 S    
C24   N6    1.439348 S    
N6    H7    1.045638 S    
O3    Zn1   1.832757 S    
C6    N2    1.366260 A    
C5    C11   1.396225 A    
C9    C15   1.403566 A    
C6    C12   1.396223 A    
C10   C16   1.403566 A    
C15   C18   1.391985 A    
N7    H10   1.045637 S    
O2    C2    1.223360 A    
C7    O11   1.349902 S    
C21   C29   1.393809 A    
C32   C34   1.205743 T    
C26   C28   1.411915 A    
C33   C35   1.412348 S    
C34   C36   1.412348 S    
C37   C39   1.601723 S    
N5    H5    1.045630 S    
N8    H11   1.045644 S    
O8    Zn2   2.003339 S    
C21   F3    1.358337 S    
Zn1   N4    1.817657 S    
C15   H1    1.083187 S    
C13   C14   1.404717 A    
C7    C9    1.396206 A    
N5    H6    1.044692 S    
O5    C3    1.222029 A    
N2    C29   1.421504 S    
C20   C24   1.399326 A    
O6    C4    1.222025 A    
C8    O12   1.349902 S    
C22   C30   1.393809 A    
C19   C29   1.395141 A    
O1    Zn1   1.833155 S    
Zn2   N3    1.817657 S    
C9    C13   1.409236 A    
O6    Zn2   2.003733 S    
C8    C10   1.396206 A    
C12   C14   1.409255 A    
O4    C1    1.223192 A    
C19   C23   1.399326 A    
C5    O9    1.349895 S    
C6    O10   1.349895 S    
C19   F1    1.358611 S    
C20   F2    1.358615 S    
C2    C32   1.434957 S    
N1    C30   1.421502 S    
C20   C30   1.395140 A    
C7    N1    1.366287 A    
C8    N2    1.366292 A    
C11   C13   1.409255 A    
O4    Zn2   1.832758 S    
C39   C40   1.323455 T    
O2    Zn2   1.833153 S    
O7    C4    1.222130 A    
C12   C18   1.403560 A    
O8    C3    1.222134 A    
O5    Zn1   2.003735 S    
C16   H2    1.083187 S    
C23   N5    1.439347 S    
C10   C14   1.409235 A    
C17   H3    1.083187 S    
C22   F4    1.358340 S    
C21   C25   1.393567 A    
C1    C31   1.434957 S    
N6    H8    1.044700 S    
C31   C33   1.205743 T    
C23   C27   1.415050 A    
C24   C28   1.415048 A    
