data_mof_unit_64200.cif
_audit_creation_date              2012-12-10T20:04:41-0500
_audit_creation_method            fapswitch 2.2
_symmetry_space_group_name_H-M    P1
_symmetry_Int_Tables_number       1
_space_group_crystal_system       triclinic
_cell_length_a                    10.8246
_cell_length_b                    19.356316
_cell_length_c                    18.448976
_cell_angle_alpha                 89.49387
_cell_angle_beta                  103.956238
_cell_angle_gamma                 90.314192
_cell_volume                      3751.23245745

loop_
_atom_site_label
_atom_site_type_symbol
_atom_type_description
_atom_site_fract_x
_atom_site_fract_y
_atom_site_fract_z
_atom_type_partial_charge
C1    C     C_R   0.500000 0.365580 0.500395 0.901498
C2    C     C_R   0.499991 0.634419 0.499604 0.910662
C3    C     C_R   0.500233 0.709647 0.498936 -0.186226
C4    C     C_R   0.499689 0.290356 0.501048 -0.183388
C5    C     C_R   0.420902 0.963408 0.536780 -0.171265
C6    C     C_R   0.578767 0.036597 0.463141 -0.171461
C7    C     C_R   0.419924 0.034952 0.536533 -0.172933
C8    C     C_R   0.579744 0.965054 0.463388 -0.172766
C9    C     C_R   0.498877 0.071653 0.499727 0.138736
C10   C     C_R   0.500796 0.928353 0.500196 0.138603
C11   C     C_R   0.577596 0.544544 0.736471 -0.129473
C12   C     C_R   0.421986 0.455669 0.263472 -0.131747
C13   C     C_R   0.579243 0.545524 0.812794 -0.166048
C14   C     C_R   0.420371 0.454667 0.187155 -0.165849
C15   C     C_R   0.500248 0.500303 0.841449 0.191220
C16   C     C_R   0.499785 0.499668 0.158550 0.190438
C17   C     C_R   0.421267 0.454902 0.791582 -0.250762
C18   C     C_R   0.579202 0.544846 0.208485 -0.252566
C19   C     C_R   0.422574 0.455511 0.715696 0.775253
C20   C     C_R   0.577920 0.544230 0.284376 0.778012
C21   C     C_R   0.384986 0.502488 0.945554 0.497426
C22   C     C_R   0.615049 0.497458 0.054425 0.497142
C23   C     C_R   0.258844 0.498083 0.469037 0.942222
C24   C     C_R   0.741141 0.498144 0.530993 0.943049
C25   C     C_R   0.384829 0.502154 0.021715 0.515247
C26   C     C_R   0.615202 0.497821 0.978263 0.515444
C27   C     C_R   0.499856 0.499639 0.077263 -0.341171
C28   C     C_R   0.500177 0.500325 0.922725 -0.341724
C29   C     C_2   0.122631 0.490628 0.451396 -0.344990
C30   C     C_2   0.877259 0.490681 0.548737 -0.335994
C31   C     C_2   0.067627 0.477301 0.507147 -0.125926
C32   C     C_2   0.932052 0.477380 0.493181 -0.132631
C33   C     C_R   0.491666 0.746869 0.432007 0.671983
C34   C     C_R   0.508192 0.253126 0.567966 0.671499
C35   C     C_R   0.492149 0.818416 0.432814 -0.252322
C36   C     C_R   0.507604 0.181579 0.567137 -0.253304
C37   C     C_R   0.501037 0.853345 0.499898 0.014578
C38   C     C_R   0.498681 0.146660 0.500043 0.014843
C39   C     C_R   0.509512 0.816596 0.566496 -0.160673
C40   C     C_R   0.490267 0.183420 0.433458 -0.161416
C41   C     C_R   0.509160 0.745067 0.566056 -0.261207
C42   C     C_R   0.490724 0.254948 0.433920 -0.262646
H1    H     H_    0.877239 0.471516 0.435765 0.204656
H2    H     H_    0.122332 0.471340 0.564648 0.225671
H3    H     H_    0.640703 0.581890 0.848958 0.200225
H4    H     H_    0.358600 0.418447 0.150959 0.200589
H5    H     H_    0.360013 0.418631 0.811350 0.209659
H6    H     H_    0.640809 0.580946 0.188777 0.210700
H7    H     H_    0.932416 0.496755 0.605983 0.173968
H8    H     H_    0.067572 0.496789 0.394055 0.177875
H9    H     H_    0.484008 0.846634 0.380895 0.172595
H10   H     H_    0.515705 0.153352 0.619047 0.172644
H11   H     H_    0.517623 0.843269 0.618830 0.157226
H12   H     H_    0.482135 0.156756 0.381117 0.157232
H13   H     H_    0.516332 0.717630 0.618330 0.188628
H14   H     H_    0.483598 0.282393 0.381655 0.188517
H15   H     H_    0.358324 0.935427 0.564575 0.145984
H16   H     H_    0.641353 0.064577 0.435351 0.145798
H17   H     H_    0.356764 0.061664 0.564263 0.149791
H18   H     H_    0.642910 0.938343 0.435661 0.149935
H19   H     H_    0.638270 0.579582 0.714696 0.169349
H20   H     H_    0.360976 0.420807 0.285204 0.169757
N1    N     N_R   0.500020 0.499980 0.689440 -0.147276
N2    N     N_R   0.499980 0.500020 0.310560 -0.149326
O1    O     O_R   0.500000 0.398180 0.560840 -0.509485
O2    O     O_R   0.500000 0.601820 0.439160 -0.507168
O3    O     O_R   0.499950 0.398180 0.439200 -0.655449
O4    O     O_R   0.500050 0.601820 0.560800 -0.651584
O5    O     O_R   0.317830 0.500010 0.538110 -0.588892
O6    O     O_R   0.682170 0.499990 0.461890 -0.585479
O7    O     O_R   0.317770 0.500000 0.416470 -0.618035
O8    O     O_R   0.682230 0.500000 0.583530 -0.619348
Zn1   Zn    Zn3+2 0.500040 0.500000 0.581220 1.036639
Zn2   Zn    Zn3+2 0.499960 0.500000 0.418780 1.036977
F1    F     F_    0.346268 0.411315 0.668295 -0.626998
F2    F     F_    0.654806 0.588128 0.331867 -0.616184
F3    F     F_    0.272123 0.506965 0.894025 -0.588573
F4    F     F_    0.727921 0.492931 0.105938 -0.588770
F5    F     F_    0.271845 0.506401 0.041108 -0.571038
F6    F     F_    0.728176 0.493616 0.958851 -0.570981
F7    F     F_    0.481788 0.714666 0.365751 -0.614694
F8    F     F_    0.518110 0.285320 0.634229 -0.614505

loop_
_geom_bond_atom_site_label_1
_geom_bond_atom_site_label_2
_ccdc_geom_bond_type
C30   C32   D    
C6    H16   S    
C6    C9    A    
C24   O6    A    
C14   H4    S    
C10   C37   S    
C23   C29   S    
C38   C40   A    
C2    O4    A    
C12   N2    A    
C3    C33   A    
O2    Zn2   S    
O1    Zn1   S    
C20   F2    S    
C15   C17   A    
C23   O5    A    
C41   H13   S    
C42   H14   S    
C19   N1    A    
O6    Zn2   S    
C1    O1    A    
O5    Zn1   S    
C18   C20   A    
C36   H10   S    
C16   C27   S    
C40   C42   A    
C7    H17   S    
C29   H8    S    
C4    C34   A    
C31   H2    S    
C23   O7    A    
C22   F4    S    
C39   C41   A    
C5    C7    A    
C17   C19   A    
C6    C8    A    
N1    Zn1   S    
C2    O2    A    
O4    Zn1   S    
C26   F6    S    
C20   N2    A    
C12   H20   S    
C31   C32   S    
O3    Zn2   S    
C8    C10   A    
C30   H7    S    
C12   C14   A    
C40   H12   S    
C22   C27   A    
C13   C15   A    
C35   H9    S    
C14   C16   A    
C24   O8    A    
C7    C9    A    
C21   C25   A    
C3    C41   A    
C35   C37   A    
C25   F5    S    
C21   C28   A    
C16   C18   A    
C17   H5    S    
O8    Zn1   S    
C11   H19   S    
C18   H6    S    
O7    Zn2   S    
C1    O3    A    
C25   C27   A    
C26   C28   A    
C5    H15   S    
C1    C4    S    
C19   F1    S    
C2    C3    S    
C5    C10   A    
C37   C39   A    
C8    H18   S    
C13   H3    S    
C11   C13   A    
C15   C28   S    
C39   H11   S    
C4    C42   A    
C36   C38   A    
C9    C38   S    
C33   C35   A    
C32   H1    S    
C34   C36   A    
C24   C30   S    
C29   C31   D    
C22   C26   A    
C21   F3    S    
N2    Zn2   S    
C34   F8    S    
C11   N1    A    
C33   F7    S    
