data_mof_unit_45360.cif
_audit_creation_date              2013-03-05T15:45:23-0500
_audit_creation_method            fapswitch 2.2
_symmetry_space_group_name_H-M    P1
_symmetry_Int_Tables_number       1
_space_group_crystal_system       triclinic
_cell_length_a                    11.296141
_cell_length_b                    11.172882
_cell_length_c                    18.654374
_cell_angle_alpha                 89.112779
_cell_angle_beta                  90.321283
_cell_angle_gamma                 119.38774
_cell_volume                      2051.16167524

loop_
_atom_site_label
_atom_site_type_symbol
_atom_site_description
_atom_site_fract_x
_atom_site_fract_y
_atom_site_fract_z
_atom_type_partial_charge
O1    O     O_R   0.916700 0.566820 0.669930 -0.419459
O2    O     O_R   0.650120 0.083300 0.830070 -0.443243
O3    O     O_R   0.433180 0.349880 0.669930 -0.415071
O4    O     O_R   0.916700 0.566820 0.830070 -0.414712
O5    O     O_R   0.650120 0.083300 0.669930 -0.417880
O6    O     O_R   0.433180 0.349880 0.830070 -0.420286
O7    O     O_R   0.566820 0.916700 0.169930 -0.437108
O8    O     O_R   0.083300 0.650120 0.330070 -0.402484
O9    O     O_R   0.349880 0.433180 0.169930 -0.430519
O10   O     O_R   0.566820 0.916700 0.330070 -0.438511
O11   O     O_R   0.083300 0.650120 0.169930 -0.434494
O12   O     O_R   0.349880 0.433180 0.330070 -0.437218
O13   O     O_R   0.649840 0.534790 0.674920 -0.472343
O14   O     O_R   0.884950 0.350160 0.825080 -0.476416
O15   O     O_R   0.465210 0.115050 0.674920 -0.464805
O16   O     O_R   0.649840 0.534790 0.825080 -0.480332
O17   O     O_R   0.884950 0.350160 0.674920 -0.468651
O18   O     O_R   0.465210 0.115050 0.825080 -0.465929
O19   O     O_R   0.534790 0.649840 0.174920 -0.461743
O20   O     O_R   0.350160 0.884950 0.325080 -0.482203
O21   O     O_R   0.115050 0.465210 0.174920 -0.462791
O22   O     O_R   0.534790 0.649840 0.325080 -0.472430
O23   O     O_R   0.350160 0.884950 0.174920 -0.473901
O24   O     O_R   0.115050 0.465210 0.325080 -0.445621
C1    C     C_R   0.531306 0.468920 0.646919 0.598977
C2    C     C_R   0.934589 0.465284 0.854416 0.601996
C3    C     C_R   0.531222 0.061053 0.647563 0.623949
C4    C     C_R   0.531686 0.469071 0.852523 0.576580
C5    C     C_R   0.937925 0.470138 0.647371 0.616083
C6    C     C_R   0.536476 0.070659 0.857131 0.588532
C7    C     C_R   0.461355 0.531419 0.144262 0.603769
C8    C     C_R   0.470268 0.929980 0.355302 0.583839
C9    C     C_R   0.066180 0.536918 0.145453 0.624368
C10   C     C_R   0.457478 0.530195 0.355734 0.587308
C11   C     C_R   0.471272 0.942077 0.147107 0.580609
C12   C     C_R   0.116974 0.567266 0.361048 0.538003
Cr1   Cr    Cr6+3 0.776430 0.541680 0.750000 1.232242
Cr2   Cr    Cr6+3 0.765250 0.223570 0.750000 1.225485
Cr3   Cr    Cr6+3 0.458320 0.234750 0.750000 1.236157
Cr4   Cr    Cr6+3 0.541680 0.776430 0.250000 1.208702
Cr5   Cr    Cr6+3 0.223570 0.765250 0.250000 1.211649
Cr6   Cr    Cr6+3 0.234750 0.458320 0.250000 1.220771
O25   O     O_3   0.666667 0.333333 0.750000 -0.380555
O26   O     O_3   0.333333 0.666667 0.250000 -0.406606
C13   C     C_R   0.417619 0.049096 0.530533 0.192367
C14   C     C_R   0.635876 0.598625 0.965011 0.175635
C15   C     C_R   0.935135 0.381314 0.526821 0.215704
C16   C     C_R   0.390282 0.045891 0.970851 0.174826
C17   C     C_R   0.632561 0.574402 0.528652 0.176052
C18   C     C_R   0.953917 0.349490 0.970914 0.156165
C19   C     C_R   0.960946 0.371087 0.047068 0.190781
C20   C     C_R   0.610297 0.562128 0.454786 0.186870
C21   C     C_R   0.388684 0.043634 0.048714 0.175732
C22   C     C_R   0.967779 0.408360 0.454676 0.225557
C23   C     C_R   0.619214 0.594240 0.039711 0.184785
C24   C     C_R   0.434188 0.047262 0.456127 0.199594
C25   C     C_R   0.492574 0.972803 0.429833 -0.016024
C26   C     C_R   0.487463 0.520535 0.068296 -0.023259
C27   C     C_R   0.069632 0.538966 0.434286 -0.027893
C28   C     C_R   0.495240 0.034475 0.083691 0.015538
C29   C     C_R   0.478402 0.509959 0.430075 -0.017334
C30   C     C_R   0.021966 0.507036 0.071168 -0.001512
C31   C     C_R   0.997329 0.468346 0.924335 0.012860
C32   C     C_R   0.519582 0.520504 0.576580 0.008619
C33   C     C_R   0.497075 0.032422 0.934246 -0.016885
C34   C     C_R   0.001390 0.485650 0.578000 0.027999
C35   C     C_R   0.521088 0.526622 0.920276 -0.007477
C36   C     C_R   0.482072 0.997564 0.577643 0.019376
C37   C     C_R   0.553673 0.918448 0.477538 0.127159
C38   C     C_R   0.375724 0.462589 0.020561 0.123011
C39   C     C_R   0.123519 0.645625 0.484197 0.083591
C40   C     C_R   0.614018 0.093525 0.044314 0.188546
C41   C     C_R   0.366789 0.460350 0.478113 0.112899
C42   C     C_R   0.078811 0.617455 0.022005 0.123424
C43   C     C_R   0.083157 0.595871 0.950211 0.182634
C44   C     C_R   0.389710 0.480613 0.551122 0.167797
C45   C     C_R   0.595085 0.029272 0.978373 0.160247
C46   C     C_R   0.104417 0.614721 0.556953 0.176380
C47   C     C_R   0.394154 0.481751 0.947276 0.183198
C48   C     C_R   0.536091 0.919688 0.550922 0.165104
N1    N     N_R   0.343115 0.110933 0.557518 0.142343
O27   O     O_R   0.375240 0.233326 0.536133 -0.294194
O28   O     O_R   0.235939 0.041756 0.597429 -0.172591
N2    N     N_R   0.768012 0.680964 0.935002 0.151437
O29   O     O_R   0.864070 0.655038 0.952335 -0.268099
O30   O     O_R   0.792327 0.780299 0.889757 -0.181731
N3    N     N_R   0.816803 0.257293 0.545177 0.091875
O31   O     O_R   0.700508 0.247838 0.529629 -0.376794
O32   O     O_R   0.826137 0.147474 0.557767 -0.196266
N4    N     N_R   0.300215 0.079906 0.932393 0.152397
O33   O     O_R   0.303088 0.194784 0.944910 -0.239363
O34   O     O_R   0.217922 0.000225 0.883663 -0.177139
N5    N     N_R   0.769102 0.635696 0.554045 0.132544
O35   O     O_R   0.850378 0.598507 0.526376 -0.307513
O36   O     O_R   0.819704 0.747098 0.591625 -0.168854
N6    N     N_R   0.920233 0.216244 0.941866 0.127212
O37   O     O_R   0.869645 0.107036 0.982216 -0.172827
O38   O     O_R   0.970408 0.207492 0.880905 -0.190785
N7    N     N_R   0.898949 0.260784 0.100625 0.119766
O39   O     O_R   0.934967 0.167228 0.108028 -0.156568
O40   O     O_R   0.830543 0.273199 0.153249 -0.240735
N8    N     N_R   0.719459 0.596244 0.404511 0.130832
O41   O     O_R   0.828982 0.715618 0.405250 -0.160561
O42   O     O_R   0.704646 0.511127 0.353927 -0.208552
N9    N     N_R   0.306013 0.082287 0.090882 0.132938
O43   O     O_R   0.191924 0.068665 0.067079 -0.131420
O44   O     O_R   0.347569 0.136235 0.153715 -0.239900
N10   N     N_R   0.887980 0.307785 0.401953 0.135932
O45   O     O_R   0.872676 0.184789 0.405664 -0.181903
O46   O     O_R   0.830755 0.339207 0.349807 -0.191174
N11   N     N_R   0.735178 0.664135 0.085576 0.129715
O47   O     O_R   0.817669 0.795114 0.076784 -0.150236
O48   O     O_R   0.754997 0.598426 0.138311 -0.231126
N12   N     N_R   0.397123 0.124316 0.407114 0.122709
O49   O     O_R   0.275727 0.109711 0.407601 -0.166368
O50   O     O_R   0.482225 0.201198 0.357505 -0.228143
Br1   Br    Br    0.692253 0.877581 0.448315 -0.207288
Br2   Br    Br    0.201355 0.328565 0.048934 -0.230727
Br3   Br    Br    0.136550 0.816116 0.456721 -0.219120
Br4   Br    Br    0.664636 0.287601 0.031138 -0.481670
Br5   Br    Br    0.187950 0.319302 0.451279 -0.223341
Br6   Br    Br    0.101248 0.790260 0.044895 -0.198195
Br7   Br    Br    0.207077 0.736312 0.885587 -0.300688
Br8   Br    Br    0.240173 0.424775 0.617473 -0.326779
Br9   Br    Br    0.591911 0.858692 0.976866 -0.377161
Br10  Br    Br    0.200404 0.751964 0.627907 -0.321118
Br11  Br    Br    0.249593 0.439180 0.880476 -0.289287
Br12  Br    Br    0.592770 0.822715 0.616694 -0.317257

loop_
_geom_bond_atom_site_label_1
_geom_bond_atom_site_label_2
_geom_bond_distance
_ccdc_geom_bond_type
O16   C4    1.271537 A    
N3    O31   1.296733 A    
C36   C48   1.384127 A    
N5    O35   1.291634 A    
O24   Cr6   1.980546 S    
N11   O47   1.301053 A    
O18   Cr3   1.949155 S    
C12   C27   1.442692 S    
O19   C7    1.306419 A    
N1    O27   1.287847 A    
C24   C25   1.386524 A    
N9    O44   1.302126 A    
C20   N8    1.444300 S    
O9    Cr6   2.096321 S    
O24   C12   1.322896 A    
C43   Br7   1.918231 S    
C7    C26   1.468047 S    
N2    O30   1.301539 A    
C20   C29   1.385774 A    
O21   C9    1.290674 A    
C28   C40   1.379264 A    
O17   C5    1.270424 A    
N10   O45   1.298921 A    
O10   Cr4   2.097322 S    
O8    C12   1.289242 A    
O12   Cr6   2.079664 S    
C3    C36   1.465161 S    
O5    C3    1.307298 A    
O15   C3    1.278974 A    
O6    C4    1.320898 A    
C13   C24   1.403403 A    
C9    C30   1.457436 S    
N6    O38   1.299653 A    
C14   C23   1.404061 A    
O7    Cr4   2.064774 S    
O18   C6    1.276255 A    
C16   C33   1.461095 A    
C15   C34   1.414477 A    
O13   Cr1   1.971092 S    
O1    Cr1   2.096979 S    
O16   Cr1   1.980768 S    
O3    Cr3   2.064115 S    
N5    O36   1.300648 A    
C17   C32   1.425698 A    
C16   N4    1.434248 S    
O5    Cr2   2.104493 S    
C18   C31   1.445305 A    
O13   C1    1.282284 A    
C19   C30   1.405176 A    
Cr6   O26   2.028487 S    
C8    C25   1.457310 S    
C34   C46   1.388756 A    
N1    O28   1.300511 A    
C21   C28   1.412462 A    
O20   Cr5   1.988383 S    
Cr4   O26   2.051905 S    
C22   C27   1.392055 A    
C19   N7    1.459482 S    
C16   C21   1.452366 A    
O22   C10   1.308751 A    
O4    C2    1.319873 A    
C33   C45   1.389861 A    
C42   C43   1.369873 A    
C44   Br8   1.933868 S    
O11   C9    1.273742 A    
C4    C35   1.458652 S    
C35   C47   1.362260 A    
N2    O29   1.291314 A    
C26   C38   1.417216 A    
Cr3   O25   2.051358 S    
C48   Br12  1.928745 S    
C29   C41   1.418204 A    
C10   C29   1.438472 S    
O14   C2    1.256535 A    
C5    C34   1.449189 S    
C11   C28   1.493304 S    
C1    C32   1.456342 S    
C15   N3    1.413049 S    
Cr1   O25   2.030630 S    
C2    C31   1.473721 S    
C40   C45   1.395678 A    
C21   N9    1.446353 S    
O14   Cr2   1.988348 S    
O2    Cr2   2.080256 S    
N4    O34   1.298625 A    
N7    O39   1.299821 A    
C42   Br6   1.875724 S    
O3    C1    1.312491 A    
C17   C20   1.396010 A    
O22   Cr4   1.949346 S    
N6    O37   1.293826 A    
C40   Br4   1.964050 S    
C13   C36   1.422133 A    
O1    C5    1.292614 A    
C18   C19   1.439864 A    
C32   C44   1.390490 A    
N11   O48   1.301288 A    
O8    Cr5   2.088779 S    
N8    O42   1.301020 A    
O15   Cr3   1.979311 S    
C15   C22   1.386396 A    
C14   N2    1.425974 S    
N7    O40   1.303038 A    
C41   Br5   1.924524 S    
N3    O32   1.299839 A    
C41   C44   1.386078 A    
O12   C10   1.264109 A    
C46   Br10  1.921953 S    
C45   Br9   1.889173 S    
O20   C8    1.319863 A    
C47   Br11  1.918043 S    
C23   N11   1.435952 S    
C38   C47   1.381474 A    
O7    C11   1.310738 A    
C13   N1    1.423105 S    
N12   O50   1.301287 A    
N12   O49   1.299106 A    
C22   N10   1.439709 S    
N9    O43   1.297852 A    
O23   C11   1.299607 A    
O23   Cr5   1.970426 S    
C39   Br3   1.899554 S    
O2    C6    1.322822 A    
C25   C37   1.422970 A    
C14   C35   1.417674 A    
C18   N6    1.456527 S    
N4    O33   1.292789 A    
C31   C43   1.365062 A    
C38   Br2   1.869379 S    
C37   Br1   1.917034 S    
Cr5   O26   2.022603 S    
N10   O46   1.300946 A    
O11   Cr5   2.104500 S    
O17   Cr2   1.968074 S    
N8    O41   1.300249 A    
C6    C33   1.500520 S    
O19   Cr4   1.979951 S    
O9    C7    1.285966 A    
O21   Cr6   1.968099 S    
O10   C8    1.264856 A    
Cr2   O25   2.021007 S    
O4    Cr1   2.090507 S    
C23   C26   1.403535 A    
C24   N12   1.441375 S    
O6    Cr3   2.095013 S    
C30   C42   1.403392 A    
C37   C48   1.385609 A    
C17   N5    1.427416 S    
C39   C46   1.386901 A    
C27   C39   1.404845 A    
