data_mof_unit_5886.cif
_audit_creation_date              2012-10-26T18:40:36-0400
_audit_creation_method            fapswitch 2.2
_symmetry_space_group_name_H-M    P1
_symmetry_Int_Tables_number       1
_space_group_crystal_system       triclinic
_cell_length_a                    15.17067
_cell_length_b                    13.824107
_cell_length_c                    11.692783
_cell_angle_alpha                 89.867704
_cell_angle_beta                  90.14827
_cell_angle_gamma                 89.581345
_cell_volume                      2452.14142004

loop_
_atom_site_label
_atom_site_type_symbol
_atom_type_description
_atom_site_fract_x
_atom_site_fract_y
_atom_site_fract_z
_atom_type_partial_charge
C1    C     C_R   0.329315 0.499821 0.499216 0.604935
C2    C     C_R   0.500025 0.499896 0.716194 0.562853
C3    C     C_R   0.468774 0.107116 0.595684 0.202140
C4    C     C_R   0.440623 0.893726 0.430472 0.231077
C5    C     C_R   0.531223 0.106323 0.404018 0.212755
C6    C     C_R   0.557802 0.892010 0.572182 0.234495
C7    C     C_1   0.500029 0.500069 0.162255 0.002888
C8    C     C_1   0.500038 0.499674 0.837751 0.003906
C9    C     C_1   0.500036 0.499854 0.059833 -0.029573
C10   C     C_1   0.500039 0.499659 0.940177 -0.028368
C11   C     C_R   0.469213 0.209627 0.592617 0.050290
C12   C     C_R   0.669929 0.499575 0.500214 0.627851
C13   C     C_R   0.445046 0.791684 0.428598 0.067626
C14   C     C_R   0.532370 0.209338 0.408229 0.031003
C15   C     C_R   0.554539 0.790020 0.572294 0.044346
C16   C     C_R   0.091182 0.579716 0.461964 0.257252
C17   C     C_R   0.904021 0.434087 0.426622 0.255532
C18   C     C_R   0.904600 0.558743 0.575283 0.255715
C19   C     C_R   0.093517 0.413514 0.533259 0.253305
C20   C     C_R   0.183114 0.579087 0.457701 0.185156
C21   C     C_R   0.812057 0.434581 0.427444 0.180288
C22   C     C_R   0.812646 0.559729 0.574957 0.174733
C23   C     C_R   0.231766 0.498077 0.497854 -0.055728
C24   C     C_R   0.185594 0.414390 0.534562 0.184109
C25   C     C_3   0.359663 0.093039 0.733725 -0.008847
C26   C     C_3   0.312013 0.013348 0.799154 -0.254105
C27   C     C_3   0.224319 0.049728 0.847002 -0.480520
C28   C     C_3   0.314786 0.988223 0.412475 -0.011577
C29   C     C_3   0.234577 0.922748 0.423795 -0.250033
C30   C     C_3   0.155565 0.977555 0.472818 -0.472422
C31   C     C_3   0.555295 0.096422 0.203863 0.020804
C32   C     C_3   0.458453 0.110027 0.167378 -0.270300
C33   C     C_3   0.451617 0.154564 0.048096 -0.485560
C34   C     C_R   0.766096 0.498204 0.500624 -0.055510
C35   C     C_3   0.691705 0.966716 0.588616 -0.007013
C36   C     C_3   0.763166 0.888195 0.598338 -0.252115
C37   C     C_3   0.851267 0.923166 0.551673 -0.471997
C38   C     C_3   0.014912 0.666745 0.326297 0.034225
C39   C     C_3   0.982095 0.768825 0.298306 -0.243018
C40   C     C_3   0.946211 0.775544 0.176534 -0.485455
C41   C     C_3   0.974079 0.409265 0.256233 0.034792
C42   C     C_3   0.016665 0.331889 0.180999 -0.231973
C43   C     C_3   0.050295 0.374877 0.069143 -0.503852
C44   C     C_3   0.977026 0.582099 0.744456 0.034621
C45   C     C_R   0.046595 0.496667 0.499136 -0.022920
C46   C     C_3   0.021605 0.658424 0.818556 -0.238328
C47   C     C_3   0.056672 0.614776 0.929841 -0.501105
C48   C     C_3   0.027461 0.319774 0.669973 0.037996
C49   C     C_3   0.999284 0.215745 0.693806 -0.235765
C50   C     C_3   0.980400 0.199416 0.820400 -0.496100
C51   C     C_R   0.950192 0.496236 0.500653 -0.028076
C52   C     C_R   0.501296 0.055023 0.500900 0.074257
C53   C     C_R   0.499700 0.945770 0.501220 0.086072
C54   C     C_R   0.500012 0.500061 0.283807 0.564300
Cl1   Cl    Cl    0.233508 0.678540 0.390749 -0.668709
Cl2   Cl    Cl    0.756432 0.356852 0.331763 -0.600833
Cl3   Cl    Cl    0.757728 0.634744 0.674519 -0.641620
Cl4   Cl    Cl    0.238738 0.307625 0.584228 -0.657306
Cu1   Cu    Cu3+1 0.500000 0.596430 0.500000 1.012978
Cu2   Cu    Cu3+1 0.500000 0.403570 0.500000 1.013224
H1    H     H_    0.445486 0.250282 0.665046 0.153420
H2    H     H_    0.191431 0.990326 0.894167 0.149368
H3    H     H_    0.180225 0.074141 0.776480 0.157266
H4    H     H_    0.296145 0.052996 0.361182 0.161162
H5    H     H_    0.332851 0.014534 0.498808 0.136507
H6    H     H_    0.216718 0.893144 0.338602 0.213867
H7    H     H_    0.251435 0.862214 0.482583 0.217206
H8    H     H_    0.171919 0.007243 0.558452 0.153170
H9    H     H_    0.099010 0.927578 0.481857 0.168748
H10   H     H_    0.135880 0.037810 0.414927 0.167220
H11   H     H_    0.586648 0.046795 0.141140 0.170679
H12   H     H_    0.403629 0.752538 0.369782 0.203526
H13   H     H_    0.593687 0.164142 0.197219 0.137708
H14   H     H_    0.425345 0.038645 0.166796 0.218351
H15   H     H_    0.423110 0.157906 0.228333 0.160628
H16   H     H_    0.483197 0.226817 0.046670 0.161806
H17   H     H_    0.381135 0.163362 0.024156 0.144925
H18   H     H_    0.484058 0.106932 0.984150 0.174322
H19   H     H_    0.715960 0.033530 0.630497 0.167462
H20   H     H_    0.680311 0.985670 0.496889 0.153048
H21   H     H_    0.771744 0.867150 0.689519 0.219447
H22   H     H_    0.742617 0.823494 0.549156 0.198488
H23   H     H_    0.559784 0.251090 0.339444 0.165110
H24   H     H_    0.844700 0.942867 0.459868 0.153165
H25   H     H_    0.901323 0.864527 0.560096 0.191452
H26   H     H_    0.874366 0.987038 0.600516 0.145898
H27   H     H_    0.958600 0.616503 0.316620 0.102855
H28   H     H_    0.067919 0.646734 0.264594 0.154020
H29   H     H_    0.928920 0.789205 0.359047 0.176728
H30   H     H_    0.037159 0.820774 0.308341 0.182887
H31   H     H_    0.999325 0.759806 0.114111 0.148592
H32   H     H_    0.920749 0.849836 0.160328 0.156196
H33   H     H_    0.891542 0.723541 0.164139 0.158845
H34   H     H_    0.596986 0.749623 0.629670 0.197409
H35   H     H_    0.023880 0.466209 0.271674 0.097840
H36   H     H_    0.916295 0.441040 0.210091 0.152612
H37   H     H_    0.072976 0.298245 0.227837 0.188525
H38   H     H_    0.967779 0.274643 0.161693 0.190081
H39   H     H_    0.994360 0.403227 0.017203 0.145439
H40   H     H_    0.085149 0.318114 0.019486 0.144628
H41   H     H_    0.097400 0.434210 0.086662 0.153717
H42   H     H_    0.026009 0.523804 0.727689 0.096248
H43   H     H_    0.919925 0.551753 0.792065 0.159965
H44   H     H_    0.077420 0.690448 0.770417 0.185401
H45   H     H_    0.315065 0.119065 0.663974 0.167540
H46   H     H_    0.973587 0.717043 0.838706 0.185515
H47   H     H_    0.001324 0.587869 0.982860 0.144236
H48   H     H_    0.092640 0.670792 0.978800 0.152141
H49   H     H_    0.103053 0.554240 0.911566 0.152719
H50   H     H_    0.971002 0.368648 0.689509 0.102709
H51   H     H_    0.084198 0.337679 0.726819 0.150856
H52   H     H_    0.939002 0.199519 0.643288 0.181574
H53   H     H_    0.052449 0.165100 0.666540 0.187865
H54   H     H_    0.041813 0.207819 0.871065 0.146919
H55   H     H_    0.955571 0.124840 0.833353 0.151183
H56   H     H_    0.373496 0.153448 0.793620 0.145385
H57   H     H_    0.929810 0.251646 0.851166 0.156860
H58   H     H_    0.299472 0.951553 0.740751 0.172542
H59   H     H_    0.354358 0.987454 0.870849 0.185916
H60   H     H_    0.235295 0.110822 0.906795 0.149905
N1    N     N_R   0.500000 0.258690 0.500000 -0.273155
N2    N     N_R   0.500000 0.741310 0.500000 -0.299494
O1    O     O_R   0.371460 0.581430 0.500010 -0.459047
O2    O     O_3   0.384278 0.940169 0.354239 -0.576344
O3    O     O_3   0.563936 0.051867 0.312699 -0.569519
O4    O     O_3   0.614397 0.938085 0.646961 -0.546308
O5    O     O_3   0.045876 0.665329 0.440236 -0.495204
O6    O     O_3   0.948289 0.366421 0.360473 -0.480081
O7    O     O_3   0.949377 0.625735 0.641056 -0.493866
O8    O     O_3   0.049819 0.327440 0.553252 -0.484387
O9    O     O_R   0.628540 0.418570 0.499990 -0.453917
O10   O     O_R   0.628540 0.581430 0.499990 -0.472445
O11   O     O_R   0.371460 0.418570 0.500010 -0.446398
O12   O     O_R   0.500010 0.581440 0.337200 -0.496892
O13   O     O_R   0.499990 0.418560 0.662800 -0.514297
O14   O     O_R   0.499990 0.581440 0.662800 -0.487688
O15   O     O_R   0.500010 0.418560 0.337200 -0.507481
O16   O     O_3   0.439963 0.055475 0.690670 -0.560073

loop_
_geom_bond_atom_site_label_1
_geom_bond_atom_site_label_2
_ccdc_geom_bond_type
C49   H53   S    
C12   O9    A    
C4    C53   A    
C50   H57   S    
C41   C42   S    
Cu1   O14   S    
C48   H50   S    
C35   C36   S    
C40   H33   S    
C17   C51   A    
C32   H15   S    
C1    O1    A    
C38   O5    S    
C25   H45   S    
C27   H60   S    
C26   C27   S    
C28   H5    S    
C37   H25   S    
C36   C37   S    
C15   N2    A    
C43   H39   S    
C42   H38   S    
C32   H14   S    
C38   C39   S    
C33   H18   S    
C31   H13   S    
C54   O15   A    
C45   C51   S    
C54   O12   A    
C35   H20   S    
C4    O2    S    
C50   H55   S    
C4    C13   A    
C49   C50   S    
C6    C15   A    
C29   H7    S    
C36   H22   S    
C23   C24   A    
C5    C52   A    
C9    C10   S    
C39   H30   S    
Cu2   O15   S    
C19   O8    S    
C31   H11   S    
Cu1   Cu2   S    
C14   N1    A    
C41   O6    S    
C48   O8    S    
C11   N1    A    
C14   H23   S    
C15   H34   S    
C20   Cl1   S    
C1    O11   A    
Cu2   O9    S    
C30   H10   S    
C44   H43   S    
C44   C46   S    
C18   C51   A    
Cu1   O1    S    
C22   C34   A    
Cu1   O10   S    
C37   H26   S    
C26   H59   S    
C6    O4    S    
C25   H56   S    
C39   C40   S    
C44   H42   S    
C21   C34   A    
C44   O7    S    
C47   H49   S    
C46   H44   S    
C2    O14   A    
C38   H28   S    
C50   H54   S    
C35   O4    S    
C43   H41   S    
C29   C30   S    
C27   H2    S    
C33   H16   S    
C31   C32   S    
C20   C23   A    
C36   H21   S    
C16   C20   A    
C28   O2    S    
C37   H24   S    
C3    O16   S    
C43   H40   S    
Cu2   O13   S    
C5    C14   A    
C27   H3    S    
C49   H52   S    
C28   H4    S    
C8    C10   T    
C48   C49   S    
C1    C23   S    
C47   H47   S    
C42   H37   S    
C42   C43   S    
C31   O3    S    
C6    C53   A    
C12   C34   S    
C30   H9    S    
C52   C53   S    
C7    C9    T    
C46   C47   S    
C28   C29   S    
C12   O10   A    
C18   C22   A    
C2    C8    S    
C26   H58   S    
C11   H1    S    
C16   C45   A    
C21   Cl2   S    
C3    C52   A    
C19   C45   A    
C17   O6    S    
C13   H12   S    
Cu1   O12   S    
C2    O13   A    
C38   H27   S    
C32   C33   S    
C19   C24   A    
C25   C26   S    
C13   N2    A    
C33   H17   S    
C41   H35   S    
Cu1   N2    S    
C46   H46   S    
C22   Cl3   S    
C35   H19   S    
C25   O16   S    
C40   H31   S    
Cu2   N1    S    
C16   O5    S    
C17   C21   A    
C40   H32   S    
C3    C11   A    
C29   H6    S    
C41   H36   S    
C48   H51   S    
C24   Cl4   S    
C47   H48   S    
C5    O3    S    
C18   O7    S    
C7    C54   S    
Cu2   O11   S    
C39   H29   S    
C30   H8    S    
