data_mof_unit_60842.cif
_audit_creation_date              2012-12-10T19:11:05-0500
_audit_creation_method            fapswitch 2.2
_symmetry_space_group_name_H-M    P1
_symmetry_Int_Tables_number       1
_space_group_crystal_system       triclinic
_cell_length_a                    10.943073
_cell_length_b                    9.09578
_cell_length_c                    8.035549
_cell_angle_alpha                 90.000202
_cell_angle_beta                  91.626421
_cell_angle_gamma                 89.999289
_cell_volume                      799.502450954

loop_
_atom_site_label
_atom_site_type_symbol
_atom_type_description
_atom_site_fract_x
_atom_site_fract_y
_atom_site_fract_z
_atom_type_partial_charge
C1    C     C_R   0.499997 0.221026 0.499999 0.822982
C2    C     C_1   0.499996 0.934429 0.499999 -0.195246
C3    C     C_3   0.066482 0.630103 0.474359 -0.590509
C4    C     C_3   0.933516 0.630103 0.525638 -0.590479
C5    C     C_3   0.121249 0.472507 0.495362 -0.042491
C6    C     C_3   0.878752 0.472505 0.504639 -0.042497
C7    C     C_3   0.120834 0.510078 0.813135 -0.881714
C8    C     C_3   0.129108 0.405643 0.181243 -0.985166
C9    C     C_3   0.870897 0.405655 0.818761 -0.985159
C10   C     C_3   0.879167 0.510066 0.186869 -0.881717
C11   C     C_3   0.129942 0.165159 0.800233 0.154234
C12   C     C_R   0.260389 0.488617 0.497579 0.848133
C13   C     C_3   0.250705 0.110751 0.876255 -0.853424
C14   C     C_3   0.178907 0.138251 0.328915 0.127030
C15   C     C_3   0.179658 0.983233 0.398478 -0.838434
C16   C     C_3   0.821072 0.138277 0.671057 0.127090
C17   C     C_3   0.820325 0.983249 0.601521 -0.838505
C18   C     C_3   0.870065 0.165158 0.199765 0.154183
C19   C     C_3   0.749300 0.110740 0.123764 -0.853405
C20   C     C_R   0.739612 0.488617 0.502421 0.848104
C21   C     C_R   0.499998 0.778998 0.500000 0.828930
C22   C     C_1   0.499996 0.065601 0.499999 -0.196499
C23   C     C_3   0.080283 0.402552 0.667303 0.598585
C24   C     C_3   0.066408 0.370294 0.347471 0.487404
C25   C     C_3   0.933597 0.370298 0.652535 0.487388
C26   C     C_3   0.919722 0.402545 0.332703 0.598572
Cu1   Cu    Cu3+1 0.500000 0.500010 0.669080 0.974405
Cu2   Cu    Cu3+1 0.500000 0.500010 0.330920 0.974405
H1    H     H_    0.117982 0.714980 0.545942 0.201142
H2    H     H_    0.140703 0.524779 0.159989 0.241701
H3    H     H_    0.779273 0.358484 0.835768 0.246247
H4    H     H_    0.924890 0.358110 0.917979 0.219920
H5    H     H_    0.859300 0.524793 0.840011 0.241702
H6    H     H_    0.804239 0.459445 0.111741 0.278267
H7    H     H_    0.840487 0.616077 0.225062 0.223558
H8    H     H_    0.949842 0.550689 0.107810 0.201784
H9    H     H_    0.085216 0.069705 0.738483 0.194111
H10   H     H_    0.069526 0.201355 0.896976 0.103361
H11   H     H_    0.295335 0.199067 0.951273 0.248335
H12   H     H_    0.070773 0.668739 0.344196 0.215422
H13   H     H_    0.234898 0.013248 0.955857 0.194960
H14   H     H_    0.313412 0.077891 0.776680 0.267108
H15   H     H_    0.266828 0.191936 0.363432 0.165555
H16   H     H_    0.166831 0.125693 0.192683 0.135584
H17   H     H_    0.086636 0.935535 0.385614 0.243890
H18   H     H_    0.244035 0.913736 0.328594 0.206578
H19   H     H_    0.209550 0.983178 0.531053 0.249159
H20   H     H_    0.733168 0.191980 0.636482 0.165557
H21   H     H_    0.833100 0.125727 0.807298 0.135587
H22   H     H_    0.913322 0.935521 0.614496 0.243859
H23   H     H_    0.929225 0.668742 0.655800 0.215418
H24   H     H_    0.755893 0.913792 0.671338 0.206594
H25   H     H_    0.790510 0.983179 0.468927 0.249181
H26   H     H_    0.914810 0.069707 0.261495 0.194089
H27   H     H_    0.930463 0.201368 0.103009 0.103365
H28   H     H_    0.704651 0.199058 0.048770 0.248346
H29   H     H_    0.765107 0.013250 0.044143 0.194965
H30   H     H_    0.686613 0.077858 0.223349 0.267098
H31   H     H_    0.882014 0.714981 0.454056 0.201141
H32   H     H_    0.195764 0.459458 0.888264 0.278270
H33   H     H_    0.159513 0.616088 0.774938 0.223552
H34   H     H_    0.050160 0.550701 0.892197 0.201780
H35   H     H_    0.220732 0.358469 0.164241 0.246249
H36   H     H_    0.075118 0.358095 0.082021 0.219914
N1    N     N_1   0.500000 0.499970 0.076820 -0.071056
N2    N     N_1   0.500000 0.499970 0.923180 -0.071054
O1    O     O_R   0.500000 0.288400 0.642760 -0.581790
O2    O     O_3   0.079134 0.217468 0.391709 -0.523371
O3    O     O_3   0.920878 0.217467 0.608316 -0.523384
O4    O     O_3   0.844988 0.272523 0.320508 -0.544620
O5    O     O_R   0.500000 0.288400 0.357240 -0.581785
O6    O     O_R   0.317700 0.499990 0.642790 -0.561952
O7    O     O_R   0.317700 0.499990 0.357210 -0.606702
O8    O     O_R   0.682300 0.499990 0.642790 -0.606700
O9    O     O_R   0.682300 0.499990 0.357210 -0.561953
O10   O     O_R   0.500000 0.711620 0.642810 -0.575289
O11   O     O_R   0.500000 0.711620 0.357190 -0.575284
O12   O     O_3   0.155024 0.272533 0.679504 -0.544610

loop_
_geom_bond_atom_site_label_1
_geom_bond_atom_site_label_2
_ccdc_geom_bond_type
C19   H28   S    
C18   O4    S    
C15   H19   S    
C16   H20   S    
C13   H13   S    
C9    C25   S    
C19   H29   S    
C21   O10   A    
C1    O5    A    
C24   C26   S    
C6    C25   S    
C3    H1    S    
C18   C19   S    
C11   H9    S    
C7    H33   S    
C9    H4    S    
C1    O1    A    
C16   C17   S    
C2    C22   T    
C10   H7    S    
Cu1   O8    S    
C10   C26   S    
C12   O6    A    
C1    C22   S    
C12   O7    A    
C9    H5    S    
Cu2   O7    S    
C17   H24   S    
C13   H14   S    
C19   H30   S    
C4    H23   S    
C16   H21   S    
C5    C12   S    
C4    C6    S    
C9    H3    S    
C24   O2    S    
C20   O9    A    
C11   H10   S    
C7    H34   S    
C11   O12   S    
C5    C23   S    
C2    C21   S    
C20   O8    A    
C10   H6    S    
Cu2   O11   S    
C18   H27   S    
C8    H36   S    
C3    H12   S    
C26   O4    S    
Cu2   O5    S    
C25   O3    S    
C15   H17   S    
Cu1   O10   S    
C17   H25   S    
C7    H32   S    
C14   H16   S    
C16   O3    S    
C3    C5    S    
C17   H22   S    
C6    C20   S    
C8    H2    S    
Cu2   N1    S    
Cu1   N2    S    
C11   C13   S    
C6    C26   S    
C5    C24   S    
C7    C23   S    
C4    H31   S    
C8    C24   S    
C23   C25   S    
C23   O12   S    
C13   H11   S    
Cu1   O1    S    
C18   H26   S    
C8    H35   S    
N1    N2    T    
C21   O11   A    
Cu1   Cu2   S    
C14   O2    S    
C14   C15   S    
C10   H8    S    
C15   H18   S    
Cu2   O9    S    
Cu1   O6    S    
C3    C4    S    
C14   H15   S    
