data_mof_unit_63018.cif
_audit_creation_date              2012-12-10T19:34:11-0500
_audit_creation_method            fapswitch 2.2
_symmetry_space_group_name_H-M    P1
_symmetry_Int_Tables_number       1
_space_group_crystal_system       triclinic
_cell_length_a                    18.678005
_cell_length_b                    18.741096
_cell_length_c                    18.736398
_cell_angle_alpha                 109.421644
_cell_angle_beta                  109.924867
_cell_angle_gamma                 109.381145
_cell_volume                      5029.05236728

loop_
_atom_site_label
_atom_site_type_symbol
_atom_type_description
_atom_site_fract_x
_atom_site_fract_y
_atom_site_fract_z
_atom_type_partial_charge
Br1   Br    Br    0.783895 0.695219 0.774933 -0.425974
Br2   Br    Br    0.014742 0.097714 0.261518 -0.311387
Br3   Br    Br    0.173385 0.248646 0.264474 -0.384031
Br4   Br    Br    0.095781 0.306946 0.639916 -0.456447
Br5   Br    Br    0.799615 0.152159 0.792283 -0.275993
Br6   Br    Br    0.939400 0.891308 0.693118 -0.411870
Br7   Br    Br    0.648682 0.758207 0.268110 -0.395260
C1    C     C_R   0.619589 0.620099 0.499891 0.926439
C2    C     C_R   0.727580 0.767235 0.433241 0.084630
C3    C     C_3   0.697112 0.712239 0.338630 0.122180
C4    C     C_R   0.380341 0.500612 0.378912 0.930799
C5    C     C_3   0.627153 0.639483 0.336425 -0.457523
C6    C     C_R   0.673901 0.425593 0.689494 0.060690
C7    C     C_R   0.688197 0.503457 0.689929 -0.151943
C8    C     C_R   0.762118 0.583148 0.762933 0.254365
C9    C     C_R   0.825816 0.581183 0.826918 -0.184146
C10   C     C_R   0.815240 0.500806 0.818824 -0.080005
C11   C     C_R   0.736688 0.423799 0.752138 0.104225
C12   C     C_3   0.183533 0.418792 0.196826 -0.123645
C13   C     C_3   0.713465 0.333124 0.689176 -0.367449
C14   C     C_3   0.642180 0.336198 0.619127 -0.365310
C15   C     C_R   0.235695 0.260392 0.431256 0.008274
C16   C     C_R   0.382464 0.380169 0.502496 0.954864
C17   C     C_R   0.318886 0.315639 0.506059 -0.202176
C18   C     C_R   0.333225 0.316647 0.586034 -0.064870
C19   C     C_R   0.265591 0.252515 0.583598 -0.161452
C20   C     C_R   0.186243 0.190393 0.504409 -0.119898
C21   C     C_R   0.169984 0.198801 0.430450 0.091736
C22   C     C_3   0.135644 0.131972 0.338375 0.062928
C23   C     C_3   0.221816 0.473734 0.296943 -0.126933
C24   C     C_3   0.208824 0.201025 0.339162 0.087050
C25   C     C_R   0.004211 0.620350 0.124176 0.872063
C26   C     C_R   0.124745 0.500193 0.124386 0.879571
C27   C     C_R   0.003867 0.379857 0.883621 0.897940
C28   C     C_R   0.622667 0.502112 0.621420 0.943789
C29   C     C_R   0.882556 0.499172 0.882308 0.954450
C30   C     C_R   0.998984 0.119494 0.619009 0.928730
C31   C     C_R   0.879582 0.881323 0.501565 0.889399
C32   C     C_R   0.002398 0.881817 0.380591 0.900495
C33   C     C_R   0.120327 0.120526 0.500488 0.951731
C34   C     C_3   0.314824 0.500988 0.310798 -0.127721
C35   C     C_R   0.926547 0.682679 0.181139 0.044033
C36   C     C_R   0.005152 0.687963 0.189355 -0.093749
C37   C     C_R   0.085015 0.765837 0.253816 -0.204905
C38   C     C_R   0.087122 0.833808 0.317121 -0.059407
C39   C     C_R   0.006522 0.821536 0.313430 -0.121427
C40   C     C_3   0.322110 0.581540 0.303060 -0.028572
C41   C     C_R   0.927307 0.749435 0.241263 0.116482
C42   C     C_3   0.847602 0.688962 0.236614 -0.570039
C43   C     C_3   0.846836 0.613705 0.170125 -0.147262
C44   C     C_R   0.959704 0.227506 0.791718 0.023118
C45   C     C_R   0.664469 0.701234 0.430948 0.065069
C46   C     C_R   0.000891 0.314535 0.814283 -0.128037
C47   C     C_R   0.040327 0.337231 0.767038 -0.194881
C48   C     C_R   0.039616 0.273028 0.701158 0.244738
C49   C     C_R   0.000145 0.186184 0.683668 -0.077393
C50   C     C_R   0.959993 0.166089 0.729398 -0.002041
C51   C     C_3   0.916790 0.094769 0.745075 -0.353721
C52   C     C_3   0.229022 0.555365 0.289286 -0.186739
C53   C     C_3   0.915338 0.165634 0.816755 0.118681
C54   C     C_3   0.192292 0.500459 0.190644 -0.037147
C55   C     C_3   0.284824 0.527949 0.203575 -0.245168
C56   C     C_R   0.685044 0.687438 0.501722 -0.135568
C57   C     C_3   0.277094 0.446955 0.211844 -0.040142
C58   C     C_2   0.783309 0.328898 0.666593 0.892038
C59   C     C_2   0.679864 0.265735 0.715230 1.049943
C60   C     C_2   0.546516 0.274263 0.584130 0.980651
C61   C     C_2   0.417853 0.378609 0.671197 0.995518
C62   C     C_2   0.398929 0.673150 0.359884 0.938838
C63   C     C_2   0.173443 0.914980 0.384411 0.931753
C64   C     C_2   0.865181 0.554814 0.203892 0.953484
C65   C     C_2   0.766846 0.565145 0.079219 0.982211
C66   C     C_2   0.828199 0.020765 0.667214 1.024250
C67   C     C_R   0.764735 0.748378 0.580355 -0.174614
C68   C     C_2   0.973513 0.188642 0.909513 0.942056
C69   C     C_2   0.302698 0.385899 0.166745 0.985272
C70   C     C_R   0.829845 0.814674 0.583279 0.292668
C71   C     C_R   0.812742 0.820426 0.506280 -0.234714
H1    H     H_    0.207630 0.599921 0.319136 0.167273
H2    H     H_    0.145667 0.772465 0.255752 0.205837
H3    H     H_    0.862629 0.691176 0.300359 0.206605
H4    H     H_    0.791395 0.699193 0.208794 0.239277
H5    H     H_    0.309122 0.550210 0.164147 0.202281
H6    H     H_    0.071964 0.404201 0.781285 0.201445
H7    H     H_    0.962002 0.071870 0.771196 0.194231
H8    H     H_    0.125223 0.352009 0.151456 0.187884
H9    H     H_    0.197558 0.451586 0.336425 0.186175
H10   H     H_    0.777762 0.741996 0.638096 0.214239
H11   H     H_    0.907368 0.389668 0.690354 0.359273
H12   H     H_    0.746830 0.697075 0.328931 0.116001
H13   H     H_    0.621362 0.162684 0.593567 0.339699
H14   H     H_    0.425995 0.186053 0.477319 0.343291
H15   H     H_    0.480963 0.433179 0.803130 0.365521
H16   H     H_    0.524633 0.755815 0.459192 0.365291
H17   H     H_    0.305881 0.971437 0.450535 0.368453
H18   H     H_    0.944341 0.545888 0.301321 0.356893
H19   H     H_    0.634501 0.492427 0.003922 0.365214
H20   H     H_    0.738574 0.963104 0.539048 0.359652
H21   H     H_    0.984747 0.206126 0.025842 0.359972
H22   H     H_    0.306927 0.274395 0.139486 0.360738
H23   H     H_    0.558617 0.623097 0.295323 0.243172
H24   H     H_    0.636699 0.582128 0.326010 0.204621
H25   H     H_    0.884416 0.641957 0.881356 0.192739
H26   H     H_    0.655070 0.338507 0.565895 0.197469
H27   H     H_    0.275687 0.248629 0.642388 0.213695
H28   H     H_    0.144784 0.075439 0.334697 0.129671
H29   H     H_    0.259406 0.183633 0.335522 0.136586
O1    O     O_R   0.592030 0.539910 0.448670 -0.634846
O2    O     O_R   0.051340 0.091660 0.643070 -0.617714
O3    O     O_R   0.856270 0.908420 0.447910 -0.585475
O4    O     O_R   0.591210 0.643320 0.551340 -0.575218
O5    O     O_R   0.960500 0.908460 0.552180 -0.587906
O6    O     O_R   0.948660 0.908440 0.357030 -0.604773
O7    O     O_R   0.052890 0.908480 0.461300 -0.598397
O8    O     O_R   0.039500 0.091640 0.447920 -0.585677
O9    O     O_R   0.143730 0.091680 0.552190 -0.601532
O10   O     O_R   0.408090 0.448300 0.356360 -0.605042
O11   O     O_R   0.407280 0.551720 0.459030 -0.595783
O12   O     O_R   0.054880 0.643340 0.094730 -0.622701
O13   O     O_R   0.408790 0.356680 0.448660 -0.601479
O14   O     O_R   0.407970 0.460090 0.551330 -0.604280
O15   O     O_R   0.592720 0.448280 0.540970 -0.632638
O16   O     O_R   0.591910 0.551700 0.643640 -0.560607
O17   O     O_R   0.951440 0.539930 0.094760 -0.606581
O18   O     O_2   0.764916 0.261159 0.606416 -0.576032
O19   O     O_R   0.867776 0.401581 0.712570 -0.806406
O20   O     O_2   0.694384 0.289333 0.790234 -0.498547
O21   O     O_R   0.632293 0.176071 0.654508 -0.693606
O22   O     O_2   0.519354 0.269110 0.634169 -0.580321
O23   O     O_R   0.044460 0.448310 0.096120 -0.614751
O24   O     O_R   0.488611 0.223890 0.493428 -0.774910
O25   O     O_2   0.486024 0.418213 0.673360 -0.626347
O26   O     O_R   0.419832 0.390280 0.749726 -0.766364
O27   O     O_2   0.392478 0.731059 0.346935 -0.568888
O28   O     O_R   0.477608 0.691895 0.426225 -0.802231
O29   O     O_2   0.177079 0.984760 0.420394 -0.661174
O30   O     O_R   0.251404 0.912079 0.404683 -0.766548
O31   O     O_2   0.816329 0.475419 0.159528 -0.568312
O32   O     O_R   0.938677 0.591595 0.286135 -0.794798
O33   O     O_2   0.775352 0.561754 0.016428 -0.613173
O34   O     O_R   0.147900 0.551710 0.096100 -0.614495
O35   O     O_R   0.682908 0.523009 0.067309 -0.743874
O36   O     O_2   0.782961 0.963329 0.675518 -0.553551
O37   O     O_R   0.798313 0.016801 0.585887 -0.767354
O38   O     O_2   0.050136 0.206265 0.935617 -0.616585
O39   O     O_R   0.939698 0.190020 0.965705 -0.715401
O40   O     O_2   0.336640 0.402080 0.124522 -0.602026
O41   O     O_R   0.286951 0.310428 0.172653 -0.726524
O42   O     O_R   0.952840 0.356700 0.912890 -0.596842
O43   O     O_R   0.056280 0.460110 0.912860 -0.619954
O44   O     O_R   0.859820 0.448330 0.911520 -0.571200
O45   O     O_R   0.963270 0.551730 0.911500 -0.611562
O46   O     O_R   0.947110 0.091620 0.538800 -0.566896
Zn1   Zn    Zn3+2 0.500550 0.430950 0.431450 1.062349
Zn2   Zn    Zn3+2 0.499450 0.569050 0.568550 1.112525
Zn3   Zn    Zn3+2 0.934790 0.430980 0.003830 1.144376
Zn4   Zn    Zn3+2 0.072930 0.569070 0.003790 1.048368
Zn5   Zn    Zn3+2 0.930400 0.000020 0.430430 1.137052
Zn6   Zn    Zn3+2 0.069600 0.000080 0.569670 1.093859

loop_
_geom_bond_atom_site_label_1
_geom_bond_atom_site_label_2
_ccdc_geom_bond_type
C26   O23   A    
Br7   C3    S    
C55   H5    S    
C62   O27   D    
O5    Zn6   S    
C25   O17   A    
C48   C49   A    
C12   H8    S    
C40   C55   S    
C47   H6    S    
C27   O43   A    
C16   O14   A    
O16   Zn2   S    
C70   C71   A    
C59   O20   D    
C65   O35   S    
C18   C61   S    
C19   C20   A    
C6    C11   A    
Br2   C22   S    
C63   O30   S    
C13   C59   S    
C21   C22   S    
O43   Zn4   S    
O42   Zn3   S    
C12   C54   S    
H15   O26   S    
C33   O8    A    
C51   C53   S    
C8    C9    A    
C49   C50   A    
C42   H3    S    
O46   Zn5   S    
C61   O25   D    
C43   C65   S    
C40   C62   S    
C55   C57   S    
O45   Zn4   S    
C14   H26   S    
C69   O40   D    
C9    C10   A    
C32   O6    A    
C67   C70   A    
C16   C17   S    
C23   C34   S    
Br1   C8    S    
C10   C29   S    
O6    Zn5   S    
C31   O3    A    
C2    C3    S    
C20   C33   S    
C30   O2    A    
O3    Zn5   S    
C62   O28   S    
C15   C21   A    
C6    C7    A    
C14   C60   S    
C63   O29   D    
O15   Zn1   S    
C60   O22   D    
C2    C45   A    
H18   O32   S    
C1    O1    A    
C19   H27   S    
C5    C45   S    
C27   O42   A    
H16   O28   S    
C64   O31   D    
H11   O19   S    
C68   O39   S    
C57   C69   S    
H19   O35   S    
C39   C41   A    
H17   O30   S    
C52   C54   S    
C15   C24   S    
O8    Zn5   S    
C30   O46   A    
C13   C58   S    
C37   H2    S    
H14   O24   S    
C17   C18   A    
O9    Zn6   S    
H13   O21   S    
C1    O4    A    
C52   H1    S    
C7    C28   S    
C29   O45   A    
Br6   C70   S    
C64   O32   S    
C31   C71   S    
C26   O34   A    
C18   C19   A    
C46   C47   A    
C68   O38   D    
C44   C46   A    
C58   O18   D    
C42   H4    S    
C36   C37   A    
C5    H24   S    
C9    H25   S    
C12   C57   S    
O12   Zn4   S    
C32   O7    A    
C23   C52   S    
O13   Zn1   S    
C10   C11   A    
C34   C40   S    
C6    C14   S    
O11   Zn2   S    
C43   C64   S    
C35   C41   A    
O44   Zn3   S    
Br3   C24   S    
C3    H12   S    
C3    C5    S    
C30   C49   S    
C35   C43   S    
C32   C39   S    
C44   C50   A    
O34   Zn4   S    
C41   C42   S    
H21   O39   S    
O17   Zn3   S    
Br4   C48   S    
C15   C17   A    
C22   H28   S    
C35   C36   A    
C25   O12   A    
C31   O5    A    
C4    O10   A    
C51   H7    S    
C16   O13   A    
C37   C38   A    
C66   O36   D    
C47   C48   A    
C61   O26   S    
O14   Zn2   S    
Br5   C53   S    
H20   O37   S    
C38   C63   S    
C24   H29   S    
C28   O15   A    
C60   O24   S    
C45   C56   A    
C29   O44   A    
C56   C67   A    
C53   C68   S    
C58   O19   S    
C28   O16   A    
C5    H23   S    
C22   C24   S    
C12   C23   S    
C50   C51   S    
C33   O9    A    
H22   O41   S    
C25   C36   S    
C59   O21   S    
C4    C34   S    
C11   C13   S    
C2    C71   A    
C54   C55   S    
O7    Zn6   S    
C1    C56   S    
C40   C52   S    
C38   C39   A    
C65   O33   D    
O1    Zn1   S    
C13   C14   S    
C69   O41   S    
C27   C46   S    
C26   C54   S    
C42   C43   S    
O10   Zn1   S    
C7    C8    A    
O23   Zn3   S    
C44   C53   S    
C34   C57   S    
C67   H10   S    
C23   H9    S    
C4    O11   A    
O4    Zn2   S    
C51   C66   S    
C20   C21   A    
C66   O37   S    
O2    Zn6   S    
