data_mof_unit_68556.cif
_audit_creation_date              2012-12-11T14:23:09-0500
_audit_creation_method            fapswitch 2.2
_symmetry_space_group_name_H-M    P1
_symmetry_Int_Tables_number       1
_space_group_crystal_system       triclinic
_cell_length_a                    8.248394
_cell_length_b                    14.172744
_cell_length_c                    15.105297
_cell_angle_alpha                 93.733131
_cell_angle_beta                  99.339327
_cell_angle_gamma                 90.828664
_cell_volume                      1738.17905514

loop_
_atom_site_label
_atom_site_type_symbol
_atom_type_description
_atom_site_fract_x
_atom_site_fract_y
_atom_site_fract_z
_atom_type_partial_charge
Ba1   Ba    Ba6+2 0.142880 0.544780 0.454020 1.638981
Ba2   Ba    Ba6+2 0.667290 0.455210 0.545900 1.633331
C1    C     C_3   0.429858 0.877095 0.165750 -0.246601
C2    C     C_R   0.819070 0.802839 0.496505 0.034694
C3    C     C_R   0.668054 0.770919 0.446649 -0.281523
C4    C     C_3   0.848383 0.798296 0.243967 0.388972
C5    C     C_R   0.553379 0.834275 0.407733 -0.006697
C6    C     C_R   0.595782 0.930116 0.409941 -0.152483
C7    C     C_R   0.751503 0.963927 0.453140 0.004317
C8    C     C_R   0.862635 0.901285 0.499926 -0.032457
C9    C     C_R   0.944958 0.098333 0.499108 -0.034856
C10   C     C_R   0.056050 0.035685 0.545816 0.000458
C11   C     C_R   0.989707 0.196594 0.501880 0.042162
C12   C     C_3   0.343233 0.790502 0.194317 0.317572
C13   C     C_R   0.142580 0.228149 0.548823 -0.279024
C14   C     C_R   0.255716 0.164871 0.587789 0.001534
C15   C     C_R   0.212136 0.069459 0.588327 -0.150361
C16   C     C_3   0.860591 0.897330 0.211797 -0.385632
C17   C     C_R   0.794380 0.060351 0.451737 -0.041770
C18   C     C_R   0.240611 0.464049 0.768500 -0.251125
C19   C     C_R   0.148712 0.432129 0.830702 0.013276
C20   C     C_R   0.209509 0.445108 0.923153 -0.149353
C21   C     C_R   0.364668 0.491031 0.954805 0.012020
C22   C     C_R   0.451018 0.525544 0.889036 -0.098368
C23   C     C_3   0.552668 0.753015 0.680694 0.434911
C24   C     C_R   0.388528 0.513065 0.797420 0.061232
C25   C     C_R   0.588038 0.552896 0.084336 -0.136279
C26   C     C_R   0.652200 0.567125 0.175558 -0.000523
C27   C     C_R   0.417807 0.484086 0.213066 0.075317
C28   C     C_3   0.759945 0.336121 0.278736 0.314348
C29   C     C_R   0.352247 0.469611 0.121278 -0.114568
C30   C     C_R   0.434077 0.505630 0.054324 0.008249
C31   C     C_R   0.564115 0.535882 0.239702 -0.271064
C32   C     C_3   0.720780 0.307401 0.178595 -0.404805
C33   C     C_3   0.068688 0.671155 0.723155 0.314846
C34   C     C_3   0.586227 0.855314 0.720529 -0.360930
C35   C     C_3   0.154198 0.713460 0.815992 -0.231540
C36   C     C_3   0.284932 0.260531 0.359385 0.312946
C37   C     C_3   0.269398 0.153497 0.342075 -0.412599
C38   C     C_3   0.055293 0.702864 0.892488 -0.230801
C39   C     C_3   0.899693 0.760870 0.880699 -0.189872
C40   C     C_3   0.826739 0.770739 0.967168 -0.400812
C41   C     C_3   0.310711 0.955982 0.137529 -0.171097
C42   C     C_3   0.402112 0.041640 0.110281 -0.221024
C43   C     C_3   0.285010 0.122191 0.087295 -0.419497
C44   C     C_3   0.937920 0.198350 0.743522 0.358354
C45   C     C_3   0.918822 0.095561 0.767477 -0.101909
C46   C     C_3   0.461106 0.195503 0.798582 0.481109
C47   C     C_3   0.490266 0.123368 0.870256 -0.409494
C48   C     C_R   0.013047 0.939352 0.547483 -0.043360
H1    H     H_    0.260350 0.757658 0.134580 0.056470
H2    H     H_    0.389206 0.277247 0.414732 0.077737
H3    H     H_    0.154949 0.133871 0.294407 0.112738
H4    H     H_    0.264939 0.119408 0.405566 0.078244
H5    H     H_    0.377105 0.126557 0.313559 0.118628
H6    H     H_    0.434485 0.735972 0.215833 -0.049815
H7    H     H_    0.493430 0.854315 0.108757 0.067231
H8    H     H_    0.670828 0.722912 0.667766 0.017653
H9    H     H_    0.652725 0.857651 0.790296 0.107568
H10   H     H_    0.660768 0.894428 0.679173 0.063904
H11   H     H_    0.468431 0.892028 0.722081 0.109370
H12   H     H_    0.625021 0.250061 0.166032 0.120161
H13   H     H_    0.522912 0.905324 0.222891 0.084628
H14   H     H_    0.824816 0.950224 0.262140 0.069517
H15   H     H_    0.839823 0.210271 0.686157 0.099759
H16   H     H_    0.058362 0.208875 0.721728 -0.071013
H17   H     H_    0.887699 0.049057 0.704633 0.070378
H18   H     H_    0.816158 0.088782 0.805909 0.151443
H19   H     H_    0.328059 0.192002 0.771011 -0.036165
H20   H     H_    0.408619 0.137316 0.920751 0.079658
H21   H     H_    0.619786 0.127498 0.905047 0.119634
H22   H     H_    0.934173 0.795693 0.308539 0.096303
H23   H     H_    0.675271 0.368401 0.140501 0.066040
H24   H     H_    0.462966 0.050704 0.838644 0.105887
H25   H     H_    0.634723 0.696546 0.443358 0.067071
H26   H     H_    0.506205 0.978368 0.379217 0.064991
H27   H     H_    0.301299 0.021476 0.620015 0.063294
H28   H     H_    0.178530 0.301989 0.549746 0.065625
H29   H     H_    0.099361 0.894838 0.585803 0.109300
H30   H     H_    0.708427 0.104908 0.413205 0.104073
H31   H     H_    0.664800 0.576812 0.039099 0.060698
H32   H     H_    0.132495 0.419889 0.968184 0.073905
H33   H     H_    0.240284 0.427678 0.104285 0.073718
H34   H     H_    0.833263 0.281881 0.153979 0.126790
H35   H     H_    0.720737 0.784820 0.255305 -0.089217
H36   H     H_    0.563749 0.566438 0.906049 0.061666
H37   H     H_    0.615470 0.545732 0.310369 0.065871
H38   H     H_    0.192034 0.456191 0.697368 0.058732
H39   H     H_    0.988109 0.913725 0.202682 0.143986
H40   H     H_    0.778727 0.902766 0.146498 0.102586
H41   H     H_    0.646032 0.358230 0.302918 0.006173
H42   H     H_    0.851047 0.395853 0.289317 0.067441
H43   H     H_    0.804227 0.699970 0.990511 0.148612
H44   H     H_    0.912462 0.812456 0.020203 0.157726
H45   H     H_    0.163863 0.642628 0.685825 0.028571
H46   H     H_    0.708325 0.807834 0.955061 0.114166
H47   H     H_    0.927703 0.832797 0.860945 0.139900
H48   H     H_    0.808308 0.724334 0.827111 0.146326
H49   H     H_    0.022734 0.627075 0.896859 0.112365
H50   H     H_    0.135449 0.727474 0.956614 0.116651
H51   H     H_    0.188082 0.099080 0.029827 0.134543
H52   H     H_    0.225662 0.144783 0.145693 0.158341
H53   H     H_    0.354049 0.183925 0.069169 0.123926
H54   H     H_    0.500178 0.067345 0.166533 0.125982
H55   H     H_    0.460549 0.020784 0.050842 0.127559
H56   H     H_    0.982240 0.612349 0.730306 0.026569
H57   H     H_    0.215820 0.928641 0.080315 0.110150
H58   H     H_    0.249059 0.979273 0.195071 0.136562
H59   H     H_    0.463031 0.698368 0.553173 0.176135
H60   H     H_    0.448485 0.815489 0.566166 0.133814
H61   H     H_    0.110768 0.113372 0.872535 0.194742
H62   H     H_    0.157830 0.054848 0.779204 0.167995
H63   H     H_    0.434660 0.305644 0.888992 0.125520
H64   H     H_    0.628099 0.292382 0.870089 0.221945
H65   H     H_    0.270550 0.677601 0.835888 0.066773
H66   H     H_    0.188258 0.789163 0.812105 0.141459
H67   H     H_    0.170023 0.287297 0.379309 0.007389
N1    N     N_3   0.434992 0.752950 0.597400 -0.430237
N2    N     N_3   0.068233 0.062334 0.820585 -0.514947
N3    N     N_3   0.505451 0.290905 0.838586 -0.461777
O1    O     O_2   0.113690 0.728200 0.532750 -0.438418
O2    O     O_2   0.807955 0.432991 0.824902 -0.475007
O3    O     O_3   0.922624 0.261097 0.817761 -0.614729
O4    O     O_3   0.871900 0.612110 0.540440 -0.489034
O5    O     O_3   0.421180 0.451020 0.394720 -0.498194
O6    O     O_2   0.662730 0.548230 0.717350 -0.459436
O7    O     O_3   0.486024 0.702002 0.743582 -0.651624
O8    O     O_2   0.576563 0.165026 0.563240 -0.500641
O9    O     O_3   0.558728 0.171854 0.732649 -0.599552
O10   O     O_3   0.325660 0.668890 0.372600 -0.463201
O11   O     O_2   0.225593 0.834475 0.428632 -0.483343
O12   O     O_3   0.312055 0.300314 0.280436 -0.641208
O13   O     O_3   0.983858 0.742833 0.677017 -0.654893
O14   O     O_3   0.245997 0.818080 0.259497 -0.589528
O15   O     O_2   0.147570 0.451710 0.282630 -0.457501
O16   O     O_3   0.905540 0.621350 0.329600 -0.490429
O17   O     O_2   0.989910 0.557692 0.174501 -0.473532
O18   O     O_3   0.891143 0.731950 0.178965 -0.596839
O19   O     O_2   0.696600 0.271740 0.467230 -0.467654
O20   O     O_3   0.938380 0.387880 0.459490 -0.494351
O21   O     O_3   0.484630 0.331100 0.627330 -0.450141
O22   O     O_3   0.823043 0.257925 0.323254 -0.641205
O23   O     O_3   0.389110 0.548970 0.605210 -0.475922
O24   O     O_3   0.904740 0.378630 0.670330 -0.488865
P1    P     P_3+3 0.947560 0.714050 0.560480 0.975925
P2    P     P_3+3 0.325150 0.423860 0.297970 0.982052
P3    P     P_3+3 0.859673 0.618278 0.212910 0.957314
P4    P     P_3+3 0.862730 0.285940 0.439440 0.967869
P5    P     P_3+3 0.945203 0.377524 0.787467 0.956029
P6    P     P_3+3 0.340639 0.791005 0.366709 0.957899
P7    P     P_3+3 0.480866 0.579033 0.716775 0.946291
P8    P     P_3+3 0.466685 0.208002 0.628073 0.954251

loop_
_geom_bond_atom_site_label_1
_geom_bond_atom_site_label_2
_ccdc_geom_bond_type
C12   H6    S    
O3    P5    S    
C4    O18   S    
C40   H43   S    
Ba2   O24   S    
C39   C40   S    
Ba1   P1    S    
C6    H26   S    
C46   H19   S    
C34   H9    S    
C23   N1    S    
C33   O13   S    
C38   H49   S    
C42   H54   S    
C5    C6    A    
C46   N3    S    
C35   H66   S    
C42   H55   S    
C4    H22   S    
C9    C17   A    
C4    H35   S    
C40   H46   S    
Ba2   O19   S    
C20   H32   S    
C24   P7    S    
C33   C35   S    
Ba1   O5    S    
C44   H16   S    
C35   C38   S    
O5    P2    S    
C36   C37   S    
C37   H4    S    
C36   H2    S    
Ba2   P4    S    
C13   C14   A    
H63   N3    S    
C27   C31   A    
C32   H12   S    
C29   H33   S    
H61   N2    S    
Ba1   Ba2   S    
C43   H53   S    
O7    P7    S    
C36   H67   S    
O8    P8    D    
C37   H5    S    
C29   C30   A    
C14   C15   A    
C10   C15   A    
O10   P6    S    
C21   C22   A    
C28   H41   S    
C19   P5    S    
Ba1   O16   S    
C7    C8    A    
O23   P7    S    
C40   H44   S    
C19   C20   A    
C48   H29   S    
Ba2   O23   S    
O20   P4    S    
Ba1   P2    S    
C32   H34   S    
C45   H17   S    
C7    C17   A    
H59   N1    S    
C4    C16   S    
O19   P4    D    
C28   C32   S    
C16   H40   S    
O2    P5    D    
O22   P4    S    
C25   H31   S    
C44   H15   S    
C28   H42   S    
Ba1   O10   S    
C27   P2    S    
C3    C5    A    
C6    C7    A    
C12   O14   S    
C32   H23   S    
C39   H48   S    
C36   O12   S    
C3    H25   S    
C41   C42   S    
O24   P5    S    
Ba1   O23   S    
C5    P6    S    
O6    P7    D    
C12   H1    S    
O18   P3    S    
O15   P2    D    
C1    C41   S    
C15   H27   S    
C14   P8    S    
C41   H57   S    
H60   N1    S    
C1    C12   S    
Ba1   O20   S    
C43   H51   S    
O9    P8    S    
Ba2   O6    S    
C46   C47   S    
C26   C31   A    
C33   H45   S    
C47   H20   S    
C11   C13   A    
O1    P1    D    
C44   O3    S    
O13   P1    S    
C23   H8    S    
C2    C8    A    
C34   H11   S    
C8    C48   A    
C1    H7    S    
C45   H18   S    
C42   C43   S    
C44   C45   S    
C38   C39   S    
C26   P3    S    
Ba2   O4    S    
C25   C30   A    
C47   H24   S    
C16   H39   S    
O17   P3    D    
C22   C24   A    
C2    C3    A    
C34   H10   S    
C38   H50   S    
H62   N2    S    
C10   C48   A    
C9    C10   A    
C35   H65   S    
C1    H13   S    
O4    P1    S    
C28   O22   S    
Ba2   O20   S    
C21   C30   S    
C31   H37   S    
Ba1   O4    S    
O12   P2    S    
C27   C29   A    
C33   H56   S    
C9    C11   A    
C16   H14   S    
C37   H3    S    
C18   C24   A    
C2    P1    S    
C18   H38   S    
C45   N2    S    
C39   H47   S    
C41   H58   S    
C23   O7    S    
C17   H30   S    
C46   O9    S    
Ba1   O1    S    
O16   P3    S    
C43   H52   S    
C23   C34   S    
C13   H28   S    
Ba2   O5    S    
C18   C19   A    
C47   H21   S    
C25   C26   A    
Ba2   O21   S    
C20   C21   A    
O11   P6    D    
C11   P4    S    
Ba1   O15   S    
C22   H36   S    
H64   N3    S    
O21   P8    S    
O14   P6    S    
