data_mof_unit_14524.cif
_audit_creation_date              2012-12-10T18:31:56-0500
_audit_creation_method            fapswitch 2.2
_symmetry_space_group_name_H-M    P1
_symmetry_Int_Tables_number       1
_space_group_crystal_system       triclinic
_cell_length_a                    10.633273
_cell_length_b                    14.977475
_cell_length_c                    15.534609
_cell_angle_alpha                 81.934352
_cell_angle_beta                  89.726614
_cell_angle_gamma                 104.387503
_cell_volume                      2370.71027725

loop_
_atom_site_label
_atom_site_type_symbol
_atom_type_description
_atom_site_fract_x
_atom_site_fract_y
_atom_site_fract_z
_atom_type_partial_charge
C1    C     C_R   0.479308 0.441434 0.661749 0.862323
C2    C     C_3   0.120754 0.497088 0.503920 0.154981
C3    C     C_3   0.093702 0.561416 0.422967 -0.415362
C4    C     C_3   0.085460 0.532305 0.587948 -0.405342
C5    C     C_R   0.476850 0.405012 0.753718 -0.066845
C6    C     C_R   0.537344 0.593736 0.245095 -0.060109
C7    C     C_R   0.538360 0.298201 0.867223 -0.221215
C8    C     C_R   0.516847 0.323330 0.780048 -0.252278
C9    C     C_R   0.451365 0.458681 0.815466 0.131487
C10   C     C_R   0.501770 0.445308 0.898553 0.063650
C11   C     C_R   0.534622 0.359916 0.926415 0.139352
C12   C     C_R   0.741628 0.499462 0.502579 0.818300
C13   C     C_R   0.525958 0.515279 0.953163 0.068969
C14   C     C_R   0.548106 0.490632 0.041737 0.069564
C15   C     C_R   0.570847 0.402057 0.069761 -0.236396
C16   C     C_R   0.567799 0.338901 0.012037 -0.225837
C17   C     C_R   0.540433 0.610407 0.920333 -0.235350
C18   C     C_R   0.556620 0.677310 0.975758 -0.250681
C19   C     C_R   0.556189 0.650648 0.065373 0.181566
C20   C     C_R   0.550381 0.556634 0.098750 0.093149
C21   C     C_R   0.559876 0.716146 0.122369 -0.208132
C22   C     C_R   0.550845 0.687791 0.212201 -0.204405
C23   C     C_R   0.519740 0.558436 0.337974 0.867949
C24   C     C_R   0.538754 0.529744 0.188387 -0.278001
C25   C     C_R   0.679294 0.838654 0.644683 -0.324768
C26   C     C_R   0.652238 0.750758 0.619836 0.004743
C27   C     C_R   0.520530 0.795502 0.507133 -0.068972
C28   C     C_R   0.545719 0.886661 0.528058 -0.005718
C29   C     C_R   0.625600 0.906826 0.599297 0.185700
C30   C     C_R   0.493999 0.957383 0.481628 0.081533
C31   C     C_R   0.517761 0.046264 0.510085 0.096944
C32   C     C_R   0.598019 0.062995 0.581596 -0.243714
C33   C     C_R   0.651194 0.994620 0.624777 -0.219241
C34   C     C_R   0.257748 0.498563 0.501718 0.835546
C35   C     C_R   0.421166 0.942458 0.407015 -0.236965
C36   C     C_R   0.372563 0.011823 0.361447 -0.224872
C37   C     C_R   0.392312 0.099353 0.388509 0.122098
C38   C     C_R   0.462609 0.116104 0.465051 -0.019550
C39   C     C_R   0.344612 0.170928 0.340027 0.005816
C40   C     C_R   0.361352 0.254870 0.373586 -0.014146
C41   C     C_R   0.476330 0.203268 0.492857 -0.084001
C42   C     C_3   0.892791 0.397074 0.506282 -0.387993
C43   C     C_3   0.035744 0.396781 0.503754 -0.399021
C44   C     C_3   0.948978 0.559801 0.422775 -0.438964
C45   C     C_3   0.942547 0.538607 0.587636 -0.050222
C46   C     C_3   0.878095 0.498262 0.506070 0.138872
H1    H     H_    0.848134 0.367959 0.448196 0.191136
H2    H     H_    0.148893 0.602497 0.593271 0.171988
H3    H     H_    0.938115 0.632293 0.419028 0.174634
H4    H     H_    0.152388 0.634162 0.423297 0.175613
H5    H     H_    0.591948 0.273555 0.034454 0.142455
H6    H     H_    0.523422 0.457345 0.215063 0.154885
H7    H     H_    0.550918 0.738527 0.255499 0.152990
H8    H     H_    0.565724 0.749455 0.948593 0.145096
H9    H     H_    0.566771 0.233957 0.887110 0.140473
H10   H     H_    0.533965 0.280090 0.733124 0.159154
H11   H     H_    0.842087 0.350125 0.564719 0.159951
H12   H     H_    0.600115 0.382130 0.134568 0.145280
H13   H     H_    0.544467 0.634628 0.851345 0.170657
H14   H     H_    0.566561 0.788548 0.097478 0.132753
H15   H     H_    0.712697 0.010638 0.678901 0.140265
H16   H     H_    0.527019 0.222832 0.549684 0.128835
H17   H     H_    0.326676 0.311931 0.340728 0.136578
H18   H     H_    0.318234 0.995097 0.304668 0.139497
H19   H     H_    0.740955 0.853083 0.699007 0.141289
H20   H     H_    0.692382 0.697032 0.654513 0.134338
H21   H     H_    0.457691 0.771947 0.456487 0.124314
H22   H     H_    0.055482 0.349377 0.561118 0.171370
H23   H     H_    0.624565 0.128975 0.605334 0.131750
H24   H     H_    0.401880 0.878127 0.380276 0.132230
H25   H     H_    0.058216 0.369189 0.444085 0.183574
H26   H     H_    0.905726 0.532019 0.363770 0.174644
H27   H     H_    0.121873 0.537966 0.362417 0.163582
H28   H     H_    0.942942 0.613853 0.579327 0.158047
H29   H     H_    0.103243 0.483993 0.645176 0.155915
N1    N     N_R   0.573860 0.731700 0.552730 -0.098847
N2    N     N_R   0.426060 0.268290 0.447230 -0.115347
O1    O     O_R   0.462770 0.383110 0.605620 -0.620449
O2    O     O_R   0.510160 0.531900 0.639510 -0.614864
O3    O     O_R   0.661510 0.425600 0.483070 -0.621867
O4    O     O_R   0.708900 0.574390 0.516960 -0.626824
O5    O     O_R   0.489840 0.468100 0.360490 -0.626660
O6    O     O_R   0.537230 0.616890 0.394380 -0.615224
O7    O     O_R   0.291100 0.425610 0.483040 -0.624782
O8    O     O_R   0.338490 0.574400 0.516930 -0.626347
Zn1   Zn    Zn3+2 0.468350 0.400660 0.477370 0.922389
Zn2   Zn    Zn3+2 0.531650 0.599340 0.522630 0.925340
C47   C     C_3   0.352350 0.515859 0.796574 -0.926538
H30   H     H_    0.310997 0.530176 0.857415 0.246996
H31   H     H_    0.395135 0.582825 0.754332 0.257627
H32   H     H_    0.269384 0.476002 0.763164 0.223999
C48   C     C_3   0.282643 0.158253 0.252478 -0.446151
C49   C     C_3   0.254309 0.245804 0.200159 -0.357964
C50   C     C_3   0.206412 0.227600 0.110229 -0.851971
H33   H     H_    0.281658 0.208075 0.072223 0.263330
H34   H     H_    0.115662 0.170728 0.116252 0.254688
H35   H     H_    0.186162 0.291781 0.074453 0.252013
H36   H     H_    0.178386 0.267607 0.235445 0.215405
H37   H     H_    0.344305 0.303468 0.191313 0.225659
H38   H     H_    0.350233 0.134492 0.211385 0.209182
H39   H     H_    0.190292 0.102866 0.263755 0.205384
C51   C     C_3   0.869322 0.492862 0.675755 -0.426695
C52   C     C_3   0.924263 0.546585 0.750406 -0.367427
C53   C     C_3   0.839665 0.510465 0.833535 -0.844305
H40   H     H_    0.742903 0.524466 0.823333 0.262614
H41   H     H_    0.828430 0.434445 0.852157 0.265687
H42   H     H_    0.884931 0.547091 0.887345 0.249042
H43   H     H_    0.024120 0.539479 0.763759 0.226659
H44   H     H_    0.928813 0.621843 0.732151 0.216689
H45   H     H_    0.765032 0.492281 0.671229 0.207768
H46   H     H_    0.875452 0.419415 0.691630 0.204055

loop_
_geom_bond_atom_site_label_1
_geom_bond_atom_site_label_2
_ccdc_geom_bond_type
C44   H3    S    
C24   H6    S    
O6    Zn2   S    
C49   C50   S    
C23   O5    A    
C19   C20   A    
C16   H5    S    
C7    H9    S    
C8    H10   S    
C53   H41   S    
C7    C8    A    
C45   C46   S    
C7    C11   A    
C40   H17   S    
C23   O6    A    
C30   C35   A    
C1    C5    S    
C36   C37   A    
C19   C21   A    
O7    Zn1   S    
C9    C47   S    
C41   N2    A    
C30   C31   A    
C15   C16   A    
C6    C22   A    
C29   C33   A    
C18   C19   A    
C42   C46   S    
C4    H29   S    
O3    Zn1   S    
C20   C24   A    
C35   H24   S    
C43   H22   S    
C26   N1    A    
C52   H43   S    
C9    C10   A    
C49   H37   S    
O1    Zn1   S    
C21   C22   A    
C1    O1    A    
C51   H46   S    
C50   H33   S    
C34   O7    A    
C41   H16   S    
C42   H11   S    
O2    Zn2   S    
C53   H40   S    
C3    H4    S    
C44   C46   S    
C22   H7    S    
C4    C45   S    
O8    Zn2   S    
C25   C29   A    
C3    C44   S    
C26   H20   S    
C14   C20   A    
C25   H19   S    
C38   C41   A    
C12   C46   S    
C10   C11   A    
C39   C40   A    
C50   H35   S    
C25   C26   A    
O5    Zn1   S    
C45   H28   S    
C34   O8    A    
C2    C4    S    
C5    C9    A    
C37   C38   A    
C11   C16   A    
C31   C32   A    
C47   H32   S    
C2    C43   S    
C6    C24   A    
C17   C18   A    
C50   H34   S    
N1    Zn2   S    
C21   H14   S    
O4    Zn2   S    
C48   H39   S    
C17   H13   S    
C47   H31   S    
N2    Zn1   S    
C1    O2    A    
C15   H12   S    
C51   H45   S    
C42   C43   S    
C27   N1    A    
C39   C48   S    
C27   C28   A    
C48   H38   S    
C4    H2    S    
C28   C29   A    
C43   H25   S    
C14   C15   A    
C10   C13   A    
C5    C8    A    
C32   H23   S    
C31   C38   A    
C13   C17   A    
C52   H44   S    
C32   C33   A    
C28   C30   A    
C2    C3    S    
C37   C39   A    
C36   H18   S    
C2    C34   S    
C6    C23   S    
C12   O3    A    
C48   C49   S    
C12   O4    A    
C44   H26   S    
C42   H1    S    
C51   C52   S    
C3    H27   S    
C27   H21   S    
C45   C51   S    
C18   H8    S    
C47   H30   S    
C33   H15   S    
C52   C53   S    
C40   N2    A    
C35   C36   A    
C13   C14   A    
C49   H36   S    
C53   H42   S    
