data_mof_unit_23044.cif
_audit_creation_date              2012-12-10T21:26:05-0500
_audit_creation_method            fapswitch 2.2
_symmetry_space_group_name_H-M    P1
_symmetry_Int_Tables_number       1
_space_group_crystal_system       triclinic
_cell_length_a                    8.58613
_cell_length_b                    16.136702
_cell_length_c                    16.814392
_cell_angle_alpha                 86.218808
_cell_angle_beta                  91.230454
_cell_angle_gamma                 100.881705
_cell_volume                      2282.69812155

loop_
_atom_site_label
_atom_site_type_symbol
_atom_type_description
_atom_site_fract_x
_atom_site_fract_y
_atom_site_fract_z
_atom_type_partial_charge
C1    C     C_R   0.503459 0.488035 0.652663 0.857481
C2    C     C_R   0.496541 0.511965 0.347336 0.857481
C3    C     C_R   0.426815 0.758513 0.459148 0.243862
C4    C     C_R   0.573185 0.241487 0.540852 0.243862
C5    C     C_R   0.431430 0.846154 0.461811 -0.316912
C6    C     C_R   0.568570 0.153846 0.538189 -0.316912
C7    C     C_R   0.531950 0.893134 0.516950 0.311267
C8    C     C_R   0.468050 0.106866 0.483050 0.311267
C9    C     C_R   0.625342 0.849683 0.567825 -0.286461
C10   C     C_R   0.374658 0.150317 0.432175 -0.286461
C11   C     C_R   0.617479 0.762335 0.563391 -0.024140
C12   C     C_R   0.382520 0.237665 0.436609 -0.024140
C13   C     C_R   0.800771 0.521827 0.501092 0.959169
C14   C     C_R   0.199229 0.478173 0.498908 0.959169
C15   C     C_2   0.966634 0.533677 0.501991 -0.382329
C16   C     C_2   0.033365 0.466323 0.498009 -0.382329
C17   C     C_R   0.512647 0.478080 0.738466 -0.135484
C18   C     C_R   0.487353 0.521920 0.261534 -0.135485
C19   C     C_R   0.627402 0.531914 0.781837 -0.053652
C20   C     C_R   0.372598 0.468086 0.218162 -0.053652
C21   C     C_R   0.618996 0.525118 0.864634 -0.162436
C22   C     C_R   0.381004 0.474882 0.135366 -0.162436
C23   C     C_R   0.499132 0.465734 0.903653 0.264711
C24   C     C_R   0.500868 0.534265 0.096346 0.264711
C25   C     C_R   0.394926 0.407568 0.860346 0.109584
C26   C     C_R   0.605074 0.592432 0.139654 0.109585
C27   C     C_R   0.401773 0.414433 0.777405 -0.245064
C28   C     C_R   0.598228 0.585567 0.222595 -0.245064
H1    H     H_    0.033396 0.597672 0.506055 0.183417
H2    H     H_    0.966604 0.402328 0.493945 0.183417
H3    H     H_    0.295012 0.433520 0.100842 0.205361
H4    H     H_    0.704988 0.566480 0.899158 0.205361
H5    H     H_    0.316817 0.372305 0.742980 0.154173
H6    H     H_    0.683183 0.627695 0.257020 0.154173
H7    H     H_    0.643028 0.123532 0.578933 0.158328
H8    H     H_    0.356972 0.876468 0.421066 0.158328
H9    H     H_    0.704208 0.883441 0.610938 0.161890
H10   H     H_    0.295791 0.116559 0.389062 0.161890
H11   H     H_    0.690171 0.729670 0.602948 0.149153
H12   H     H_    0.309829 0.270330 0.397051 0.149154
N1    N     N_2   0.478526 0.464586 0.986513 -0.173150
N2    N     N_2   0.521474 0.535413 0.013487 -0.173150
N3    N     N_R   0.519180 0.718290 0.509780 -0.088819
N4    N     N_R   0.480820 0.281710 0.490220 -0.088819
N5    N     N_2   0.543392 0.982544 0.523488 -0.175383
N6    N     N_2   0.456608 0.017456 0.476512 -0.175383
O1    O     O_R   0.493140 0.422050 0.612640 -0.598837
O2    O     O_R   0.506860 0.577950 0.387360 -0.598837
O3    O     O_R   0.505450 0.562230 0.618920 -0.626364
O4    O     O_R   0.494550 0.437770 0.381080 -0.626364
O5    O     O_R   0.723530 0.446300 0.497600 -0.591171
O6    O     O_R   0.276470 0.553700 0.502400 -0.591171
O7    O     O_R   0.735850 0.586490 0.503880 -0.640022
O8    O     O_R   0.264150 0.413510 0.496120 -0.640022
Zn1   Zn    Zn3+2 0.491780 0.406400 0.495810 0.961067
Zn2   Zn    Zn3+2 0.508220 0.593600 0.504190 0.961067
C29   C     C_2   0.241755 0.406714 0.257932 0.409360
H13   H     H_    0.219158 0.408722 0.320892 0.064503
O9    O     O_2   0.155803 0.353464 0.220474 -0.565652
C30   C     C_2   0.758245 0.593286 0.742067 0.409360
H14   H     H_    0.780842 0.591278 0.679108 0.064503
O10   O     O_2   0.844196 0.646537 0.779526 -0.565651
N7    N     N_3   0.276913 0.345162 0.901148 -0.432964
H15   H     H_    0.204120 0.309478 0.860225 0.181475
H16   H     H_    0.336237 0.303258 0.934154 0.194749
N8    N     N_3   0.723088 0.654838 0.098852 -0.432964
H17   H     H_    0.795880 0.690522 0.139775 0.181475
H18   H     H_    0.663764 0.696742 0.065846 0.194749
N9    N     N_3   0.674875 0.288862 0.596873 -0.398979
H19   H     H_    0.643225 0.262553 0.654077 0.167699
H20   H     H_    0.791093 0.281527 0.586784 0.160569
N10   N     N_3   0.325125 0.711138 0.403127 -0.398979
H21   H     H_    0.356775 0.737447 0.345923 0.167699
H22   H     H_    0.208907 0.718473 0.413216 0.160569

loop_
_geom_bond_atom_site_label_1
_geom_bond_atom_site_label_2
_ccdc_geom_bond_type
C12   H12   S    
N8    H18   S    
N7    H16   S    
C14   O6    A    
C11   N3    A    
C17   C19   A    
C14   C16   S    
C19   C30   S    
C2    C18   S    
O3    Zn2   S    
C24   N2    S    
N1    N2    D    
N3    Zn2   S    
C1    C17   S    
O4    Zn1   S    
C23   N1    S    
C10   H10   S    
C2    O2    A    
C21   C23   A    
C3    N10   S    
O1    Zn1   S    
C28   H6    S    
C12   N4    A    
N5    N6    D    
C27   H5    S    
C30   O10   D    
C11   H11   S    
C9    C11   A    
N4    Zn1   S    
C3    N3    A    
C29   H13   S    
C10   C12   A    
N10   H21   S    
C7    N5    S    
C26   C28   A    
N10   H22   S    
C4    N9    S    
C14   O8    A    
C24   C26   A    
C15   H1    S    
C13   O7    A    
C13   C15   S    
C2    O4    A    
N9    H19   S    
C21   H4    S    
C22   C24   A    
C29   O9    D    
C4    C6    A    
C25   C27   A    
C22   H3    S    
C16   H2    S    
N7    H15   S    
C17   C27   A    
C5    H8    S    
C7    C9    A    
N9    H20   S    
C23   C25   A    
C18   C28   A    
C6    H7    S    
C18   C20   A    
O2    Zn2   S    
C9    H9    S    
C25   N7    S    
O7    Zn2   S    
N8    H17   S    
C5    C7    A    
O8    Zn1   S    
C1    O1    A    
C6    C8    A    
C4    N4    A    
O5    Zn1   S    
C19   C21   A    
C20   C29   S    
C13   O5    A    
O6    Zn2   S    
C1    O3    A    
C8    C10   A    
C8    N6    S    
C15   C16   D    
C20   C22   A    
C30   H14   S    
C3    C5    A    
C26   N8    S    
