data_mof_unit_68219.cif
_audit_creation_date              2013-03-05T16:08:55-0500
_audit_creation_method            fapswitch 2.2
_symmetry_space_group_name_H-M    P1
_symmetry_Int_Tables_number       1
_space_group_crystal_system       triclinic
_cell_length_a                    17.667179
_cell_length_b                    7.100704
_cell_length_c                    15.000426
_cell_angle_alpha                 90.099675
_cell_angle_beta                  109.56527
_cell_angle_gamma                 89.957351
_cell_volume                      1773.13819922

loop_
_atom_site_label
_atom_site_type_symbol
_atom_site_description
_atom_site_fract_x
_atom_site_fract_y
_atom_site_fract_z
_atom_type_partial_charge
O1    O     O_R   0.314130 0.635770 0.168990 -0.619058
O2    O     O_R   0.685870 0.364230 0.831010 -0.620749
O3    O     O_R   0.185870 0.135770 0.331010 -0.638655
O4    O     O_R   0.814130 0.864230 0.668990 -0.618928
O5    O     O_R   0.146800 0.302460 0.139760 -0.605833
O6    O     O_R   0.853200 0.697540 0.860240 -0.604958
O7    O     O_R   0.353200 0.802460 0.360240 -0.605631
O8    O     O_R   0.646800 0.197540 0.639760 -0.592816
C1    C     C_R   0.114544 0.476103 0.112362 0.913436
C2    C     C_R   0.887543 0.524852 0.884127 0.906620
C3    C     C_R   0.383951 0.976213 0.389985 0.920992
C4    C     C_R   0.611918 0.024595 0.617054 0.906373
O9    O     O_R   0.311100 0.305780 0.157130 -0.580326
O10   O     O_R   0.688900 0.694220 0.842870 -0.592793
O11   O     O_R   0.188900 0.805780 0.342870 -0.591400
O12   O     O_R   0.811100 0.194220 0.657130 -0.585824
O13   O     O_R   0.351340 0.139640 0.348510 -0.576395
O14   O     O_R   0.648660 0.860360 0.651490 -0.580895
O15   O     O_R   0.148660 0.639640 0.151490 -0.573665
O16   O     O_R   0.851340 0.360360 0.848510 -0.575774
C5    C     C_R   0.329171 0.476222 0.132625 0.922878
C6    C     C_R   0.668084 0.524718 0.864578 0.942531
C7    C     C_R   0.171480 0.976290 0.367709 0.974831
C8    C     C_R   0.829896 0.024077 0.633046 0.931134
C9    C     C_1   0.529520 0.008871 0.539571 -0.281625
C10   C     C_1   0.462573 0.991154 0.473768 -0.308771
C11   C     C_1   0.968633 0.510314 0.963859 -0.300159
C12   C     C_1   0.034784 0.492370 0.030707 -0.287635
O17   O     O_3   0.263010 0.470920 0.312770 -0.313378
O18   O     O_3   0.736990 0.529080 0.687230 -0.289662
O19   O     O_3   0.236990 0.970920 0.187230 -0.291941
O20   O     O_3   0.763010 0.029080 0.812770 -0.293562
V1    V     V_3+5 0.247590 0.194450 0.238360 1.152359
V2    V     V_3+5 0.752410 0.805550 0.761640 1.156845
V3    V     V_3+5 0.252410 0.694450 0.261640 1.147825
V4    V     V_3+5 0.747590 0.305550 0.738360 1.166860
C13   C     C_R   0.114747 0.992067 0.425231 -0.355425
C14   C     C_R   0.876921 0.006521 0.562449 -0.346904
C15   C     C_R   0.382854 0.494711 0.070312 -0.373205
C16   C     C_R   0.621946 0.509144 0.935044 -0.343106
C17   C     C_R   0.886399 0.924249 0.402592 -0.112726
C18   C     C_R   0.091644 0.083493 0.568557 -0.135359
C19   C     C_R   0.612721 0.426345 0.095165 -0.110573
C20   C     C_R   0.414407 0.623282 0.936189 -0.103445
C21   C     C_R   0.840066 0.960168 0.465450 0.442208
C22   C     C_R   0.139441 0.089121 0.510546 0.449110
C23   C     C_R   0.659048 0.459668 0.031902 0.443132
C24   C     C_R   0.358438 0.594855 0.983259 0.450352
C25   C     C_R   0.960067 0.033366 0.595461 -0.074094
C26   C     C_R   0.031876 0.939836 0.386466 -0.063594
C27   C     C_R   0.539372 0.540579 0.902355 -0.071974
C28   C     C_R   0.466844 0.449326 0.110448 -0.044023
C29   C     C_R   0.008984 0.023342 0.535224 -0.008518
C30   C     C_R   0.974469 0.959546 0.438427 -0.001107
C31   C     C_R   0.492780 0.541810 0.965425 -0.028501
C32   C     C_R   0.525169 0.467946 0.059759 -0.006524
C33   C     C_R   0.010819 0.904994 0.285782 0.114521
C34   C     C_R   0.020838 0.053972 0.227867 -0.160033
C35   C     C_R   0.006794 0.023828 0.132703 -0.054180
C36   C     C_R   0.970290 0.858937 0.092111 -0.128796
C37   C     C_R   0.961191 0.712492 0.149180 -0.106893
C38   C     C_R   0.987851 0.727522 0.247029 -0.099300
H1    H     H_    0.038214 0.193620 0.256689 0.119536
H2    H     H_    0.014833 0.135351 0.088820 0.124609
H3    H     H_    0.945265 0.849094 0.016548 0.137078
H4    H     H_    0.928952 0.593521 0.116605 0.159109
H5    H     H_    0.980859 0.611089 0.290207 0.094209
C39   C     C_R   0.991338 0.074787 0.696753 0.121973
C40   C     C_R   0.000949 0.262141 0.727554 -0.109320
C41   C     C_R   0.028036 0.299058 0.823774 -0.096784
C42   C     C_R   0.028410 0.155229 0.887150 -0.089976
C43   C     C_R   0.000347 0.977881 0.853407 -0.077323
C44   C     C_R   0.990404 0.931511 0.760471 -0.149928
H6    H     H_    0.992905 0.376729 0.677641 0.092271
H7    H     H_    0.046687 0.439216 0.848009 0.119066
H8    H     H_    0.050524 0.178087 0.961999 0.125242
H9    H     H_    0.993523 0.871974 0.900851 0.122645
H10   H     H_    0.975697 0.787855 0.736362 0.112824
C45   C     C_R   0.487979 0.416926 0.211117 0.105118
C46   C     C_R   0.480248 0.567866 0.269719 -0.154993
C47   C     C_R   0.491732 0.536208 0.364543 -0.078356
C48   C     C_R   0.518342 0.362782 0.403245 -0.101834
C49   C     C_R   0.523940 0.214799 0.344459 -0.092922
C50   C     C_R   0.504381 0.236760 0.247822 -0.094639
H11   H     H_    0.465573 0.708676 0.241389 0.125611
H12   H     H_    0.484691 0.647232 0.409681 0.134526
H13   H     H_    0.533936 0.345071 0.478592 0.143271
H14   H     H_    0.541989 0.081941 0.372912 0.137848
H15   H     H_    0.507094 0.118114 0.203439 0.092509
C51   C     C_R   0.503357 0.552812 0.797758 0.100924
C52   C     C_R   0.498287 0.726448 0.752306 -0.088139
C53   C     C_R   0.461434 0.736722 0.654787 -0.102534
C54   C     C_R   0.443324 0.573412 0.600011 -0.104646
C55   C     C_R   0.460367 0.398484 0.644034 -0.129474
C56   C     C_R   0.491377 0.388114 0.742585 -0.163904
H16   H     H_    0.515795 0.854931 0.792906 0.111610
H17   H     H_    0.442403 0.872062 0.623786 0.121705
H18   H     H_    0.415006 0.582087 0.524137 0.133781
H19   H     H_    0.447315 0.271354 0.602211 0.126587
H20   H     H_    0.508144 0.252312 0.775701 0.122273
O21   O     O_3   0.214631 0.175974 0.544643 -0.690488
C57   C     C_3   0.218170 0.339286 0.491485 0.331509
H21   H     H_    0.160332 0.376934 0.435407 0.102668
H22   H     H_    0.265510 0.312730 0.459883 0.166836
C58   C     C_3   0.247046 0.511950 0.553221 -1.018715
H23   H     H_    0.197863 0.581446 0.570745 0.240200
H24   H     H_    0.296209 0.472012 0.617848 0.269569
H25   H     H_    0.270133 0.617526 0.514168 0.238474
O22   O     O_3   0.757197 0.984792 0.423725 -0.650208
C59   C     C_3   0.712638 0.894048 0.472951 0.299031
H26   H     H_    0.695791 0.003417 0.514601 0.114911
H27   H     H_    0.744940 0.771871 0.515295 0.110377
C60   C     C_3   0.635733 0.815485 0.407496 -1.069299
H28   H     H_    0.640277 0.664897 0.406786 0.236623
H29   H     H_    0.589320 0.830970 0.439504 0.238468
H30   H     H_    0.617930 0.876408 0.335608 0.280772
O23   O     O_3   0.282306 0.671887 0.934997 -0.680853
C61   C     C_3   0.223448 0.663522 0.978061 0.252162
H31   H     H_    0.238953 0.763324 0.037573 0.186227
H32   H     H_    0.210600 0.515994 0.992737 0.072459
C62   C     C_3   0.145928 0.742506 0.914260 -1.003526
H33   H     H_    0.129644 0.695538 0.840267 0.259575
H34   H     H_    0.098932 0.697483 0.941689 0.230659
H35   H     H_    0.148201 0.897310 0.918935 0.259411
O24   O     O_3   0.742533 0.475425 0.072122 -0.655354
C63   C     C_3   0.783151 0.368629 0.023024 0.308685
H36   H     H_    0.799600 0.467025 0.976849 0.118949
H37   H     H_    0.747257 0.246017 0.984688 0.107368
C64   C     C_3   0.861394 0.290643 0.087082 -1.086759
H38   H     H_    0.860747 0.139816 0.079882 0.240882
H39   H     H_    0.909721 0.323629 0.060198 0.241388
H40   H     H_    0.877090 0.338489 0.161157 0.277856
C65   C     C_R   0.833818 0.858444 0.301617 0.127093
C66   C     C_R   0.840613 0.920817 0.215922 -0.203184
C67   C     C_R   0.783858 0.875981 0.127100 -0.042956
C68   C     C_R   0.706676 0.837872 0.123269 -0.079569
C69   C     C_R   0.694387 0.788534 0.205795 -0.085801
C70   C     C_R   0.760860 0.765385 0.288996 0.015206
H41   H     H_    0.881870 0.026727 0.216785 0.141593
H42   H     H_    0.793517 0.900639 0.060928 0.115736
H43   H     H_    0.657307 0.842961 0.056897 0.105823
H44   H     H_    0.633590 0.762360 0.202310 0.090250
H45   H     H_    0.752425 0.702091 0.348876 0.136662
C71   C     C_R   0.133651 0.149614 0.664552 0.230773
C72   C     C_R   0.145900 0.342442 0.681266 -0.125069
C73   C     C_R   0.195368 0.405484 0.768743 -0.144071
C74   C     C_R   0.230482 0.276913 0.840895 -0.074272
C75   C     C_R   0.217831 0.085934 0.824563 -0.113409
C76   C     C_R   0.169421 0.020493 0.736432 -0.111546
H46   H     H_    0.115226 0.442374 0.626934 0.096799
H47   H     H_    0.206804 0.553322 0.778664 0.168518
H48   H     H_    0.269886 0.320199 0.908921 0.127743
H49   H     H_    0.250857 0.990194 0.878919 0.196766
H50   H     H_    0.162394 0.870839 0.722627 0.102786
C77   C     C_R   0.664278 0.359065 0.196254 0.122801
C78   C     C_R   0.656196 0.420835 0.281346 -0.198259
C79   C     C_R   0.711876 0.379227 0.370880 -0.045859
C80   C     C_R   0.789542 0.340902 0.376173 -0.068385
C81   C     C_R   0.802905 0.287670 0.294497 -0.081708
C82   C     C_R   0.737223 0.265562 0.210291 0.008379
H51   H     H_    0.616619 0.530015 0.279396 0.135056
H52   H     H_    0.700723 0.409759 0.435873 0.113963
H53   H     H_    0.838254 0.346791 0.443110 0.104496
H54   H     H_    0.863738 0.257064 0.299285 0.086479
H55   H     H_    0.745941 0.199611 0.151304 0.142853
C83   C     C_R   0.394534 0.779996 0.868574 0.232708
C84   C     C_R   0.421455 0.961337 0.900355 -0.189277
C85   C     C_R   0.399533 0.111988 0.837892 -0.193395
C86   C     C_R   0.354035 0.081699 0.743004 -0.055610
C87   C     C_R   0.324679 0.902223 0.712110 -0.129862
C88   C     C_R   0.342577 0.752735 0.775968 -0.122400
H56   H     H_    0.457976 0.985997 0.973427 0.118528
H57   H     H_    0.416993 0.252386 0.863170 0.144083
H58   H     H_    0.338772 0.198484 0.694731 0.165742
H59   H     H_    0.287867 0.879213 0.639291 0.155444
H60   H     H_    0.321508 0.613307 0.752804 0.115650

loop_
_geom_bond_atom_site_label_1
_geom_bond_atom_site_label_2
_geom_bond_distance
_ccdc_geom_bond_type
C2    C11   1.531711 S    
C16   C23   1.423951 A    
C69   H44   1.074079 S    
O1    C5    1.321411 A    
O21   C57   1.421687 S    
C25   C39   1.461788 S    
C86   C87   1.394924 A    
O3    C7    1.321512 A    
C74   C75   1.382597 A    
C31   C32   1.436911 A    
C17   C65   1.559273 S    
C72   C73   1.384369 A    
C51   C52   1.398163 A    
C67   C68   1.372555 A    
C14   C25   1.397230 A    
C29   C30   1.445841 A    
O7    C3    1.361304 A    
C58   H24   1.100579 S    
O5    C1    1.363004 A    
C26   C30   1.478032 A    
C38   H5    1.083466 S    
O20   V4    2.230949 S    
C78   C79   1.405293 A    
C60   H28   1.072536 S    
C70   H45   1.059314 S    
C18   C29   1.440925 A    
C18   C22   1.401507 A    
C45   C50   1.385197 A    
O4    C8    1.326569 A    
C21   O22   1.397165 S    
C87   C88   1.394432 A    
O3    V1    2.076493 S    
C48   H13   1.077504 S    
O17   V1    2.227885 S    
C57   C58   1.517098 S    
O8    V4    2.044680 S    
C61   H31   1.099306 S    
C62   H35   1.101236 S    
C43   H9    1.070515 S    
C52   H16   1.082230 S    
C59   H26   1.097522 S    
C37   H4    1.043888 S    
C1    O15   1.348316 A    
C79   C80   1.374662 A    
C49   C50   1.382131 A    
C2    O16   1.352353 A    
C39   C40   1.399212 A    
C14   C21   1.418985 A    
O5    V1    2.045617 S    
O2    C6    1.324526 A    
C8    C14   1.554307 S    
C44   H10   1.083976 S    
O19   V1    1.744304 S    
C41   C42   1.394989 A    
C28   C45   1.447798 S    
C47   H12   1.072305 S    
C52   C53   1.389795 A    
C43   C44   1.384628 A    
C60   H30   1.105961 S    
O11   C7    1.331960 A    
C49   H14   1.040973 S    
C69   C70   1.408045 A    
C65   C70   1.404031 A    
O12   C8    1.333648 A    
C83   C84   1.399438 A    
C85   H57   1.074055 S    
O13   V1    2.052819 S    
C19   C77   1.560164 S    
O11   V3    2.068727 S    
C22   O21   1.397012 S    
C53   H17   1.072000 S    
C23   O24   1.398572 S    
C61   H32   1.109945 S    
C87   H59   1.080077 S    
C67   H42   1.076636 S    
C58   H25   1.110652 S    
O4    V2    2.076493 S    
C77   C78   1.400719 A    
O18   V2    2.227887 S    
C57   H21   1.117095 S    
C51   C56   1.406095 A    
C75   C76   1.391500 A    
C84   C85   1.389989 A    
C56   H20   1.080299 S    
C68   C69   1.372570 A    
C63   C64   1.500641 S    
C33   C38   1.389548 A    
C39   C44   1.401014 A    
C7    C13   1.529839 S    
C47   C48   1.375995 A    
O6    V2    2.045616 S    
C36   C37   1.391224 A    
C61   C62   1.492989 S    
O20   V2    1.744302 S    
C86   H58   1.075029 S    
C76   H50   1.081541 S    
O9    V1    2.070984 S    
C46   H11   1.083890 S    
C65   C66   1.402985 A    
C81   C82   1.408746 A    
C5    C15   1.544282 S    
O8    C4    1.364891 A    
C6    C16   1.539999 S    
C78   H51   1.037480 S    
C35   H2    1.070126 S    
O9    C5    1.335102 A    
C40   H6    1.083278 S    
C54   C55   1.392378 A    
C20   C83   1.468034 S    
C82   H55   1.056256 S    
C57   H22   1.106688 S    
O14   V2    2.052818 S    
C59   C60   1.492330 S    
C62   H33   1.100417 S    
C24   O23   1.407314 S    
C83   C88   1.398226 A    
C80   H53   1.082462 S    
C40   C41   1.384630 A    
C85   C86   1.396870 A    
C36   H3    1.072030 S    
C55   C56   1.396010 A    
C18   C71   1.458477 S    
O24   C63   1.408417 S    
O19   V3    2.230949 S    
C45   C46   1.420221 A    
C34   C35   1.380918 A    
C75   H49   1.072437 S    
C42   H8    1.070176 S    
C66   H41   1.044737 S    
O1    V3    2.075195 S    
C73   C74   1.393781 A    
C88   H60   1.073402 S    
O2    V4    2.075196 S    
C34   H1    1.083738 S    
C3    O13   1.351699 A    
C63   H37   1.116091 S    
C71   C76   1.395979 A    
C77   C82   1.401226 A    
C81   H54   1.074925 S    
C26   C33   1.450220 S    
O7    V3    2.044680 S    
C72   H46   1.080308 S    
C46   C47   1.386599 A    
O10   V2    2.070983 S    
O6    C2    1.361951 A    
C84   H56   1.083631 S    
C16   C27   1.392583 A    
C58   H23   1.104327 S    
O17   V3    1.746476 S    
C66   C67   1.409324 A    
C3    C10   1.533195 S    
O18   V4    1.746475 S    
C4    C9    1.532684 S    
C71   C72   1.395478 A    
C64   H40   1.104280 S    
C74   H48   1.069489 S    
C9    C10   1.267654 T    
C42   C43   1.385089 A    
C27   C51   1.485231 S    
O15   V3    2.052245 S    
O22   C59   1.404230 S    
O12   V4    2.068725 S    
C13   C26   1.431482 A    
C20   C31   1.427302 A    
O10   C6    1.331205 A    
C33   C34   1.418308 A    
C80   C81   1.375373 A    
C55   H19   1.078468 S    
C63   H36   1.090489 S    
C25   C29   1.446069 A    
C54   H18   1.080870 S    
C53   C54   1.394042 A    
C68   H43   1.082486 S    
C15   C28   1.438695 A    
C27   C31   1.447152 A    
C37   C38   1.387117 A    
C59   H27   1.113628 S    
C17   C30   1.487512 A    
C62   H34   1.091114 S    
C73   H47   1.069853 S    
O16   V4    2.052246 S    
C20   C24   1.409048 A    
C19   C32   1.487123 A    
C35   C36   1.375931 A    
C41   H7    1.072472 S    
C48   C49   1.395193 A    
C50   H15   1.083810 S    
C4    O14   1.350768 A    
C11   C12   1.266078 T    
C17   C21   1.462845 A    
C64   H38   1.075908 S    
C64   H39   1.085224 S    
C13   C22   1.387980 A    
O23   C61   1.397224 S    
C19   C23   1.465497 A    
C79   H52   1.078957 S    
C28   C32   1.477405 A    
C1    C12   1.530851 S    
C15   C24   1.422125 A    
C60   H29   1.085518 S    
