data_mof_unit_62917.cif
_audit_creation_date              2013-03-05T15:45:32-0500
_audit_creation_method            fapswitch 2.2
_symmetry_space_group_name_H-M    P1
_symmetry_Int_Tables_number       1
_space_group_crystal_system       triclinic
_cell_length_a                    21.706143
_cell_length_b                    21.662185
_cell_length_c                    21.780506
_cell_angle_alpha                 120.628998
_cell_angle_beta                  117.341946
_cell_angle_gamma                 89.603263
_cell_volume                      7474.49334715

loop_
_atom_site_label
_atom_site_type_symbol
_atom_site_description
_atom_site_fract_x
_atom_site_fract_y
_atom_site_fract_z
_atom_type_partial_charge
O1    O     O_R   0.448260 0.091600 0.499990 -0.612164
O2    O     O_R   0.551740 0.908400 0.500010 -0.610803
O3    O     O_R   0.551730 0.091620 0.499980 -0.620772
O4    O     O_R   0.448270 0.908380 0.500020 -0.619585
C1    C     C_R   0.497998 0.117977 0.496042 0.877941
C2    C     C_R   0.501980 0.881997 0.503898 0.881727
O5    O     O_R   0.509690 0.061420 0.622860 -0.600300
O6    O     O_R   0.490310 0.938580 0.377140 -0.604872
O7    O     O_R   0.613170 0.061430 0.622850 -0.612585
O8    O     O_R   0.386830 0.938570 0.377150 -0.610557
C3    C     C_R   0.579437 0.080961 0.662170 0.881527
C4    C     C_R   0.420553 0.919009 0.337846 0.885744
Zn1   Zn    Zn3+2 0.430910 0.999990 0.500010 1.028366
Zn2   Zn    Zn3+2 0.569090 0.000010 0.499990 1.025289
C5    C     C_R   0.732959 0.641315 0.602711 -0.083984
C6    C     C_R   0.267433 0.358584 0.397966 -0.082965
C7    C     C_R   0.686471 0.443054 0.425955 0.237434
C8    C     C_R   0.313409 0.557180 0.573733 0.235731
C9    C     C_R   0.682121 0.505706 0.490174 -0.208453
C10   C     C_R   0.317903 0.494342 0.509842 -0.205880
H1    H     H_    0.786514 0.756198 0.709612 0.167841
H2    H     H_    0.214182 0.243432 0.291688 0.169071
C11   C     C_R   0.810661 0.566951 0.567433 -0.004166
C12   C     C_R   0.189464 0.432780 0.432806 -0.008518
H3    H     H_    0.679751 0.648650 0.588154 0.160099
H4    H     H_    0.320709 0.351449 0.412579 0.160319
C13   C     C_3   0.654506 0.257667 0.957196 0.379792
C14   C     C_3   0.334573 0.726197 0.044176 0.394694
C15   C     C_3   0.768767 0.259552 0.948892 -0.423662
C16   C     C_3   0.222455 0.755165 0.051122 -0.431335
C17   C     C_3   0.814551 0.312357 0.045862 -0.399213
C18   C     C_3   0.174237 0.709836 0.954204 -0.422220
H5    H     H_    0.715270 0.365131 0.081139 0.164623
H6    H     H_    0.253280 0.619800 0.927772 0.149548
H7    H     H_    0.801122 0.224434 0.926404 0.218794
H8    H     H_    0.199352 0.800105 0.079123 0.210348
H9    H     H_    0.757760 0.293286 0.922109 0.222970
H10   H     H_    0.221036 0.718204 0.072035 0.226134
H11   H     H_    0.816704 0.371406 0.066161 0.200747
H12   H     H_    0.147832 0.651409 0.928689 0.202542
H13   H     H_    0.871526 0.310131 0.069009 0.251537
H14   H     H_    0.129726 0.734678 0.936074 0.250627
C19   C     C_1   0.867784 0.373947 0.249787 -0.023080
C20   C     C_1   0.132630 0.625935 0.750136 -0.018029
C21   C     C_3   0.697172 0.207934 0.918441 0.094168
C22   C     C_3   0.301424 0.790359 0.081737 0.073057
C23   C     C_3   0.704762 0.304399 0.056360 -0.021618
C24   C     C_3   0.281854 0.673982 0.945460 -0.016190
C25   C     C_3   0.780793 0.289925 0.083492 0.041251
C26   C     C_3   0.220294 0.709215 0.916455 0.041059
C27   C     C_3   0.772313 0.205029 0.047373 0.152991
C28   C     C_3   0.254312 0.792003 0.951943 0.160433
C29   C     C_3   0.719846 0.156795 0.950545 -0.442884
C30   C     C_3   0.296435 0.840794 0.049412 -0.446995
C31   C     C_1   0.828099 0.336061 0.174961 0.055529
C32   C     C_1   0.172700 0.663551 0.824920 0.092088
C33   C     C_1   0.654472 0.162134 0.826546 0.060291
C34   C     C_1   0.344810 0.836771 0.173509 0.030169
C35   C     C_1   0.620100 0.124955 0.751317 -0.111805
C36   C     C_1   0.379724 0.874521 0.248720 -0.114296
H15   H     H_    0.671988 0.119117 0.933373 0.227631
H16   H     H_    0.350978 0.875203 0.076180 0.217292
H17   H     H_    0.746148 0.119136 0.919349 0.218330
H18   H     H_    0.268293 0.882131 0.072171 0.221747
H19   H     H_    0.750735 0.187829 0.075409 0.197735
H20   H     H_    0.292741 0.793730 0.932168 0.219184
H21   H     H_    0.457532 0.232007 0.576121 0.204568
H22   H     H_    0.541905 0.767714 0.423293 0.205878
C37   C     C_R   0.528013 0.126887 0.382075 -0.151852
C38   C     C_R   0.472668 0.873453 0.618425 -0.146262
H23   H     H_    0.517569 0.071427 0.368781 0.157160
H24   H     H_    0.483118 0.928874 0.631619 0.163038
C39   C     C_R   0.553127 0.136727 0.338249 -0.126414
C40   C     C_R   0.447897 0.863826 0.662615 -0.116212
H25   H     H_    0.563305 0.090433 0.294804 0.170756
H26   H     H_    0.437993 0.910248 0.706268 0.180063
C41   C     C_R   0.565665 0.206172 0.350805 -0.077246
C42   C     C_R   0.435331 0.794421 0.650140 -0.082880
H27   H     H_    0.586570 0.214018 0.317946 0.198624
H28   H     H_    0.414677 0.786740 0.683278 0.199270
C43   C     C_R   0.550263 0.265117 0.404598 -0.131786
C44   C     C_R   0.450376 0.735303 0.596057 -0.131266
H29   H     H_    0.561014 0.318242 0.412928 0.170455
H30   H     H_    0.439592 0.682212 0.587771 0.171826
C45   C     C_R   0.522214 0.255464 0.447308 0.045971
C46   C     C_R   0.478114 0.744740 0.552998 0.046802
C47   C     C_R   0.515311 0.187143 0.439953 0.099285
C48   C     C_R   0.485024 0.813030 0.560294 0.094340
C49   C     C_R   0.494872 0.181056 0.490016 -0.166590
C50   C     C_R   0.505119 0.818928 0.509911 -0.166873
C51   C     C_R   0.474378 0.237878 0.539108 -0.200953
C52   C     C_R   0.525303 0.761959 0.460538 -0.195754
C53   C     C_R   0.476237 0.302909 0.542160 0.246717
C54   C     C_R   0.523460 0.696948 0.457528 0.248125
C55   C     C_R   0.501226 0.312373 0.497627 -0.182005
C56   C     C_R   0.498775 0.687653 0.502382 -0.182094
C57   C     C_R   0.753313 0.442599 0.432500 0.214229
C58   C     C_R   0.246504 0.557730 0.566987 0.217022
C59   C     C_R   0.815596 0.502802 0.504433 -0.214541
C60   C     C_R   0.184360 0.497158 0.495424 -0.214990
O9    O     O_R   0.908550 0.551730 0.500000 -0.610853
O10   O     O_R   0.091450 0.448270 0.500000 -0.610627
O11   O     O_R   0.908530 0.448300 0.500020 -0.584186
O12   O     O_R   0.091470 0.551700 0.499980 -0.583851
C61   C     C_R   0.882096 0.502482 0.504540 0.973844
C62   C     C_R   0.117884 0.497495 0.495406 0.972163
O13   O     O_R   0.938770 0.490290 0.377130 -0.611842
O14   O     O_R   0.061230 0.509710 0.622870 -0.611335
O15   O     O_R   0.938740 0.386860 0.377150 -0.583092
O16   O     O_R   0.061260 0.613140 0.622850 -0.578371
C63   C     C_R   0.915620 0.418944 0.338432 0.956083
C64   C     C_R   0.084448 0.581041 0.661547 0.955518
Zn3   Zn    Zn3+2 0.000200 0.569060 0.499990 1.086562
Zn4   Zn    Zn3+2 0.999800 0.430940 0.500010 1.083276
O17   O     O_R   0.626330 0.534680 0.569330 -0.630223
O18   O     O_R   0.373670 0.465320 0.430670 -0.629363
O19   O     O_R   0.556960 0.465330 0.430620 -0.564403
O20   O     O_R   0.443040 0.534670 0.569380 -0.564411
C65   C     C_R   0.619158 0.501062 0.497022 0.899379
C66   C     C_R   0.380848 0.498952 0.502979 0.900028
O21   O     O_R   0.534700 0.443070 0.569370 -0.572304
O22   O     O_R   0.465300 0.556930 0.430630 -0.570787
O23   O     O_R   0.465330 0.373710 0.430660 -0.636721
O24   O     O_R   0.534670 0.626290 0.569340 -0.637587
C67   C     C_R   0.500392 0.379431 0.499480 0.886712
C68   C     C_R   0.499589 0.620578 0.500524 0.886465
Zn5   Zn    Zn3+2 0.546330 0.546310 0.592620 1.073979
Zn6   Zn    Zn3+2 0.453670 0.453690 0.407380 1.078347
C69   C     C_R   0.741343 0.571456 0.553052 0.042670
C70   C     C_R   0.258832 0.428446 0.447251 0.043360
C71   C     C_R   0.871402 0.626497 0.645190 0.266323
C72   C     C_R   0.128821 0.372890 0.355283 0.267899
C73   C     C_R   0.862422 0.694826 0.694713 -0.114206
C74   C     C_R   0.138005 0.304528 0.306172 -0.108802
H31   H     H_    0.908839 0.740522 0.753568 0.185293
H32   H     H_    0.091654 0.258581 0.247501 0.195238
C75   C     C_R   0.793375 0.703160 0.671412 -0.182992
C76   C     C_R   0.207155 0.296478 0.329586 -0.185241
N1    N     N_R   0.582798 0.213485 0.926207 0.258058
O25   O     O_R   0.557591 0.141050 0.870787 -0.386335
O26   O     O_R   0.539864 0.248524 0.947861 -0.236960
N2    N     N_R   0.408826 0.759082 0.069986 0.242214
O27   O     O_R   0.419538 0.790479 0.036838 -0.350384
O28   O     O_R   0.465419 0.760058 0.129339 -0.278367
N3    N     N_R   0.670835 0.292631 0.096156 0.249904
O29   O     O_R   0.648241 0.226187 0.076899 -0.323275
O30   O     O_R   0.661090 0.349517 0.150114 -0.267913
N4    N     N_R   0.321348 0.653588 0.901324 0.251129
O31   O     O_R   0.314574 0.674938 0.853053 -0.310995
O32   O     O_R   0.362627 0.610837 0.908608 -0.253647
Br1   Br    Br    0.865497 0.182957 0.077669 -0.469867
Br2   Br    Br    0.182162 0.836459 0.908195 -0.448170
Br3   Br    Br    0.441503 0.375924 0.605929 -0.412702
Br4   Br    Br    0.557839 0.623756 0.393397 -0.408628
Br5   Br    Br    0.602278 0.358720 0.326541 -0.369308
Br6   Br    Br    0.397561 0.641567 0.673105 -0.378752
Br7   Br    Br    0.758841 0.359495 0.341499 -0.357762
Br8   Br    Br    0.240704 0.641613 0.657155 -0.348745
Br9   Br    Br    0.960873 0.610877 0.701591 -0.542274
Br10  Br    Br    0.039173 0.387974 0.298430 -0.516123
Br11  Br    Br    0.634145 0.328144 0.923764 -0.408280
Br12  Br    Br    0.340774 0.663080 0.086640 -0.390639

loop_
_geom_bond_atom_site_label_1
_geom_bond_atom_site_label_2
_geom_bond_distance
_ccdc_geom_bond_type
C9    C69   1.406157 A    
C11   C59   1.419635 A    
C23   N3    1.474019 S    
C73   C75   1.388258 A    
C11   C69   1.402745 A    
O9    Zn3   2.027152 S    
H1    C75   1.082514 S    
C38   C48   1.416560 A    
O12   C62   1.281154 A    
N3    O29   1.301453 A    
C14   Br12  1.978499 S    
C23   C25   1.567452 S    
O5    C3    1.285732 A    
C14   C22   1.577048 S    
C72   Br10  1.901768 S    
C40   H26   1.082572 S    
O1    C1    1.281925 A    
N4    O32   1.301260 A    
O21   Zn5   2.014468 S    
O19   C65   1.262424 A    
C42   H28   1.081786 S    
C33   C35   1.196140 T    
C34   C36   1.195710 T    
O17   Zn5   2.002267 S    
C16   H10   1.110999 S    
C27   H19   1.108174 S    
O14   Zn4   1.987833 S    
O4    Zn1   2.017456 S    
C37   H23   1.080549 S    
C20   C32   1.195646 T    
O13   Zn3   1.987832 S    
C57   C59   1.407074 A    
C29   H15   1.108585 S    
C39   C41   1.389240 A    
C58   Br8   1.939670 S    
C12   C72   1.420104 A    
C25   C27   1.559595 S    
C38   C40   1.392994 A    
C26   C28   1.562195 S    
C37   C39   1.393069 A    
C49   C51   1.394472 A    
C6    C70   1.415013 A    
C37   C47   1.416542 A    
C28   Br2   1.957377 S    
C13   C21   1.583830 S    
C24   C26   1.571256 S    
C74   C76   1.388245 A    
C27   Br1   1.958888 S    
C53   C55   1.401610 A    
C22   C34   1.459218 S    
O9    C61   1.282870 A    
C39   H25   1.082556 S    
O2    C2    1.281715 A    
C19   C63   1.418034 S    
C17   C25   1.551520 S    
C3    C35   1.417462 S    
O8    C4    1.284486 A    
H21   C51   1.084274 S    
N3    O30   1.301348 A    
C28   C30   1.550459 S    
C43   C45   1.414206 A    
O20   C66   1.262325 A    
C45   C47   1.406377 A    
C6    H4    1.082612 S    
C59   C61   1.442365 S    
C46   C48   1.406318 A    
C11   C71   1.420152 A    
N1    O26   1.302384 A    
O11   Zn4   2.014012 S    
N4    O31   1.301314 A    
O4    C2    1.281583 A    
C7    C9    1.411573 A    
C74   H32   1.082921 S    
C30   H16   1.110184 S    
O3    C1    1.281580 A    
C44   C46   1.414083 A    
C21   C29   1.556915 S    
C26   C32   1.460537 S    
O18   C66   1.281583 A    
C15   C21   1.557821 S    
C27   C29   1.549604 S    
C57   Br7   1.939960 S    
O22   C68   1.267721 A    
C71   Br9   1.902120 S    
O7    Zn2   1.970855 S    
O21   C67   1.267608 A    
O10   Zn4   2.027149 S    
C12   C70   1.402839 A    
C51   C53   1.376021 A    
C42   C44   1.394521 A    
C50   C52   1.394387 A    
C5    C69   1.415008 A    
C41   C43   1.394436 A    
O6    C4    1.285946 A    
C21   C33   1.461051 S    
C22   C30   1.553435 S    
C52   C54   1.376034 A    
C41   H27   1.081812 S    
C56   C68   1.432999 S    
O11   C61   1.281135 A    
C45   C55   1.415121 A    
C54   C56   1.401727 A    
O7    C3    1.284969 A    
O16   Zn3   1.996267 S    
C18   C26   1.555378 S    
O3    Zn2   2.017459 S    
C46   C56   1.415314 A    
O15   Zn4   1.996268 S    
O24   Zn5   2.023372 S    
C20   C64   1.418072 S    
C19   C31   1.195384 T    
C55   C67   1.432711 S    
C48   C50   1.412151 A    
C44   H30   1.078621 S    
C47   C49   1.412420 A    
O18   Zn6   2.002269 S    
H5    C23   1.114303 S    
N2    O28   1.301688 A    
C13   N1    1.480419 S    
O20   Zn5   2.044939 S    
C7    Br5   1.935529 S    
C10   C66   1.450449 S    
C8    Br6   1.935396 S    
O24   C68   1.267121 A    
C13   C23   1.582016 S    
H2    C76   1.082500 S    
C14   C24   1.578453 S    
O6    Zn2   2.013654 S    
C17   H13   1.112279 S    
C12   C60   1.419783 A    
C58   C60   1.407093 A    
O13   C63   1.282924 A    
C16   C22   1.553768 S    
C6    C76   1.390225 A    
C10   C70   1.406036 A    
C71   C73   1.398098 A    
O8    Zn1   1.970855 S    
C43   H29   1.078785 S    
C14   N2    1.482134 S    
N1    O25   1.301457 A    
C60   C62   1.442720 S    
C15   H7    1.113900 S    
H6    C24   1.113799 S    
O17   C65   1.281641 A    
C16   H8    1.113707 S    
O15   C63   1.284378 A    
C15   C17   1.543625 S    
C2    C50   1.435687 S    
C13   Br11  1.970823 S    
C16   C18   1.545415 S    
C54   Br4   1.925154 S    
C29   H17   1.112757 S    
O23   Zn6   2.023372 S    
C30   H18   1.113105 S    
C24   N4    1.474177 S    
C53   Br3   1.925131 S    
H22   C52   1.084283 S    
C17   H11   1.113283 S    
O10   C62   1.283050 A    
C8    C10   1.411245 A    
C18   H12   1.113548 S    
C25   C31   1.458933 S    
O22   Zn6   2.014466 S    
O2    Zn2   2.022706 S    
O19   Zn6   2.044937 S    
O16   C64   1.284465 A    
O23   C67   1.267073 A    
C9    C65   1.450719 S    
O12   Zn3   2.014012 S    
C4    C36   1.416947 S    
O14   C64   1.282841 A    
O5    Zn1   2.013654 S    
C28   H20   1.108854 S    
O1    Zn1   2.022706 S    
C5    H3    1.082624 S    
C72   C74   1.398083 A    
C40   C42   1.389236 A    
C15   H9    1.111443 S    
C73   H31   1.082895 S    
C18   H14   1.112582 S    
N2    O27   1.301796 A    
C38   H24   1.080595 S    
C8    C58   1.391497 A    
C7    C57   1.391658 A    
C1    C49   1.436032 S    
C5    C75   1.390231 A    
