data_mof_unit_39795.cif
_audit_creation_date              2012-12-11T15:29:39-0500
_audit_creation_method            fapswitch 2.2
_symmetry_space_group_name_H-M    P1
_symmetry_Int_Tables_number       1
_space_group_crystal_system       triclinic
_cell_length_a                    21.423951
_cell_length_b                    7.250576
_cell_length_c                    14.664788
_cell_angle_alpha                 90.000678
_cell_angle_beta                  74.748419
_cell_angle_gamma                 89.999721
_cell_volume                      2197.73935858

loop_
_atom_site_label
_atom_site_type_symbol
_atom_type_description
_atom_site_fract_x
_atom_site_fract_y
_atom_site_fract_z
_atom_type_partial_charge
O1    O     O_R   0.464160 0.506670 0.130070 -0.537927
O2    O     O_R   0.535840 0.006670 0.869930 -0.537928
O3    O     O_R   0.589710 0.179080 0.006710 -0.545347
O4    O     O_R   0.410290 0.679080 0.993290 -0.545345
C1    C     C_R   0.616259 0.344141 0.002331 0.707584
C2    C     C_R   0.383741 0.844142 0.997669 0.707584
O5    O     O_R   0.467940 0.177220 0.138010 -0.536044
O6    O     O_R   0.532060 0.677220 0.861990 -0.536043
O7    O     O_R   0.413200 0.002810 0.002170 -0.542293
O8    O     O_R   0.586800 0.502810 0.997830 -0.542292
C3    C     C_R   0.456526 0.345429 0.174821 0.778854
C4    C     C_R   0.543474 0.845427 0.825179 0.778853
O9    O     O_3   0.482180 0.337850 0.955280 -0.381644
O10   O     O_3   0.517820 0.837850 0.044720 -0.381644
V1    V     V_3+5 0.503310 0.064600 0.008300 1.436413
V2    V     V_3+5 0.496690 0.564600 0.991700 1.436421
C5    C     C_R   0.570617 0.852388 0.722436 -0.169594
C6    C     C_R   0.429384 0.352388 0.277564 -0.169594
C7    C     C_R   0.927912 0.865562 0.276659 -0.037417
C8    C     C_R   0.072090 0.365528 0.723343 -0.037417
C9    C     C_R   0.556893 0.846593 0.563105 0.047474
C10   C     C_R   0.443110 0.346603 0.436894 0.047475
C11   C     C_R   0.530310 0.846202 0.661590 0.584736
C12   C     C_R   0.469692 0.346216 0.338409 0.584736
C13   C     C_R   0.637584 0.858242 0.686223 -0.320610
C14   C     C_R   0.362417 0.358203 0.313778 -0.320613
C15   C     C_R   0.666723 0.856753 0.587764 0.064285
C16   C     C_R   0.333278 0.356666 0.412237 0.064286
C17   C     C_R   0.625306 0.851554 0.525983 0.050514
C18   C     C_R   0.374697 0.351536 0.474017 0.050514
C19   C     C_R   0.735633 0.859335 0.549047 0.084956
C20   C     C_R   0.264368 0.359146 0.450954 0.084957
C21   C     C_R   0.762224 0.857387 0.448785 0.055812
C22   C     C_R   0.237778 0.357319 0.551217 0.055807
C23   C     C_R   0.719320 0.853749 0.390583 -0.196480
C24   C     C_R   0.280683 0.353763 0.609419 -0.196477
C25   C     C_R   0.652955 0.850760 0.428142 -0.140020
C26   C     C_R   0.347049 0.350778 0.571858 -0.140021
C27   C     C_R   0.778931 0.863534 0.607206 -0.164789
C28   C     C_R   0.221068 0.363072 0.392795 -0.164774
C29   C     C_R   0.845438 0.866792 0.569146 -0.178231
C30   C     C_R   0.154561 0.366226 0.430856 -0.178222
C31   C     C_R   0.871943 0.865701 0.471779 0.127839
C32   C     C_R   0.128057 0.365317 0.528223 0.127840
C33   C     C_R   0.830933 0.860032 0.409938 0.087030
C34   C     C_R   0.169069 0.359936 0.590065 0.087024
C35   C     C_R   0.939510 0.871211 0.435745 -0.161917
C36   C     C_R   0.060488 0.370692 0.564256 -0.161912
C37   C     C_R   0.967309 0.872297 0.338620 -0.164384
C38   C     C_R   0.032690 0.371922 0.661381 -0.164420
C39   C     C_R   0.860675 0.858435 0.311501 -0.213330
C40   C     C_R   0.139329 0.358569 0.688503 -0.213295
H1    H     H_    0.623594 0.847593 0.378409 0.151759
H2    H     H_    0.376411 0.347652 0.621591 0.151761
H3    H     H_    0.833477 0.853728 0.259379 0.090599
H4    H     H_    0.166529 0.354157 0.740626 0.090572
H5    H     H_    0.019459 0.878695 0.311748 0.158102
H6    H     H_    0.980537 0.378167 0.688251 0.158122
H7    H     H_    0.876529 0.870665 0.616742 0.140275
H8    H     H_    0.123468 0.369864 0.383259 0.140255
H9    H     H_    0.665258 0.861869 0.737715 0.124438
H10   H     H_    0.334742 0.361880 0.262288 0.124443
H11   H     H_    0.735160 0.853230 0.314637 0.116741
H12   H     H_    0.264844 0.353248 0.685364 0.116744
H13   H     H_    0.763423 0.864749 0.683143 0.129419
H14   H     H_    0.236576 0.364078 0.316857 0.129404
H15   H     H_    0.970881 0.876095 0.482882 0.127108
H16   H     H_    0.029115 0.375329 0.517118 0.127109
C41   C     C_3   0.212901 0.659917 0.993208 -0.294566
C42   C     C_3   0.787099 0.159918 0.006798 -0.294568
H17   H     H_    0.185058 0.580187 0.055561 0.185695
H18   H     H_    0.814941 0.080180 0.944447 0.185687
H19   H     H_    0.205265 0.588961 0.929826 0.132097
H20   H     H_    0.794735 0.088970 0.070181 0.132105
C43   C     C_3   0.285353 0.653933 0.990488 -0.329583
C44   C     C_3   0.714647 0.153933 0.009517 -0.329587
H21   H     H_    0.312692 0.586963 0.923565 0.156714
H22   H     H_    0.687307 0.086973 0.076443 0.156716
H23   H     H_    0.291669 0.566751 0.049933 0.146207
H24   H     H_    0.708330 0.066743 0.950075 0.146201
H25   H     H_    0.277192 0.860614 0.152196 0.180535
H26   H     H_    0.722808 0.360590 0.847804 0.180529
C45   C     C_3   0.198661 0.948722 0.090949 0.466069
C46   C     C_3   0.801339 0.448709 0.909050 0.466077
C47   C     C_3   0.230152 0.974875 0.913377 -0.076854
C48   C     C_3   0.769848 0.474887 0.086620 -0.076852
C49   C     C_3   0.187652 0.862349 0.999068 0.024193
C50   C     C_3   0.812348 0.362349 0.000933 0.024189
H27   H     H_    0.215035 0.122191 0.923239 0.122257
H28   H     H_    0.784964 0.622201 0.076755 0.122252
C51   C     C_3   0.312591 0.851052 0.997737 0.010344
C52   C     C_3   0.687409 0.351051 0.002264 0.010338
C53   C     C_3   0.271373 0.940712 0.090217 -0.367728
C54   C     C_3   0.728627 0.440698 0.909781 -0.367723
C55   C     C_3   0.303206 0.964962 0.912687 -0.324605
C56   C     C_3   0.696794 0.464973 0.087310 -0.324599
H29   H     H_    0.332852 0.902489 0.845923 0.201791
H30   H     H_    0.667148 0.402510 0.154076 0.201793
H31   H     H_    0.321866 0.107491 0.915701 0.133450
H32   H     H_    0.678134 0.607502 0.084292 0.133450
H33   H     H_    0.182872 0.095480 0.096476 0.048495
H34   H     H_    0.817127 0.595466 0.903519 0.048509
H35   H     H_    0.289040 0.082977 0.097335 0.099538
H36   H     H_    0.710959 0.582961 0.902659 0.099548
O11   O     O_R   0.913210 0.208550 0.002110 -0.536400
O12   O     O_R   0.086790 0.708550 0.997890 -0.536400
O13   O     O_R   0.032060 0.539960 0.861980 -0.538410
O14   O     O_R   0.967940 0.039960 0.138020 -0.538416
C57   C     C_R   0.043753 0.372659 0.825274 0.711655
C58   C     C_R   0.956246 0.872663 0.174726 0.711654
O15   O     O_R   0.910290 0.538020 0.993280 -0.554851
O16   O     O_R   0.089710 0.038020 0.006720 -0.554851
O17   O     O_R   0.964160 0.712340 0.130090 -0.535829
O18   O     O_R   0.035840 0.212340 0.869910 -0.535832
C59   C     C_R   0.884004 0.369849 0.998284 0.713507
C60   C     C_R   0.115996 0.869848 0.001716 0.713507
O19   O     O_3   0.017820 0.379210 0.044690 -0.379413
O20   O     O_3   0.982180 0.879210 0.955310 -0.379413
V3    V     V_3+5 0.996690 0.652500 0.991710 1.427832
V4    V     V_3+5 0.003310 0.152500 0.008290 1.427821
F1    F     F_    0.161714 0.857620 0.170010 -0.708234
F2    F     F_    0.838286 0.357596 0.829991 -0.708248
C61   C     C_3   0.220545 0.916781 0.816871 -0.754325
H37   H     H_    0.248805 0.009691 0.760815 0.218322
H38   H     H_    0.237312 0.773408 0.798542 0.220659
H39   H     H_    0.168942 0.928152 0.816522 0.201604
C62   C     C_3   0.779455 0.416806 0.183129 -0.754340
H40   H     H_    0.751193 0.509722 0.239182 0.218313
H41   H     H_    0.762688 0.273435 0.201460 0.220671
H42   H     H_    0.831057 0.428180 0.183477 0.201601
C63   C     C_3   0.512125 0.840199 0.498583 -0.746911
H43   H     H_    0.460265 0.836311 0.537977 0.261264
H44   H     H_    0.519822 0.963251 0.452104 0.219241
H45   H     H_    0.522512 0.716036 0.452991 0.218567
C64   C     C_3   0.487879 0.340220 0.501415 -0.746911
H46   H     H_    0.539739 0.336351 0.462020 0.261264
H47   H     H_    0.480176 0.463266 0.547899 0.219247
H48   H     H_    0.477498 0.216050 0.547001 0.218562
F3    F     F_    0.465147 0.839345 0.698824 -0.726222
F4    F     F_    0.534855 0.339382 0.301173 -0.726223

loop_
_geom_bond_atom_site_label_1
_geom_bond_atom_site_label_2
_ccdc_geom_bond_type
C64   H48   S    
C45   C49   S    
C3    C6    S    
H26   C54   S    
O12   V3    S    
C15   C17   A    
C21   C33   A    
O14   V4    S    
O1    C3    A    
C63   H45   S    
C42   C50   S    
C53   H35   S    
C2    O7    A    
C37   H5    S    
C61   H37   S    
C27   C29   A    
C12   F4    S    
O5    C3    A    
C5    C11   A    
C6    C12   A    
C11   F3    S    
C23   C25   A    
C44   H22   S    
C55   H31   S    
C61   H38   S    
C33   C39   A    
C46   F2    S    
C2    C51   S    
C45   C53   S    
C34   C40   A    
C52   C56   S    
C46   H34   S    
C18   C26   A    
O15   V3    S    
O13   V3    S    
C41   H17   S    
O20   V3    S    
C9    C63   S    
C8    C38   A    
O17   V3    S    
C19   C27   A    
C56   H30   S    
C4    C5    S    
C42   H20   S    
C19   C21   A    
O11   V4    S    
C41   H19   S    
C22   C34   A    
C45   H33   S    
C39   H3    S    
C41   C49   S    
C43   C51   S    
C25   H1    S    
C36   C38   A    
O2    C4    A    
O6    V2    S    
C28   H14   S    
C29   C31   A    
C47   C61   S    
C30   C32   A    
C35   H15   S    
C32   C34   A    
C47   C49   S    
C42   H18   S    
C48   C50   S    
C15   C19   A    
C38   H6    S    
C46   C50   S    
C16   C20   A    
C29   H7    S    
C35   C37   A    
C48   H28   S    
O19   V4    S    
C30   H8    S    
O16   V4    S    
C47   H27   S    
C61   H39   S    
C13   H9    S    
O5    V1    S    
C63   H44   S    
C9    C17   A    
C45   F1    S    
O12   C60   A    
C20   C22   A    
O4    V2    S    
C62   H41   S    
C51   C53   S    
H25   C53   S    
C7    C37   A    
C26   H2    S    
O6    C4    A    
C6    C14   A    
C52   C54   S    
O1    V2    S    
C46   C54   S    
C36   H16   S    
O2    V1    S    
C31   C33   A    
C58   O17   A    
C49   C60   S    
C48   C56   S    
C57   O18   A    
C44   C52   S    
O4    C2    A    
C9    C11   A    
C42   C44   S    
C10   C12   A    
O9    V2    S    
C63   H43   S    
O16   C60   A    
O3    V1    S    
C7    C58   S    
C64   H47   S    
C10   C18   A    
C48   C62   S    
O11   C59   A    
C44   H24   S    
O3    C1    A    
C23   H11   S    
C55   H29   S    
C62   H40   S    
C13   C15   A    
C27   H13   S    
C14   C16   A    
C10   C64   S    
C5    C13   A    
C50   C59   S    
C24   C26   A    
C14   H10   S    
C62   H42   S    
C16   C18   A    
C8    C40   A    
C32   C36   A    
O8    V2    S    
C47   C55   S    
O13   C57   A    
C31   C35   A    
C56   H32   S    
C28   C30   A    
C21   C23   A    
O14   C58   A    
C41   C43   S    
C22   C24   A    
C20   C28   A    
O7    V1    S    
C1    C52   S    
C64   H46   S    
C54   H36   S    
C8    C57   S    
C7    C39   A    
C1    O8    A    
C51   C55   S    
C43   H21   S    
C17   C25   A    
O10   V1    S    
O15   C59   A    
C24   H12   S    
C43   H23   S    
O18   V4    S    
C40   H4    S    
