data_mof_unit_38852.cif
_audit_creation_date              2012-12-10T18:59:15-0500
_audit_creation_method            fapswitch 2.2
_symmetry_space_group_name_H-M    P1
_symmetry_Int_Tables_number       1
_space_group_crystal_system       triclinic
_cell_length_a                    10.80978
_cell_length_b                    10.827551
_cell_length_c                    9.555934
_cell_angle_alpha                 89.750348
_cell_angle_beta                  90.138737
_cell_angle_gamma                 91.86223
_cell_volume                      1117.85519975

loop_
_atom_site_label
_atom_site_type_symbol
_atom_type_description
_atom_site_fract_x
_atom_site_fract_y
_atom_site_fract_z
_atom_type_partial_charge
C1    C     C_R   0.500437 0.262449 0.500218 0.801102
C2    C     C_R   0.075732 0.619969 0.458459 0.086131
C3    C     C_R   0.129876 0.508620 0.499308 -0.072780
C4    C     C_R   0.057840 0.407440 0.543930 -0.220370
C5    C     C_R   0.930529 0.413045 0.543631 -0.165427
C6    C     C_R   0.872575 0.520572 0.501205 -0.095868
C7    C     C_R   0.498863 0.063061 0.625704 0.135970
C8    C     C_R   0.507481 0.129464 0.500442 -0.104438
C9    C     C_R   0.526404 0.065682 0.375029 -0.221030
C10   C     C_R   0.522694 0.937151 0.374528 -0.193871
C11   C     C_R   0.501256 0.871129 0.499500 -0.078733
C12   C     C_R   0.262630 0.497544 0.499906 0.776266
C13   C     C_R   0.495974 0.935707 0.625272 0.119998
C14   C     C_3   0.399636 0.927824 0.737124 -0.470300
C15   C     C_3   0.403184 0.068015 0.737859 -0.473415
C16   C     C_R   0.600751 0.544158 0.073706 0.238018
C17   C     C_R   0.406018 0.444541 0.074381 -0.076945
C18   C     C_R   0.405933 0.444640 0.925605 -0.089253
C19   C     C_R   0.601648 0.543255 0.926395 0.299054
C20   C     C_3   0.659935 0.670573 0.921137 -0.119512
C21   C     C_3   0.656927 0.671227 0.080104 -0.507181
C22   C     C_R   0.495453 0.737469 0.499794 0.763597
C23   C     C_R   0.737652 0.511159 0.500058 0.773639
C24   C     C_R   0.150963 0.723468 0.418417 -0.179846
C25   C     C_R   0.099754 0.835116 0.384060 -0.215237
C26   C     C_R   0.973061 0.847084 0.391004 -0.088161
C27   C     C_R   0.895388 0.747344 0.430389 0.114429
C28   C     C_R   0.944753 0.629041 0.461895 0.035605
Cu1   Cu    Cu3+1 0.499990 0.499980 0.640670 0.938760
Cu2   Cu    Cu3+1 0.500010 0.500020 0.359330 0.933874
H1    H     H_    0.100538 0.322798 0.576741 0.129563
H2    H     H_    0.435086 0.887168 0.835741 0.192703
H3    H     H_    0.315632 0.108516 0.700793 0.190188
H4    H     H_    0.441363 0.108014 0.836477 0.200126
H5    H     H_    0.328957 0.401289 0.129875 0.146760
H6    H     H_    0.328809 0.401453 0.870150 0.147871
H7    H     H_    0.601951 0.741009 0.870348 0.161918
H8    H     H_    0.749994 0.672440 0.129944 0.212903
H9    H     H_    0.592208 0.739050 0.122298 0.179982
H10   H     H_    0.250466 0.720024 0.414649 0.147666
H11   H     H_    0.158926 0.913442 0.354314 0.149066
H12   H     H_    0.934361 0.935823 0.367086 0.149460
H13   H     H_    0.876272 0.331725 0.575443 0.141148
H14   H     H_    0.539149 0.114466 0.276657 0.166993
H15   H     H_    0.532997 0.890213 0.275946 0.155680
H16   H     H_    0.310139 0.886593 0.699254 0.203538
N1    N     N_R   0.500790 0.500930 0.147930 -0.190886
N2    N     N_R   0.500790 0.500890 0.852020 -0.210070
O1    O     O_R   0.500000 0.319640 0.618810 -0.575666
O2    O     O_R   0.500010 0.319680 0.381230 -0.581716
O3    O     O_R   0.319640 0.499980 0.618820 -0.579592
O4    O     O_R   0.319650 0.500020 0.381230 -0.584782
O5    O     O_R   0.499990 0.680320 0.618770 -0.585596
O6    O     O_R   0.500000 0.680360 0.381190 -0.596546
O7    O     O_R   0.680350 0.499980 0.618770 -0.575996
O8    O     O_R   0.680360 0.500020 0.381180 -0.575455
N3    N     N_3   0.786771 0.670058 0.868925 -0.558066
H17   H     H_    0.783139 0.667222 0.760069 0.236324
H18   H     H_    0.829169 0.755375 0.893755 0.226584
N4    N     N_3   0.768217 0.773546 0.442535 -0.615491
H19   H     H_    0.720449 0.723815 0.365857 0.243599
H20   H     H_    0.738645 0.749843 0.543121 0.203713

loop_
_geom_bond_atom_site_label_1
_geom_bond_atom_site_label_2
_ccdc_geom_bond_type
C18   N2    A    
C23   O7    A    
Cu1   Cu2   S    
C1    C8    S    
C11   C13   A    
C9    C10   A    
C15   H4    S    
C19   C20   S    
C21   H9    S    
C7    C13   A    
Cu2   O8    S    
C10   H15   S    
C7    C15   S    
C17   C18   A    
N3    H17   S    
C23   O8    A    
C22   O6    A    
Cu1   O1    S    
C13   C14   S    
C20   C21   S    
C2    C24   A    
C20   H7    S    
Cu2   O6    S    
C26   C27   A    
C16   C21   S    
Cu1   O5    S    
C16   C19   A    
C6    C23   S    
C16   N1    A    
C17   H5    S    
C12   O4    A    
Cu1   O3    S    
C2    C3    A    
C22   O5    A    
C27   N4    S    
C5    H13   S    
C5    C6    A    
Cu2   O2    S    
N3    H18   S    
C4    H1    S    
C10   C11   A    
Cu1   N2    S    
C3    C4    A    
Cu2   N1    S    
C7    C8    A    
C12   O3    A    
C24   C25   A    
C26   H12   S    
C11   C22   S    
N4    H20   S    
C1    O2    A    
C25   H11   S    
C27   C28   A    
C20   N3    S    
Cu2   O4    S    
C14   C15   S    
N4    H19   S    
C9    H14   S    
C2    C28   A    
C3    C12   S    
Cu1   O7    S    
C24   H10   S    
C25   C26   A    
C19   N2    A    
C4    C5    A    
C18   H6    S    
C15   H3    S    
C6    C28   A    
C21   H8    S    
C17   N1    A    
C14   H2    S    
C8    C9    A    
C14   H16   S    
C1    O1    A    
