data_mof_unit_14758.cif
_audit_creation_date              2012-12-10T22:11:07-0500
_audit_creation_method            fapswitch 2.2
_symmetry_space_group_name_H-M    P1
_symmetry_Int_Tables_number       1
_space_group_crystal_system       triclinic
_cell_length_a                    12.196416
_cell_length_b                    12.323257
_cell_length_c                    23.038707
_cell_angle_alpha                 89.967619
_cell_angle_beta                  90.507935
_cell_angle_gamma                 90.647351
_cell_volume                      3462.35028393

loop_
_atom_site_label
_atom_site_type_symbol
_atom_type_description
_atom_site_fract_x
_atom_site_fract_y
_atom_site_fract_z
_atom_type_partial_charge
C1    C     C_R   0.656750 0.997924 0.578727 0.874494
C2    C     C_R   0.343460 0.002124 0.421018 0.874173
C3    C     C_R   0.900728 0.813143 0.127603 0.396957
C4    C     C_R   0.098046 0.185120 0.873493 0.455201
C5    C     C_R   0.079332 0.816745 0.206564 0.104834
C6    C     C_R   0.924399 0.187408 0.791621 0.113044
C7    C     C_R   0.073238 0.740218 0.162356 -0.284170
C8    C     C_R   0.929452 0.262627 0.836485 -0.265338
C9    C     C_R   0.898555 0.151113 0.188907 0.144390
C10   C     C_R   0.100249 0.849646 0.811445 0.151291
C11   C     C_R   0.903642 0.240159 0.152274 -0.171043
C12   C     C_R   0.095897 0.761352 0.848508 -0.158918
C13   C     C_R   0.094699 0.923871 0.336404 -0.156072
C14   C     C_R   0.906844 0.075211 0.662126 -0.146995
C15   C     C_R   0.173983 0.924462 0.379514 0.083315
C16   C     C_R   0.827304 0.074626 0.619155 0.083227
C17   C     C_R   0.872121 0.106403 0.321967 0.363376
C18   C     C_R   0.127911 0.893513 0.677900 0.362451
C19   C     C_R   0.771084 0.108505 0.350681 0.341403
C20   C     C_R   0.228718 0.891330 0.649066 0.357389
C21   C     C_3   0.997866 0.999578 0.248861 -0.040905
C22   C     C_3   0.001859 0.000653 0.750774 -0.052900
C23   C     C_R   0.649095 0.003176 0.418034 0.914816
C24   C     C_R   0.350916 0.996807 0.581955 0.914963
C25   C     C_R   0.095562 0.001234 0.290993 0.173130
C26   C     C_R   0.904723 0.999306 0.708219 0.155325
C27   C     C_R   0.257990 0.002544 0.377573 -0.000089
C28   C     C_R   0.742432 0.997592 0.621787 -0.003925
C29   C     C_R   0.899329 0.008610 0.290726 -0.034604
C30   C     C_R   0.100956 0.991241 0.709313 -0.036789
C31   C     C_R   0.725689 0.008739 0.369894 -0.209949
C32   C     C_R   0.274448 0.991123 0.630123 -0.215379
C33   C     C_R   0.996294 0.091035 0.202154 0.144907
C34   C     C_R   0.001831 0.908587 0.797399 0.137695
C35   C     C_R   0.999586 0.266284 0.123592 -0.099704
C36   C     C_R   0.000570 0.735302 0.877497 -0.090803
C37   C     C_R   0.993580 0.894132 0.212044 0.018649
C38   C     C_R   0.006947 0.106199 0.787919 0.016953
C39   C     C_R   0.988137 0.740925 0.121454 -0.170416
C40   C     C_R   0.012020 0.259093 0.878691 -0.184202
C41   C     C_R   0.992138 0.661538 0.075130 0.922434
C42   C     C_R   0.007870 0.338356 0.924984 0.924250
C43   C     C_R   0.999229 0.352558 0.081063 0.882836
C44   C     C_R   0.000804 0.648092 0.919349 0.885392
C45   C     C_R   0.180577 0.079882 0.290521 -0.084445
C46   C     C_R   0.819348 0.920977 0.708830 -0.078139
C47   C     C_R   0.261593 0.079531 0.333128 -0.182564
C48   C     C_R   0.738310 0.921318 0.666425 -0.177011
C49   C     C_R   0.837980 0.913281 0.302943 -0.226462
C50   C     C_R   0.163077 0.086317 0.697586 -0.229480
C51   C     C_R   0.758266 0.912247 0.344643 -0.234013
C52   C     C_R   0.242653 0.087452 0.655816 -0.236311
C53   C     C_R   0.087554 0.109139 0.164215 0.033525
C54   C     C_R   0.908980 0.888718 0.834531 0.063782
C55   C     C_R   0.090774 0.200542 0.129267 -0.105870
C56   C     C_R   0.909073 0.800143 0.871701 -0.124806
C57   C     C_R   0.901795 0.882667 0.174683 -0.307536
C58   C     C_R   0.097183 0.115470 0.826479 -0.268157
H1    H     H_    0.326541 0.140199 0.331739 0.185438
H2    H     H_    0.673158 0.860865 0.667996 0.186623
H3    H     H_    0.857835 0.835232 0.284766 0.184839
H4    H     H_    0.143808 0.164255 0.716075 0.180977
H5    H     H_    0.832055 0.933494 0.180121 0.214055
H6    H     H_    0.166147 0.063664 0.821780 0.218750
H7    H     H_    0.032492 0.860836 0.338100 0.142266
H8    H     H_    0.969918 0.137335 0.659901 0.142791
H9    H     H_    0.721304 0.835165 0.356636 0.200475
H10   H     H_    0.280116 0.164456 0.644106 0.199920
H11   H     H_    0.162293 0.214814 0.102611 0.213358
H12   H     H_    0.837333 0.784475 0.897995 0.207602
H13   H     H_    0.138841 0.681946 0.158867 0.184340
H14   H     H_    0.865836 0.323229 0.838928 0.180970
H15   H     H_    0.829733 0.286156 0.144321 0.171415
H16   H     H_    0.170048 0.715714 0.856454 0.169332
H17   H     H_    0.184485 0.144200 0.258987 0.169851
H18   H     H_    0.816033 0.855482 0.739572 0.171112
O1    O     O_R   0.621380 0.090460 0.561410 -0.610394
O2    O     O_R   0.378620 0.909540 0.438590 -0.609708
O3    O     O_R   0.617150 0.909540 0.438590 -0.640300
O4    O     O_R   0.382850 0.090460 0.561410 -0.639753
O5    O     O_R   0.619720 0.093230 0.440890 -0.539563
O6    O     O_R   0.380280 0.906770 0.559110 -0.540289
O7    O     O_R   0.618800 0.906770 0.559110 -0.602591
O8    O     O_R   0.381200 0.093230 0.440890 -0.602548
O9    O     O_R   0.087590 0.627480 0.058790 -0.637028
O10   O     O_R   0.912410 0.372520 0.941210 -0.634588
O11   O     O_R   0.905660 0.383870 0.059980 -0.629079
O12   O     O_R   0.094340 0.616130 0.940020 -0.627682
O13   O     O_R   0.092570 0.390420 0.063230 -0.609508
O14   O     O_R   0.907430 0.609580 0.936770 -0.610116
O15   O     O_R   0.900680 0.620930 0.055550 -0.549334
O16   O     O_R   0.099320 0.379070 0.944450 -0.550216
Zn1   Zn    Zn3+2 0.501730 0.123520 0.501540 1.089307
Zn2   Zn    Zn3+2 0.498270 0.876480 0.498460 1.089532
Zn3   Zn    Zn3+2 0.125690 0.504390 0.002180 1.059619
Zn4   Zn    Zn3+2 0.874310 0.495610 0.997820 1.060292
N1    N     N_3   0.171945 0.031615 0.153772 -0.444916
H19   H     H_    0.138189 0.965658 0.131262 0.223875
H20   H     H_    0.210985 0.006415 0.191482 0.198622
N2    N     N_3   0.814552 0.957263 0.838824 -0.428993
H21   H     H_    0.744230 0.910029 0.830826 0.186978
H22   H     H_    0.813273 0.017870 0.808140 0.201040
N3    N     N_3   0.176019 0.816845 0.242279 -0.471471
H23   H     H_    0.179655 0.742256 0.263849 0.198279
H24   H     H_    0.244840 0.822964 0.215667 0.197157
N4    N     N_3   0.832656 0.193876 0.752596 -0.476166
H25   H     H_    0.760250 0.190801 0.776565 0.197676
H26   H     H_    0.836044 0.269212 0.731723 0.197460
N5    N     N_3   0.791061 0.117014 0.206618 -0.477715
H27   H     H_    0.744900 0.098734 0.169378 0.206920
H28   H     H_    0.752523 0.182434 0.226046 0.255808
N6    N     N_3   0.207754 0.883124 0.793365 -0.478046
H29   H     H_    0.254439 0.901478 0.830435 0.226388
H30   H     H_    0.245795 0.817371 0.773977 0.249042
S1    S     S_3+6 0.967512 0.214666 0.338556 0.045981
O17   O     O_2   0.914801 0.306259 0.370419 -0.190606
O18   O     O_2   0.053990 0.170743 0.378594 -0.326005
O19   O     O_3   0.026132 0.267447 0.279084 -0.581680
H31   H     H_    0.082040 0.319609 0.293909 0.379673
S2    S     S_3+6 0.032630 0.785061 0.661723 0.042481
O20   O     O_2   0.979838 0.740621 0.715416 -0.332510
O21   O     O_2   0.946454 0.828390 0.621298 -0.323622
O22   O     O_3   0.089473 0.680581 0.626678 -0.445661
H32   H     H_    0.028197 0.629061 0.618833 0.382536
S3    S     S_3+6 0.793704 0.827895 0.075485 0.046811
O23   O     O_2   0.839115 0.823399 0.015106 -0.315840
O24   O     O_2   0.711314 0.737505 0.082971 -0.233967
O25   O     O_3   0.729708 0.946902 0.084101 -0.537877
H33   H     H_    0.784240 0.002781 0.072397 0.351834
S4    S     S_3+6 0.203044 0.168868 0.926577 0.029799
O26   O     O_2   0.286399 0.258789 0.920330 -0.275544
O27   O     O_2   0.154474 0.172542 0.986260 -0.319222
O28   O     O_3   0.265612 0.049099 0.917914 -0.579259
H34   H     H_    0.321655 0.046542 0.949249 0.396993
N7    N     N_3   0.167245 0.847246 0.425995 -0.411373
H35   H     H_    0.091989 0.857079 0.446640 0.209647
H36   H     H_    0.168100 0.769355 0.408030 0.202969
N8    N     N_3   0.834520 0.150720 0.572170 -0.411454
H37   H     H_    0.909475 0.139568 0.551426 0.210170
H38   H     H_    0.834722 0.229018 0.589646 0.202572
S5    S     S_3+6 0.692519 0.230650 0.351271 0.065694
O29   O     O_2   0.574079 0.203239 0.339066 -0.332526
O30   O     O_2   0.702122 0.284252 0.409760 -0.233419
O31   O     O_3   0.736008 0.319095 0.300547 -0.533560
H39   H     H_    0.687231 0.382401 0.304183 0.385391
S6    S     S_3+6 0.307624 0.769486 0.648919 0.068750
O32   O     O_2   0.299535 0.715752 0.590412 -0.225916
O33   O     O_2   0.425712 0.797482 0.661721 -0.335276
O34   O     O_3   0.263677 0.681010 0.699514 -0.530004
H40   H     H_    0.312708 0.617849 0.696115 0.384708

loop_
_geom_bond_atom_site_label_1
_geom_bond_atom_site_label_2
_ccdc_geom_bond_type
C16   C28   A    
C5    N3    S    
O6    Zn2   S    
C12   H16   S    
C1    O1    A    
C2    O8    A    
C19   C31   A    
O25   H33   S    
C46   H18   S    
N1    H19   S    
N7    H35   S    
C39   C41   S    
C29   C49   A    
C43   O13   A    
C2    O2    A    
C5    C37   A    
N5    H28   S    
C7    H13   S    
C21   C33   S    
N4    H25   S    
C25   C45   A    
S1    O17   D    
C22   C38   S    
C17   C29   A    
C45   C47   A    
O1    Zn1   S    
C24   O6    A    
O19   H31   S    
C32   C52   A    
C21   C25   S    
C17   C19   A    
O15   Zn4   S    
C38   C58   A    
C24   O4    A    
C4    C40   A    
C15   N7    S    
C49   C51   A    
C1    C28   S    
C50   C52   A    
C6    C38   A    
C10   N6    S    
C2    C27   S    
C42   O10   A    
C12   C36   A    
C35   C43   S    
N5    H27   S    
C18   C20   A    
C52   H10   S    
S2    O22   S    
C4    S4    S    
C20   S6    S    
C40   C42   S    
C30   C50   A    
O12   Zn3   S    
C3    C39   A    
C19   S5    S    
C9    C33   A    
C13   C25   A    
N6    H30   S    
N6    H29   S    
N1    H20   S    
S2    O21   D    
C48   H2    S    
S6    O33   D    
C53   C55   A    
C33   C53   A    
C22   C34   S    
C46   C48   A    
C8    H14   S    
C49   H3    S    
C35   C55   A    
O22   H32   S    
O3    Zn2   S    
C10   C34   A    
C11   H15   S    
S5    O31   S    
C5    C7    A    
C13   H7    S    
C58   H6    S    
C53   N1    S    
O7    Zn2   S    
C21   C29   S    
O16   Zn3   S    
C9    N5    S    
C23   C31   S    
O13   Zn3   S    
S4    O27   D    
C24   C32   S    
C36   C56   A    
S3    O25   S    
S6    O34   S    
O5    Zn1   S    
C15   C27   A    
O10   Zn4   S    
S1    O19   S    
O11   Zn4   S    
N2    H22   S    
C14   H8    S    
N3    H24   S    
C51   H9    S    
C14   C26   A    
C9    C11   A    
C55   H11   S    
C10   C12   A    
C18   C30   A    
C3    C57   A    
C41   O15   A    
C34   C54   A    
C56   H12   S    
C13   C15   A    
O28   H34   S    
C50   H4    S    
C14   C16   A    
C36   C44   S    
S4    O28   S    
C18   S2    S    
C44   O14   A    
S2    O20   D    
C17   S1    S    
S6    O32   D    
C20   C32   A    
C27   C47   A    
N7    H36   S    
S1    O18   D    
C28   C48   A    
C23   O5    A    
C16   N8    S    
C57   H5    S    
C31   C51   A    
O31   H39   S    
C6    C8    A    
C3    S3    S    
C54   C56   A    
O14   Zn4   S    
N8    H38   S    
C1    O7    A    
C41   O9    A    
C45   H17   S    
C43   O11   A    
S5    O30   D    
S4    O26   D    
C22   C30   S    
S5    O29   D    
O9    Zn3   S    
S3    O23   D    
N4    H26   S    
O2    Zn2   S    
C11   C35   A    
N2    H21   S    
C54   N2    S    
C42   O16   A    
O8    Zn1   S    
C44   O12   A    
N8    H37   S    
C26   C46   A    
C47   H1    S    
C21   C37   S    
C22   C26   S    
C4    C58   A    
N3    H23   S    
S3    O24   D    
C7    C39   A    
C8    C40   A    
C23   O3    A    
O4    Zn1   S    
O34   H40   S    
C37   C57   A    
C6    N4    S    
