data_mof_unit_37468.cif
_audit_creation_date              2012-12-10T17:31:24-0500
_audit_creation_method            fapswitch 2.2
_symmetry_space_group_name_H-M    P1
_symmetry_Int_Tables_number       1
_space_group_crystal_system       triclinic
_cell_length_a                    19.137787
_cell_length_b                    18.448676
_cell_length_c                    12.346865
_cell_angle_alpha                 90.678818
_cell_angle_beta                  129.227173
_cell_angle_gamma                 88.857886
_cell_volume                      3376.21155793

loop_
_atom_site_label
_atom_site_type_symbol
_atom_type_description
_atom_site_fract_x
_atom_site_fract_y
_atom_site_fract_z
_atom_type_partial_charge
C1    C     C_R   0.611235 0.897009 0.651224 0.785102
C2    C     C_R   0.605356 0.105653 0.645822 0.781668
C3    C     C_R   0.111225 0.397002 0.651213 0.785126
C4    C     C_R   0.105364 0.605650 0.645831 0.781689
C5    C     C_R   0.220926 0.789764 0.020333 -0.012972
C6    C     C_R   0.239223 0.218724 0.029337 -0.009953
C7    C     C_R   0.720936 0.289758 0.020337 -0.013003
C8    C     C_R   0.739230 0.718711 0.029315 -0.009950
C9    C     C_R   0.676918 0.252380 0.061109 0.064724
C10   C     C_R   0.657093 0.717174 0.008677 0.058799
C11   C     C_R   0.176917 0.752379 0.061113 0.064740
C12   C     C_R   0.157109 0.217232 0.008773 0.058859
C13   C     C_R   0.604804 0.207754 0.964031 0.335294
C14   C     C_R   0.579110 0.750982 0.890765 0.338266
C15   C     C_R   0.104807 0.707749 0.964038 0.335257
C16   C     C_R   0.079131 0.251064 0.890899 0.338178
C17   C     C_R   0.588114 0.190706 0.839627 -0.253170
C18   C     C_R   0.583532 0.789598 0.799476 -0.236501
C19   C     C_R   0.088117 0.690703 0.839633 -0.253185
C20   C     C_R   0.083531 0.289642 0.799554 -0.236560
C21   C     C_R   0.271616 0.850872 0.099714 0.114076
C22   C     C_R   0.320302 0.195250 0.160652 0.045558
C23   C     C_R   0.771634 0.350863 0.099720 0.114090
C24   C     C_R   0.820302 0.695253 0.160657 0.045577
C25   C     C_R   0.275694 0.808248 0.289110 -0.259957
C26   C     C_R   0.230730 0.146512 0.219868 -0.255618
C27   C     C_R   0.775689 0.308252 0.289103 -0.259982
C28   C     C_R   0.730702 0.646465 0.219783 -0.255590
C29   C     C_R   0.651675 0.174777 0.714699 -0.085611
C30   C     C_R   0.671973 0.834430 0.731402 -0.083444
C31   C     C_R   0.151691 0.674771 0.714721 -0.085655
C32   C     C_R   0.171937 0.334405 0.731365 -0.083473
C33   C     C_R   0.681943 0.990832 0.280078 -0.284307
C34   C     C_R   0.181946 0.490807 0.280083 -0.284894
C35   C     C_R   0.343996 0.005359 0.626463 0.047560
C36   C     C_R   0.843995 0.505352 0.626464 0.047581
C37   C     C_R   0.308872 0.009014 0.697274 0.049117
C38   C     C_R   0.808873 0.509003 0.697275 0.049123
C39   C     C_R   0.385521 0.100137 0.344323 0.756700
C40   C     C_R   0.383157 0.902634 0.340303 0.792400
C41   C     C_R   0.885518 0.600135 0.344319 0.756677
C42   C     C_R   0.883160 0.402631 0.340307 0.792376
C43   C     C_R   0.367785 0.005925 0.843603 -0.214790
C44   C     C_R   0.867787 0.505919 0.843606 -0.214743
C45   C     C_R   0.461623 0.000612 0.919865 0.037983
C46   C     C_R   0.961626 0.500614 0.919868 0.038016
C47   C     C_R   0.493753 0.998387 0.841853 0.306075
C48   C     C_R   0.993754 0.498389 0.841854 0.306112
C49   C     C_R   0.525125 0.998787 0.070273 0.026478
C50   C     C_R   0.025129 0.498790 0.070276 0.026551
C51   C     C_R   0.617843 0.992866 0.136026 0.157977
C52   C     C_R   0.117847 0.492860 0.136030 0.158163
C53   C     C_R   0.647607 0.991553 0.058652 -0.250065
C54   C     C_R   0.147611 0.491551 0.058656 -0.250021
C55   C     C_R   0.587031 0.995848 0.915128 -0.139997
C56   C     C_R   0.087033 0.495851 0.915130 -0.139998
C57   C     C_R   0.501763 0.003511 0.159357 -0.001432
C58   C     C_R   0.001766 0.503527 0.159358 -0.001340
C59   C     C_R   0.656717 0.996227 0.363501 0.309924
C60   C     C_R   0.156712 0.496188 0.363501 0.309717
C61   C     C_R   0.704691 0.262370 0.196107 -0.156532
C62   C     C_R   0.654517 0.681679 0.105954 -0.145924
C63   C     C_R   0.204696 0.762365 0.196116 -0.156615
C64   C     C_R   0.154551 0.181752 0.106080 -0.145887
C65   C     C_R   0.310446 0.852602 0.242271 -0.055367
C66   C     C_R   0.312796 0.151183 0.245491 -0.076835
C67   C     C_R   0.810450 0.352600 0.242272 -0.055365
C68   C     C_R   0.812785 0.651172 0.245469 -0.076819
C69   C     C_R   0.701888 0.206043 0.680999 -0.211614
C70   C     C_R   0.742188 0.818604 0.726849 -0.211234
C71   C     C_R   0.201924 0.706028 0.681048 -0.211401
C72   C     C_R   0.242114 0.318532 0.726743 -0.211197
C73   C     C_R   0.259810 0.762501 0.760380 -0.103649
C74   C     C_R   0.303390 0.262518 0.807256 -0.115446
C75   C     C_R   0.759795 0.262502 0.760352 -0.103660
C76   C     C_R   0.803483 0.762603 0.807379 -0.115434
C77   C     C_R   0.270394 0.787476 0.876523 -0.177613
C78   C     C_R   0.301068 0.226625 0.903485 -0.141001
C79   C     C_R   0.770406 0.287458 0.876526 -0.177518
C80   C     C_R   0.801138 0.726680 0.903560 -0.140968
C81   C     C_R   0.712981 0.264020 0.903718 0.062397
C82   C     C_R   0.736795 0.746359 0.920052 0.038895
C83   C     C_R   0.212973 0.764029 0.903716 0.062431
C84   C     C_R   0.236762 0.246347 0.920036 0.038917
C85   C     C_R   0.649995 0.209037 0.817934 0.030430
C86   C     C_R   0.663806 0.791700 0.817577 0.014106
C87   C     C_R   0.149998 0.709037 0.817941 0.030421
C88   C     C_R   0.163782 0.291701 0.817582 0.014129
Cu1   Cu    Cu3+1 0.526340 1.000000 0.421010 0.922427
Cu2   Cu    Cu3+1 0.026340 0.500000 0.421010 0.922464
Cu3   Cu    Cu3+1 0.473640 0.000000 0.578990 0.920050
Cu4   Cu    Cu3+1 0.973640 0.500000 0.578990 0.920049
H1    H     H_    0.301043 0.811054 0.396182 0.174334
H2    H     H_    0.224760 0.113687 0.285786 0.157814
H3    H     H_    0.801031 0.311062 0.396171 0.174302
H4    H     H_    0.724723 0.613627 0.285679 0.157808
H5    H     H_    0.719095 0.988850 0.109927 0.141223
H6    H     H_    0.219098 0.488844 0.109930 0.141250
H7    H     H_    0.752731 0.985984 0.328290 0.148741
H8    H     H_    0.252748 0.485987 0.328324 0.148973
H9    H     H_    0.433145 0.011792 0.117242 0.116440
H10   H     H_    0.933149 0.511825 0.117242 0.116417
H11   H     H_    0.298921 0.007416 0.513414 0.124097
H12   H     H_    0.798920 0.507406 0.513414 0.124096
H13   H     H_    0.338604 0.008466 0.895006 0.122566
H14   H     H_    0.838606 0.508454 0.895009 0.122554
H15   H     H_    0.616917 0.998257 0.866281 0.203412
H16   H     H_    0.116919 0.498258 0.866282 0.203415
H17   H     H_    0.675280 0.232255 0.232806 0.190571
H18   H     H_    0.592882 0.677877 0.091854 0.198935
H19   H     H_    0.175291 0.732245 0.232821 0.190587
H20   H     H_    0.092932 0.177979 0.092032 0.198932
H21   H     H_    0.698264 0.185623 0.595105 0.153258
H22   H     H_    0.748838 0.848561 0.659040 0.148770
H23   H     H_    0.198327 0.685592 0.595186 0.153358
H24   H     H_    0.248748 0.348460 0.658892 0.148775
H25   H     H_    0.324096 0.825157 0.944144 0.149777
H26   H     H_    0.346256 0.180920 0.958378 0.162490
H27   H     H_    0.824126 0.325123 0.944163 0.149842
H28   H     H_    0.846340 0.680983 0.958460 0.162537
H29   H     H_    0.299045 0.785436 0.734401 0.200548
H30   H     H_    0.353682 0.247719 0.796448 0.193701
H31   H     H_    0.799021 0.285438 0.734358 0.200556
H32   H     H_    0.853806 0.747839 0.796622 0.193713
H33   H     H_    0.525597 0.163834 0.761602 0.211392
H34   H     H_    0.521465 0.813703 0.709241 0.202158
H35   H     H_    0.025602 0.663829 0.761611 0.211401
H36   H     H_    0.021461 0.313752 0.709336 0.202187
N1    N     N_R   0.566260 0.000000 0.302220 -0.192909
N2    N     N_R   0.066260 0.500000 0.302220 -0.192829
N3    N     N_R   0.434410 1.000000 0.697680 -0.222666
N4    N     N_R   0.934410 0.500000 0.697680 -0.222671
O1    O     O_R   0.608610 0.924520 0.551740 -0.593175
O2    O     O_R   0.608610 0.075480 0.551740 -0.592928
O3    O     O_R   0.108610 0.424520 0.551740 -0.593176
O4    O     O_R   0.108610 0.575480 0.551740 -0.592957
O5    O     O_R   0.564110 0.924510 0.685150 -0.598956
O6    O     O_R   0.564110 0.075490 0.685150 -0.605429
O7    O     O_R   0.064110 0.424510 0.685150 -0.598969
O8    O     O_R   0.064110 0.575490 0.685150 -0.605426
O9    O     O_R   0.435880 0.075470 0.314850 -0.588649
O10   O     O_R   0.435880 0.924530 0.314850 -0.577245
O11   O     O_R   0.935880 0.575470 0.314850 -0.588643
O12   O     O_R   0.935880 0.424530 0.314850 -0.577251
O13   O     O_R   0.391380 0.075460 0.448260 -0.588906
O14   O     O_R   0.391380 0.924540 0.448260 -0.590074
O15   O     O_R   0.891380 0.575460 0.448260 -0.588892
O16   O     O_R   0.891380 0.424540 0.448260 -0.590089
C89   C     C_3   0.208728 0.017124 0.617722 -0.419227
C90   C     C_3   0.168337 0.944524 0.609986 -0.332664
C91   C     C_3   0.071447 0.954020 0.555098 -0.858420
H37   H     H_    0.069509 0.988589 0.627492 0.255155
H38   H     H_    0.028684 0.979437 0.449803 0.255741
H39   H     H_    0.043610 0.900234 0.547578 0.249348
H40   H     H_    0.169924 0.907088 0.540410 0.218229
H41   H     H_    0.209117 0.919453 0.715086 0.219530
H42   H     H_    0.196506 0.058514 0.670607 0.213509
H43   H     H_    0.174445 0.036940 0.509733 0.185500
C92   C     C_3   0.708727 0.517097 0.617722 -0.419225
C93   C     C_3   0.668351 0.444484 0.609963 -0.332622
C94   C     C_3   0.571455 0.453958 0.555058 -0.858488
H44   H     H_    0.569500 0.488519 0.627443 0.255136
H45   H     H_    0.528690 0.479371 0.449762 0.255783
H46   H     H_    0.543632 0.400164 0.547538 0.249341
H47   H     H_    0.669954 0.407060 0.540388 0.218218
H48   H     H_    0.709130 0.419409 0.715060 0.219547
H49   H     H_    0.696495 0.558471 0.670616 0.213508
H50   H     H_    0.674442 0.536925 0.509740 0.185514
Cl1   Cl    Cl    0.530445 0.175930 0.990537 -0.747729
Cl2   Cl    Cl    0.474311 0.748539 0.854591 -0.733347
Cl3   Cl    Cl    0.030457 0.675916 0.990553 -0.747779
Cl4   Cl    Cl    0.974370 0.248713 0.854862 -0.733490
C95   C     C_3   0.264444 0.919472 0.025178 -0.436368
C96   C     C_3   0.220618 0.984210 0.043111 -0.321602
C97   C     C_3   0.121326 0.971533 0.971322 -0.797102
H51   H     H_    0.083454 0.959636 0.858619 0.244732
H52   H     H_    0.114468 0.925548 0.021086 0.263774
H53   H     H_    0.091507 0.020956 0.980912 0.242272
H54   H     H_    0.256849 0.996168 0.154973 0.208970
H55   H     H_    0.225220 0.032987 0.995973 0.206756
H56   H     H_    0.331732 0.933744 0.061460 0.174912
H57   H     H_    0.222033 0.910784 0.911040 0.198611
C98   C     C_3   0.413877 0.223757 0.222858 -0.364214
C99   C     C_3   0.417106 0.306911 0.220877 -0.349426
C100  C     C_3   0.510209 0.331297 0.276044 -0.845571
H58   H     H_    0.562686 0.311733 0.384825 0.252211
H59   H     H_    0.525750 0.309676 0.208866 0.277703
H60   H     H_    0.511577 0.391385 0.274966 0.245592
H61   H     H_    0.366823 0.329032 0.113954 0.238480
H62   H     H_    0.401955 0.330434 0.287463 0.214143
H63   H     H_    0.463828 0.208519 0.335017 0.192117
H64   H     H_    0.440660 0.198231 0.174157 0.221041
C101  C     C_3   0.764499 0.419454 0.025192 -0.436343
C102  C     C_3   0.720698 0.484215 0.043119 -0.321513
C103  C     C_3   0.621397 0.471572 0.971305 -0.797426
H65   H     H_    0.583534 0.459679 0.858603 0.244945
H66   H     H_    0.614507 0.425595 0.021045 0.263790
H67   H     H_    0.591597 0.521008 0.980897 0.242330
H68   H     H_    0.756921 0.496172 0.154978 0.208990
H69   H     H_    0.725332 0.532982 0.995996 0.206750
H70   H     H_    0.831796 0.433699 0.061478 0.174931
H71   H     H_    0.722085 0.410768 0.911054 0.198611
C104  C     C_3   0.913876 0.723781 0.222912 -0.364209
C105  C     C_3   0.917086 0.806936 0.220941 -0.349452
C106  C     C_3   0.010181 0.831342 0.276106 -0.845556
H72   H     H_    0.062664 0.811775 0.384883 0.252231
H73   H     H_    0.025723 0.809736 0.208921 0.277679
H74   H     H_    0.011535 0.891431 0.275035 0.245586
H75   H     H_    0.866795 0.829060 0.114022 0.238470
H76   H     H_    0.901932 0.830444 0.287533 0.214142
H77   H     H_    0.963815 0.708541 0.335074 0.192092
H78   H     H_    0.940689 0.698268 0.174246 0.221027
C107  C     C_3   0.734397 0.997225 0.520078 -0.389961
C108  C     C_3   0.793807 0.064991 0.567215 -0.347983
C109  C     C_3   0.888918 0.046476 0.619753 -0.825136
H79   H     H_    0.922690 0.007939 0.708761 0.250887
H80   H     H_    0.887058 0.022102 0.535464 0.241460
H81   H     H_    0.929275 0.096625 0.656362 0.271586
H82   H     H_    0.762067 0.105799 0.481844 0.225023
H83   H     H_    0.801131 0.091279 0.655272 0.232111
H84   H     H_    0.713213 0.995465 0.583482 0.235022
H85   H     H_    0.775358 0.946738 0.547964 0.171865
C110  C     C_3   0.234385 0.497077 0.520077 -0.389864
C111  C     C_3   0.294155 0.564616 0.567266 -0.348456
C112  C     C_3   0.389427 0.545557 0.621062 -0.825844
H86   H     H_    0.422711 0.507406 0.710574 0.251237
H87   H     H_    0.387904 0.520488 0.537536 0.241522
H88   H     H_    0.430000 0.595568 0.657282 0.271537
H89   H     H_    0.262986 0.605188 0.481611 0.225172
H90   H     H_    0.301057 0.591374 0.654622 0.232310
H91   H     H_    0.213222 0.495525 0.583527 0.235225
H92   H     H_    0.275072 0.446436 0.547825 0.172068

loop_
_geom_bond_atom_site_label_1
_geom_bond_atom_site_label_2
_ccdc_geom_bond_type
C28   H4    S    
C26   H2    S    
C83   C87   A    
C104  C105  S    
C80   H28   S    
C24   C104  S    
C25   H1    S    
C40   O10   A    
Cu4   O16   S    
C14   C18   A    
C27   H3    S    
C110  C111  S    
C25   C63   A    
C14   Cl2   S    
C42   O16   A    
C98   H64   S    
C22   C66   A    
Cu1   O1    S    
C94   H44   S    
C49   C57   A    
C97   H52   S    
C106  H72   S    
C99   C100  S    
C21   C95   S    
C15   C19   A    
C69   H21   S    
C18   C86   A    
C2    C29   S    
C9    C61   A    
C57   N1    A    
C78   H26   S    
C38   C92   S    
C5    C11   A    
C77   H25   S    
C108  H82   S    
C109  H80   S    
C6    C12   A    
C12   C64   A    
Cu1   O9    S    
C64   H20   S    
Cu3   N3    S    
C77   C83   A    
Cu1   O10   S    
C6    C22   A    
C112  H88   S    
C101  H70   S    
C92   H50   S    
C48   C56   A    
C43   H13   S    
C91   H39   S    
C23   C67   A    
C50   C52   A    
C9    C13   A    
C96   C97   S    
C56   H16   S    
C26   C64   A    
C27   C61   A    
C94   H45   S    
Cu3   O5    S    
C107  H84   S    
C102  H69   S    
C12   C16   A    
C44   C46   A    
C49   C51   A    
C79   H27   S    
C105  H75   S    
C34   H8    S    
C91   H37   S    
C58   H10   S    
C93   H48   S    
Cu1   Cu3   S    
C89   H43   S    
C29   C85   A    
Cu2   O11   S    
C81   C85   A    
C4    O4    A    
C103  H67   S    
C21   C65   A    
C53   C55   A    
C102  C103  S    
C47   C55   A    
C95   H56   S    
C33   C59   A    
C95   C96   S    
C111  C112  S    
Cu4   O15   S    
C34   C60   A    
C104  H77   S    
C10   C62   A    
C11   C15   A    
C1    O1    A    
C30   C70   A    
C52   C54   A    
C112  H86   S    
C97   H53   S    
C29   C69   A    
C45   C47   A    
C55   H15   S    
C112  H87   S    
C54   C56   A    
C3    O3    A    
C6    C84   A    
C100  H59   S    
C71   H23   S    
C26   C66   A    
C20   H36   S    
C39   O9    A    
C31   C87   A    
C32   C72   A    
C10   C14   A    
C109  H81   S    
C60   N2    A    
C71   C73   A    
C108  C109  S    
C100  H60   S    
C53   H5    S    
C82   C86   A    
C70   H22   S    
C101  H71   S    
C47   N3    A    
C51   C53   A    
C2    O6    A    
C37   C43   A    
C98   C99   S    
C38   C44   A    
C22   C98   S    
C111  H90   S    
C4    O8    A    
Cu3   O6    S    
Cu2   O4    S    
C107  H85   S    
C16   Cl4   S    
Cu2   Cu4   S    
C92   C93   S    
C62   H18   S    
C107  C108  S    
C16   C20   A    
C39   O13   A    
C45   C49   A    
C50   C58   A    
C15   Cl3   S    
C2    O2    A    
C93   H47   S    
C43   C45   A    
C60   C110  S    
C72   C74   A    
C7    C81   A    
C95   H57   S    
C73   H29   S    
C90   H40   S    
C42   O12   A    
C42   C67   S    
C19   C87   A    
C39   C66   S    
C17   C85   A    
C104  H78   S    
C110  H91   S    
C3    O7    A    
C23   C101  S    
Cu4   O8    S    
C30   C86   A    
C96   H55   S    
Cu3   O13   S    
C94   H46   S    
C1    O5    A    
C110  H92   S    
C35   C37   A    
C79   C81   A    
C106  H73   S    
C106  H74   S    
C7    C9    A    
C46   C50   A    
C41   C68   S    
C59   N1    A    
Cu1   O2    S    
C36   H12   S    
Cu4   N4    S    
C90   C91   S    
C34   C52   A    
C41   O15   A    
C48   N4    A    
C76   C80   A    
C37   C89   S    
C28   C68   A    
C98   H63   S    
C59   C107  S    
C5    C83   A    
C41   O11   A    
C40   O14   A    
C102  H68   S    
C44   H14   S    
C33   C51   A    
C57   H9    S    
C72   H24   S    
C35   H11   S    
Cu1   N1    S    
C13   C17   A    
C75   H31   S    
C40   C65   S    
C93   C94   S    
C36   N4    A    
C35   N3    A    
C97   H51   S    
C108  H83   S    
C111  H89   S    
C74   H30   S    
C36   C38   A    
C70   C76   A    
Cu2   O3    S    
Cu4   O7    S    
C17   H33   S    
C100  H58   S    
C84   C88   A    
C89   H42   S    
C58   N2    A    
C7    C23   A    
C20   C88   A    
C13   Cl1   S    
C1    C30   S    
C8    C24   A    
C80   C82   A    
C92   H49   S    
C69   C75   A    
C99   H62   S    
C91   H38   S    
C109  H79   S    
C63   H19   S    
C3    C32   S    
Cu2   O12   S    
C4    C31   S    
C27   C67   A    
C24   C68   A    
C76   H32   S    
C103  H65   S    
Cu2   N2    S    
C46   C48   A    
C78   C84   A    
C8    C82   A    
C5    C21   A    
C105  C106  S    
C8    C10   A    
C101  C102  S    
C74   C78   A    
C105  H76   S    
C25   C65   A    
C61   H17   S    
C73   C77   A    
C99   H61   S    
C54   H6    S    
C90   H41   S    
C19   H35   S    
C33   H7    S    
C89   C90   S    
C11   C63   A    
C75   C79   A    
C96   H54   S    
Cu3   O14   S    
C18   H34   S    
C28   C62   A    
C31   C71   A    
C103  H66   S    
C32   C88   A    
