data_mof_unit_31268.cif
_audit_creation_date              2012-12-10T17:11:29-0500
_audit_creation_method            fapswitch 2.2
_symmetry_space_group_name_H-M    P1
_symmetry_Int_Tables_number       1
_space_group_crystal_system       triclinic
_cell_length_a                    14.999206
_cell_length_b                    13.102161
_cell_length_c                    11.724752
_cell_angle_alpha                 100.914443
_cell_angle_beta                  93.089557
_cell_angle_gamma                 92.429218
_cell_volume                      2255.95109951

loop_
_atom_site_label
_atom_site_type_symbol
_atom_type_description
_atom_site_fract_x
_atom_site_fract_y
_atom_site_fract_z
_atom_type_partial_charge
C1    C     C_R   0.499844 0.298913 0.477561 0.878666
C2    C     C_R   0.498648 0.701247 0.522644 0.847074
C3    C     C_R   0.035312 0.312023 0.436928 0.173122
C4    C     C_R   0.963453 0.688792 0.591413 0.174451
C5    C     C_R   0.492822 0.815651 0.538056 -0.213052
C6    C     C_R   0.491611 0.184836 0.464471 -0.171823
C7    C     C_R   0.414574 0.019013 0.374521 0.210374
C8    C     C_R   0.532440 0.989452 0.651626 0.257587
C9    C     C_R   0.435362 0.124512 0.373545 0.139018
C10   C     C_R   0.523631 0.881574 0.644551 0.127758
C11   C     C_R   0.533575 0.137472 0.550217 0.190053
C12   C     C_R   0.456149 0.860437 0.445788 0.193845
C13   C     C_R   0.508823 0.032814 0.553603 -0.094080
C14   C     C_R   0.458721 0.970369 0.457855 -0.070619
C15   C     C_R   0.416289 0.399317 0.022343 -0.350305
C16   C     C_R   0.584483 0.600441 0.977282 -0.338044
C17   C     C_R   0.423085 0.411002 0.143669 0.018477
C18   C     C_R   0.578182 0.588092 0.855763 0.002995
C19   C     C_R   0.539538 0.541659 0.157473 0.423348
C20   C     C_R   0.459739 0.459587 0.842825 0.404875
C21   C     C_R   0.531499 0.536347 0.034170 -0.011325
C22   C     C_R   0.468737 0.464012 0.965790 -0.008054
C23   C     C_R   0.328811 0.500297 0.501216 0.784506
C24   C     C_R   0.670859 0.501622 0.499533 0.800784
C25   C     C_R   0.817325 0.593824 0.545977 -0.237054
C26   C     C_R   0.180903 0.408088 0.470218 -0.231088
C27   C     C_R   0.766835 0.502629 0.499015 -0.069566
C28   C     C_R   0.232266 0.500739 0.505053 -0.068690
C29   C     C_R   0.807287 0.410781 0.458086 -0.217581
C30   C     C_R   0.192256 0.592666 0.549222 -0.224981
C31   C     C_R   0.900380 0.407799 0.466118 0.050802
C32   C     C_R   0.098825 0.594634 0.550893 0.052815
C33   C     C_R   0.952665 0.501548 0.508220 -0.044799
C34   C     C_R   0.046269 0.501036 0.509474 -0.047636
C35   C     C_R   0.910917 0.595651 0.548700 0.042675
C36   C     C_R   0.087697 0.406405 0.471339 0.048384
C37   C     C_R   0.941625 0.312864 0.433395 0.212536
C38   C     C_R   0.057376 0.687742 0.594260 0.216900
Cu1   Cu    Cu3+1 0.506660 0.507730 0.615930 0.935063
Cu2   Cu    Cu3+1 0.493340 0.492270 0.384070 0.954699
N1    N     N_R   0.516670 0.519360 0.790130 -0.196740
N2    N     N_R   0.483330 0.480640 0.209870 -0.195932
O1    O     O_R   0.504720 0.354460 0.582000 -0.570666
O2    O     O_R   0.495280 0.645540 0.418000 -0.540254
O3    O     O_R   0.493480 0.341410 0.386200 -0.560796
O4    O     O_R   0.506520 0.658590 0.613800 -0.590934
O5    O     O_R   0.375880 0.506510 0.597910 -0.549016
O6    O     O_R   0.624120 0.493490 0.402090 -0.554991
O7    O     O_R   0.364640 0.493450 0.402110 -0.605974
O8    O     O_R   0.635360 0.506550 0.597890 -0.598652
H1    H     H_    0.782206 0.662650 0.578891 0.129632
H2    H     H_    0.214393 0.337321 0.444753 0.132090
H3    H     H_    0.369832 0.339173 0.974347 0.153098
H4    H     H_    0.630789 0.660752 0.025087 0.152566
H5    H     H_    0.765194 0.341424 0.423096 0.170006
H6    H     H_    0.234769 0.662304 0.580738 0.160960
N3    N     N_2   0.888634 0.218188 0.394763 -0.425016
H7    H     H_    0.915181 0.165770 0.330094 0.274296
C39   C     C_3   0.856374 0.169646 0.486924 -0.706125
H8    H     H_    0.912628 0.138513 0.532795 0.235157
H9    H     H_    0.807792 0.104141 0.449024 0.220513
H10   H     H_    0.822051 0.226036 0.550651 0.236042
N4    N     N_2   0.110416 0.778780 0.648213 -0.422752
H11   H     H_    0.084847 0.821724 0.721006 0.272923
C40   C     C_3   0.143604 0.842635 0.570145 -0.732665
H12   H     H_    0.092450 0.896608 0.550682 0.236941
H13   H     H_    0.162281 0.794052 0.487419 0.227211
H14   H     H_    0.203728 0.889721 0.612852 0.225266
N5    N     N_2   0.075451 0.214681 0.408323 -0.436046
H15   H     H_    0.119025 0.208840 0.342721 0.241640
C41   C     C_3   0.104826 0.169393 0.506542 -0.712880
H16   H     H_    0.177167 0.188882 0.529254 0.212572
H17   H     H_    0.093518 0.083554 0.483263 0.228642
H18   H     H_    0.067160 0.197898 0.584416 0.236238
N6    N     N_2   0.923452 0.784629 0.632253 -0.432789
H19   H     H_    0.877383 0.781108 0.693727 0.240471
C42   C     C_3   0.893591 0.839541 0.542166 -0.698561
H20   H     H_    0.833619 0.798537 0.491440 0.214621
H21   H     H_    0.946971 0.846022 0.481584 0.238525
H22   H     H_    0.876131 0.919202 0.582702 0.221884
N7    N     N_2   0.428596 0.795688 0.335599 -0.394046
H23   H     H_    0.445671 0.821289 0.261345 0.250173
C43   C     C_3   0.346187 0.731374 0.325511 -0.577516
H24   H     H_    0.295086 0.759633 0.268908 0.216468
H25   H     H_    0.319600 0.730143 0.411945 0.195237
H26   H     H_    0.358619 0.650700 0.282829 0.243647
N8    N     N_2   0.617968 0.181988 0.604683 -0.433241
H27   H     H_    0.668491 0.130612 0.600875 0.243289
C44   C     C_3   0.620887 0.257154 0.713107 -0.556625
H28   H     H_    0.661558 0.229022 0.781733 0.202429
H29   H     H_    0.553270 0.271450 0.744212 0.240706
H30   H     H_    0.653480 0.331471 0.700557 0.233855
N9    N     N_2   0.548513 0.841611 0.745803 -0.427910
H31   H     H_    0.600114 0.791840 0.740714 0.246348
C45   C     C_3   0.477776 0.825024 0.820932 -0.633988
H32   H     H_    0.464681 0.740754 0.818403 0.241055
H33   H     H_    0.414226 0.857323 0.794337 0.217614
H34   H     H_    0.498623 0.863301 0.911718 0.209671
N10   N     N_2   0.405173 0.167298 0.276090 -0.402435
H35   H     H_    0.413692 0.120757 0.196468 0.238112
C46   C     C_3   0.318765 0.211785 0.283818 -0.727126
H36   H     H_    0.292691 0.222018 0.196511 0.202986
H37   H     H_    0.325904 0.288431 0.342520 0.244592
H38   H     H_    0.269414 0.161182 0.316066 0.228543
N11   N     N_2   0.339582 0.966591 0.304005 -0.419765
H39   H     H_    0.326082 0.988136 0.225147 0.254156
C47   C     C_3   0.260336 0.957303 0.367511 -0.708863
H40   H     H_    0.204975 0.915513 0.307834 0.219408
H41   H     H_    0.238914 0.034718 0.408198 0.223765
H42   H     H_    0.274289 0.913555 0.437860 0.245648
N12   N     N_2   0.559690 0.055209 0.760374 -0.402685
H43   H     H_    0.606953 0.026048 0.810927 0.265863
C48   C     C_3   0.486913 0.099889 0.825907 -0.701262
H44   H     H_    0.514294 0.160272 0.900605 0.220897
H45   H     H_    0.448638 0.039293 0.860121 0.227573
H46   H     H_    0.440879 0.136907 0.770496 0.221997
N13   N     N_2   0.391190 0.394307 0.773220 -0.388670
H47   H     H_    0.394993 0.316547 0.776332 0.213152
C49   C     C_3   0.301247 0.429912 0.785908 -0.653242
H48   H     H_    0.274484 0.415720 0.868069 0.195243
H49   H     H_    0.256438 0.386816 0.712529 0.228263
H50   H     H_    0.299801 0.514536 0.785257 0.243054
N14   N     N_2   0.605708 0.610055 0.227856 -0.384267
H51   H     H_    0.599594 0.687366 0.223654 0.225257
C50   C     C_3   0.697007 0.578080 0.219008 -0.661080
H52   H     H_    0.738681 0.620119 0.296092 0.226350
H53   H     H_    0.726281 0.596857 0.140274 0.194562
H54   H     H_    0.700263 0.493010 0.215828 0.244015
H55   H     H_    0.621478 0.635660 0.813862 0.135130
H56   H     H_    0.380182 0.363859 0.185194 0.161049

loop_
_geom_bond_atom_site_label_1
_geom_bond_atom_site_label_2
_ccdc_geom_bond_type
N8    H27   S    
N4    C40   S    
N9    H31   S    
C27   C29   A    
C45   H32   S    
C24   C27   S    
C6    C9    A    
N7    H23   S    
C45   H34   S    
N14   H51   S    
Cu1   N1    S    
C42   H20   S    
C2    O4    A    
N11   C47   S    
C19   N14   S    
C16   C21   A    
C15   H3    S    
C3    N5    S    
C48   H44   S    
N13   C49   S    
N3    C39   S    
Cu2   O7    S    
C7    C9    A    
N5    C41   S    
C17   N2    A    
C4    N6    S    
N14   C50   S    
C1    O1    A    
C15   C22   A    
N10   H35   S    
C2    O2    A    
C40   H13   S    
C50   H54   S    
C47   H40   S    
C31   C33   A    
C32   C38   A    
C44   H29   S    
C19   N2    A    
C48   H46   S    
Cu2   N2    S    
C4    C35   A    
C39   H8    S    
C9    N10   S    
C21   C22   A    
C47   H41   S    
C20   N13   S    
N7    C43   S    
C20   N1    A    
C49   H49   S    
C24   O8    A    
Cu2   O3    S    
C39   H9    S    
C23   O5    A    
C1    C6    S    
C24   O6    A    
C46   H36   S    
C5    C12   A    
C8    N12   S    
C11   N8    S    
C6    C11   A    
C41   H17   S    
Cu1   O1    S    
C29   H5    S    
C10   N9    S    
C30   H6    S    
C7    C14   A    
C31   C37   A    
C32   C34   A    
N6    H19   S    
C25   H1    S    
C19   C21   A    
C26   H2    S    
C43   H24   S    
C40   H14   S    
Cu1   O8    S    
C7    N11   S    
C33   C34   A    
C42   H21   S    
N12   C48   S    
C16   C18   A    
C23   C28   S    
C44   H30   S    
N6    C42   S    
C25   C35   A    
Cu1   O4    S    
C26   C36   A    
C43   H25   S    
C12   C14   A    
C46   H38   S    
N8    C44   S    
C50   H52   S    
C47   H42   S    
C18   N1    A    
C2    C5    S    
Cu1   Cu2   S    
Cu1   O5    S    
C38   N4    S    
C46   H37   S    
C49   H50   S    
Cu2   O6    S    
C39   H10   S    
N12   H43   S    
N10   C46   S    
C17   H56   S    
C20   C22   A    
C13   C14   A    
C41   H18   S    
C49   H48   S    
C45   H33   S    
C15   C17   A    
C25   C27   A    
N11   H39   S    
C26   C28   A    
C28   C30   A    
C5    C10   A    
C29   C31   A    
N13   H47   S    
C30   C32   A    
C11   C13   A    
C1    O3    A    
N3    H7    S    
N9    C45   S    
C42   H22   S    
C3    C36   A    
C33   C35   A    
C12   N7    S    
C34   C36   A    
N5    H15   S    
C16   H4    S    
C23   O7    A    
N4    H11   S    
C8    C13   A    
Cu2   O2    S    
C43   H26   S    
C41   H16   S    
C3    C37   A    
C8    C10   A    
C40   H12   S    
C50   H53   S    
C18   H55   S    
C44   H28   S    
C4    C38   A    
C37   N3    S    
C48   H45   S    
