data_mof_unit_37272.cif
_audit_creation_date              2012-12-11T15:07:04-0500
_audit_creation_method            fapswitch 2.2
_symmetry_space_group_name_H-M    P1
_symmetry_Int_Tables_number       1
_space_group_crystal_system       triclinic
_cell_length_a                    19.732825
_cell_length_b                    11.299625
_cell_length_c                    18.713103
_cell_angle_alpha                 89.908529
_cell_angle_beta                  90.422207
_cell_angle_gamma                 90.004563
_cell_volume                      4172.40788454

loop_
_atom_site_label
_atom_site_type_symbol
_atom_type_description
_atom_site_fract_x
_atom_site_fract_y
_atom_site_fract_z
_atom_type_partial_charge
C1    C     C_R   0.761396 0.522841 0.639034 0.537761
C2    C     C_3   0.252637 0.055060 0.563034 0.046108
C3    C     C_R   0.740168 0.036165 0.152153 0.532325
C4    C     C_R   0.774645 0.133512 0.859187 0.533223
C5    C     C_R   0.225742 0.132173 0.141377 0.532753
C6    C     C_R   0.274645 0.633512 0.859187 0.533223
C7    C     C_R   0.725742 0.632173 0.141377 0.532753
C8    C     C_R   0.967791 0.353241 0.854475 0.536692
C9    C     C_R   0.030215 0.353280 0.146785 0.533709
C10   C     C_R   0.467791 0.853241 0.854475 0.536692
C11   C     C_R   0.530215 0.853280 0.146785 0.533709
C12   C     C_3   0.687738 0.129531 0.465574 -0.239941
C13   C     C_3   0.247360 0.554830 0.436999 0.046265
C14   C     C_3   0.312294 0.129660 0.534335 -0.240389
C15   C     C_3   0.187738 0.629531 0.465574 -0.239941
C16   C     C_3   0.812294 0.629660 0.534335 -0.240388
C17   C     C_3   0.692418 0.139820 0.546733 -0.234467
C18   C     C_3   0.307598 0.139900 0.453167 -0.234467
C19   C     C_3   0.192418 0.639820 0.546733 -0.234468
C20   C     C_3   0.807598 0.639900 0.453167 -0.234467
C21   C     C_3   0.758565 0.937310 0.480700 -0.214204
C22   C     C_3   0.241420 0.937463 0.519631 -0.213984
C23   C     C_3   0.258565 0.437310 0.480700 -0.214204
C24   C     C_3   0.752637 0.555060 0.563034 0.046108
C25   C     C_3   0.741420 0.437463 0.519631 -0.213983
C26   C     C_3   0.761142 0.089730 0.574245 0.055779
C27   C     C_3   0.238870 0.089686 0.425753 0.056169
C28   C     C_3   0.261142 0.589729 0.574245 0.055780
C29   C     C_3   0.738870 0.589686 0.425753 0.056169
C30   C     C_3   0.758661 0.956779 0.562107 -0.268572
C31   C     C_3   0.241365 0.956776 0.438194 -0.269128
C32   C     C_3   0.258661 0.456779 0.562107 -0.268573
C33   C     C_R   0.238572 0.522615 0.361017 0.536736
C34   C     C_3   0.741365 0.456776 0.438194 -0.269128
C35   C     C_3   0.822819 0.135062 0.529943 -0.206222
C36   C     C_3   0.177179 0.135094 0.469888 -0.206345
C37   C     C_3   0.322819 0.635062 0.529943 -0.206221
C38   C     C_3   0.677179 0.635094 0.469888 -0.206345
C39   C     C_3   0.003963 0.206573 0.459377 -0.215085
C40   C     C_3   0.995948 0.206648 0.540899 -0.214765
C41   C     C_3   0.503963 0.706573 0.459377 -0.215084
C42   C     C_3   0.495948 0.706648 0.540899 -0.214768
C43   C     C_3   0.066038 0.405995 0.476855 -0.175314
C44   C     C_R   0.261395 0.022841 0.639034 0.537761
C45   C     C_3   0.933955 0.406147 0.523012 -0.175740
C46   C     C_3   0.566038 0.905996 0.476855 -0.175313
C47   C     C_3   0.433955 0.906146 0.523012 -0.175737
C48   C     C_3   0.945450 0.398577 0.441999 0.083770
C49   C     C_3   0.054540 0.398590 0.557884 0.083545
C50   C     C_3   0.445450 0.898576 0.441998 0.083770
C51   C     C_3   0.554540 0.898591 0.557884 0.083546
C52   C     C_3   0.012697 0.334927 0.431549 0.068437
C53   C     C_3   0.987267 0.335073 0.568457 0.068088
C54   C     C_3   0.512697 0.834927 0.431549 0.068437
C55   C     C_R   0.738572 0.022615 0.361017 0.536736
C56   C     C_3   0.487267 0.835073 0.568457 0.068083
C57   C     C_3   0.819709 0.030818 0.048405 -0.230333
C58   C     C_3   0.187177 0.010473 0.955793 -0.225332
C59   C     C_3   0.319709 0.530818 0.048405 -0.230333
C60   C     C_3   0.687177 0.510473 0.955793 -0.225332
C61   C     C_R   0.774431 0.121197 0.649434 0.534971
C62   C     C_R   0.225592 0.121076 0.350536 0.534614
C63   C     C_R   0.274431 0.621197 0.649434 0.534970
C64   C     C_R   0.725592 0.621076 0.350536 0.534614
C65   C     C_3   0.822183 0.036433 0.968170 -0.226703
C66   C     C_3   0.809939 0.130641 0.449080 -0.239052
C67   C     C_3   0.184609 0.016610 0.035946 -0.234764
C68   C     C_3   0.322183 0.536433 0.968170 -0.226703
C69   C     C_3   0.684609 0.516610 0.035946 -0.234764
C70   C     C_3   0.692860 0.012976 0.031347 -0.221177
C71   C     C_3   0.317827 0.033975 0.969764 -0.213919
C72   C     C_3   0.192860 0.512976 0.031347 -0.221176
C73   C     C_3   0.817827 0.533975 0.969764 -0.213919
C74   C     C_3   0.744624 0.204792 0.061102 -0.254593
C75   C     C_3   0.244903 0.200223 0.937569 -0.259748
C76   C     C_3   0.244624 0.704792 0.061102 -0.254593
C77   C     C_3   0.190063 0.130884 0.550755 -0.239397
C78   C     C_3   0.744903 0.700223 0.937569 -0.259748
C79   C     C_3   0.749365 0.072966 0.075667 0.059155
C80   C     C_3   0.253105 0.068200 0.925826 0.063359
C81   C     C_3   0.249365 0.572965 0.075667 0.059155
C82   C     C_3   0.753106 0.568200 0.925826 0.063359
C83   C     C_3   0.760846 0.105988 0.936469 0.061838
C84   C     C_3   0.239868 0.102404 0.064513 0.058387
C85   C     C_3   0.260846 0.605988 0.936469 0.061838
C86   C     C_3   0.739868 0.602403 0.064513 0.058387
C87   C     C_3   0.699510 0.027203 0.949173 -0.259500
C88   C     C_3   0.309939 0.630641 0.449080 -0.239052
C89   C     C_3   0.308209 0.044397 0.051605 -0.251213
C90   C     C_3   0.199510 0.527204 0.949173 -0.259500
C91   C     C_3   0.808209 0.544397 0.051605 -0.251213
C92   C     C_3   0.745642 0.222328 0.978862 -0.215809
C93   C     C_3   0.238236 0.217730 0.019381 -0.228858
C94   C     C_3   0.245642 0.722328 0.978862 -0.215809
C95   C     C_3   0.738236 0.717730 0.019381 -0.228858
C96   C     C_3   0.994809 0.479593 0.042313 -0.233683
C97   C     C_3   0.991510 0.479624 0.961431 -0.226889
C98   C     C_3   0.494809 0.979593 0.042313 -0.233683
C99   C     C_3   0.690064 0.630884 0.550755 -0.239398
C100  C     C_3   0.491510 0.979624 0.961431 -0.226889
C101  C     C_3   0.066957 0.296419 0.027498 -0.222040
C102  C     C_3   0.937609 0.270212 0.973084 -0.211235
C103  C     C_3   0.566957 0.796419 0.027498 -0.222040
C104  C     C_3   0.437610 0.770212 0.973084 -0.211235
C105  C     C_3   0.945534 0.278879 0.055020 -0.256471
C106  C     C_3   0.057615 0.298198 0.945415 -0.263786
C107  C     C_3   0.445534 0.778879 0.055020 -0.256471
C108  C     C_3   0.557616 0.798198 0.945415 -0.263787
C109  C     C_R   0.966415 0.342689 0.643809 0.534177
C110  C     C_3   0.747360 0.054830 0.436999 0.046266
C111  C     C_R   0.033547 0.342587 0.356176 0.533270
C112  C     C_R   0.466415 0.842689 0.643809 0.534170
C113  C     C_R   0.533547 0.842587 0.356176 0.533269
C114  C     C_3   0.008384 0.352144 0.070251 0.060216
C115  C     C_3   0.988070 0.351187 0.931318 0.064331
C116  C     C_3   0.508383 0.852144 0.070251 0.060216
C117  C     C_3   0.488070 0.851187 0.931318 0.064331
C118  C     C_R   0.761097 0.532445 0.849339 0.536803
C119  C     C_R   0.240168 0.536165 0.152153 0.532325
C120  C     C_R   0.261097 0.032445 0.849339 0.536803
Cr1   Cr    Cr6+3 0.885690 0.492860 0.745310 0.990714
Cr2   Cr    Cr6+3 0.111880 0.178590 0.246990 0.993789
Cr3   Cr    Cr6+3 0.388120 0.678590 0.753010 0.994546
Cr4   Cr    Cr6+3 0.611880 0.678590 0.246990 0.993789
Cr5   Cr    Cr6+3 0.114310 0.492860 0.254690 0.989923
Cr6   Cr    Cr6+3 0.385690 0.992860 0.745310 0.990715
Cr7   Cr    Cr6+3 0.614310 0.992860 0.254690 0.989923
Cr8   Cr    Cr6+3 0.729880 0.332270 0.748190 0.992083
Cr9   Cr    Cr6+3 0.270120 0.332270 0.251810 0.991402
Cr10  Cr    Cr6+3 0.229880 0.832270 0.748190 0.992083
Cr11  Cr    Cr6+3 0.770120 0.832270 0.251810 0.991402
Cr12  Cr    Cr6+3 0.888120 0.178590 0.753010 0.994547
H1    H     H_    0.639186 0.095164 0.448827 0.137227
H2    H     H_    0.189737 0.906421 0.532622 0.123559
H3    H     H_    0.537087 0.025260 0.940193 0.113589
H4    H     H_    0.607933 0.852909 0.041169 0.110140
H5    H     H_    0.385130 0.782014 0.955835 0.110648
H6    H     H_    0.107933 0.352909 0.041169 0.110140
H7    H     H_    0.885129 0.282014 0.955835 0.110647
H8    H     H_    0.597699 0.851512 0.919369 0.105185
H9    H     H_    0.400181 0.819803 0.079312 0.102517
H10   H     H_    0.097699 0.351512 0.919369 0.105185
H11   H     H_    0.900181 0.319803 0.079312 0.102517
H12   H     H_    0.952588 0.189465 0.078630 0.115576
H13   H     H_    0.310221 0.406155 0.467759 0.123214
H14   H     H_    0.061117 0.207160 0.923369 0.110741
H15   H     H_    0.452588 0.689465 0.078630 0.115576
H16   H     H_    0.561117 0.707160 0.923369 0.110741
H17   H     H_    0.952051 0.178799 0.958828 0.123239
H18   H     H_    0.076325 0.204817 0.045614 0.132572
H19   H     H_    0.452052 0.678799 0.958828 0.123239
H20   H     H_    0.576325 0.704817 0.045614 0.132573
H21   H     H_    0.650137 0.090523 0.571485 0.122958
H22   H     H_    0.349901 0.090659 0.428514 0.122752
H23   H     H_    0.150137 0.590523 0.571485 0.122953
H24   H     H_    0.689737 0.406421 0.532622 0.123559
H25   H     H_    0.849901 0.590659 0.428514 0.122753
H26   H     H_    0.723712 0.867219 0.465162 0.118814
H27   H     H_    0.276228 0.867358 0.535410 0.118757
H28   H     H_    0.223712 0.367219 0.465161 0.118813
H29   H     H_    0.776228 0.367358 0.535410 0.118757
H30   H     H_    0.713799 0.918849 0.587519 0.174754
H31   H     H_    0.286255 0.918852 0.412931 0.174937
H32   H     H_    0.213799 0.418849 0.587519 0.174748
H33   H     H_    0.786255 0.418852 0.412931 0.174937
H34   H     H_    0.854453 0.092870 0.421207 0.142761
H35   H     H_    0.803347 0.912770 0.587099 0.115648
H36   H     H_    0.145543 0.093202 0.578734 0.143117
H37   H     H_    0.354453 0.592871 0.421207 0.142762
H38   H     H_    0.645543 0.593202 0.578734 0.143115
H39   H     H_    0.800428 0.219854 0.427567 0.180721
H40   H     H_    0.199583 0.220162 0.571986 0.180866
H41   H     H_    0.300428 0.719854 0.427567 0.180722
H42   H     H_    0.699583 0.720163 0.571987 0.180866
H43   H     H_    0.840903 0.221054 0.547924 0.124234
H44   H     H_    0.159101 0.221032 0.451614 0.124020
H45   H     H_    0.340904 0.721054 0.547924 0.124234
H46   H     H_    0.196694 0.912733 0.413279 0.115342
H47   H     H_    0.659100 0.721033 0.451614 0.124019
H48   H     H_    0.604757 0.859970 0.644189 0.322029
H49   H     H_    0.395188 0.859974 0.355793 0.321500
H50   H     H_    0.104761 0.359979 0.644188 0.322026
H51   H     H_    0.895188 0.359977 0.355794 0.321502
H52   H     H_    0.303346 0.412769 0.587099 0.115649
H53   H     H_    0.696694 0.412733 0.413279 0.115341
H54   H     H_    0.045617 0.150486 0.443131 0.109978
H55   H     H_    0.954276 0.150610 0.557289 0.110262
H56   H     H_    0.545617 0.650487 0.443131 0.109978
H57   H     H_    0.360830 0.095195 0.551157 0.137375
H58   H     H_    0.454277 0.650610 0.557290 0.110264
H59   H     H_    0.959349 0.163890 0.434318 0.162900
H60   H     H_    0.040542 0.163936 0.566059 0.163063
H61   H     H_    0.459349 0.663890 0.434318 0.162901
H62   H     H_    0.540542 0.663937 0.566059 0.163060
H63   H     H_    0.618243 0.888603 0.462024 0.135896
H64   H     H_    0.381743 0.888791 0.537890 0.135804
H65   H     H_    0.118243 0.388602 0.462025 0.135895
H66   H     H_    0.881743 0.388792 0.537889 0.135804
H67   H     H_    0.948003 0.490518 0.420142 0.119660
H68   H     H_    0.139186 0.595164 0.448827 0.137227
H69   H     H_    0.052015 0.490553 0.579528 0.119487
H70   H     H_    0.448002 0.990517 0.420142 0.119659
H71   H     H_    0.552015 0.990554 0.579528 0.119493
H72   H     H_    0.943993 0.499666 0.536157 0.065822
H73   H     H_    0.056023 0.499497 0.463486 0.066224
H74   H     H_    0.443993 0.999666 0.536157 0.065821
H75   H     H_    0.556023 0.999497 0.463486 0.066224
H76   H     H_    0.832897 0.938924 0.063665 0.138368
H77   H     H_    0.180000 0.919067 0.939454 0.138640
H78   H     H_    0.332897 0.438924 0.063665 0.138368
H79   H     H_    0.860830 0.595195 0.551157 0.137374
H80   H     H_    0.679999 0.419067 0.939454 0.138640
H81   H     H_    0.688227 0.219119 0.441518 0.102222
H82   H     H_    0.311845 0.219260 0.558210 0.102223
H83   H     H_    0.188227 0.719118 0.441518 0.102222
H84   H     H_    0.811845 0.719260 0.558210 0.102223
H85   H     H_    0.859789 0.086449 0.072388 0.115777
H86   H     H_    0.142107 0.056494 0.932924 0.115351
H87   H     H_    0.359789 0.586449 0.072388 0.115777
H88   H     H_    0.642108 0.556494 0.932924 0.115351
H89   H     H_    0.870890 0.071839 0.952591 0.134404
H90   H     H_    0.864273 0.071264 0.540098 0.124343
H91   H     H_    0.132372 0.042312 0.050252 0.133423
H92   H     H_    0.370890 0.571839 0.952591 0.134404
H93   H     H_    0.632372 0.542312 0.050252 0.133423
H94   H     H_    0.822526 0.944939 0.946251 0.114818
H95   H     H_    0.192259 0.928115 0.059578 0.118502
H96   H     H_    0.322526 0.444939 0.946251 0.114818
H97   H     H_    0.692259 0.428115 0.059578 0.118503
H98   H     H_    0.699940 0.922495 0.045473 0.109794
H99   H     H_    0.338207 0.948278 0.954348 0.109358
H100  H     H_    0.199940 0.422495 0.045473 0.109794
H101  H     H_    0.135737 0.071248 0.459883 0.124430
H102  H     H_    0.838206 0.448278 0.954348 0.109358
H103  H     H_    0.706180 0.940186 0.922913 0.106469
H104  H     H_    0.310670 0.956172 0.077439 0.102459
H105  H     H_    0.206180 0.440186 0.922913 0.106468
H106  H     H_    0.810670 0.456172 0.077439 0.102459
H107  H     H_    0.696557 0.238672 0.083895 0.115250
H108  H     H_    0.289112 0.250096 0.916672 0.112815
H109  H     H_    0.196557 0.738672 0.083895 0.115250
H110  H     H_    0.789112 0.750096 0.916672 0.112815
H111  H     H_    0.787253 0.252470 0.087102 0.102671
H112  H     H_    0.364273 0.571264 0.540098 0.124343
H113  H     H_    0.199393 0.233531 0.908558 0.104097
H114  H     H_    0.287253 0.752470 0.087102 0.102671
H115  H     H_    0.699393 0.733531 0.908558 0.104097
H116  H     H_    0.778753 0.295037 0.963740 0.109048
H117  H     H_    0.188370 0.249264 0.027409 0.110893
H118  H     H_    0.278753 0.795037 0.963740 0.109048
H119  H     H_    0.688370 0.749264 0.027409 0.110893
H120  H     H_    0.693448 0.247269 0.963653 0.119141
H121  H     H_    0.277355 0.279826 0.038715 0.125760
H122  H     H_    0.193448 0.747269 0.963653 0.119141
H123  H     H_    0.635737 0.571248 0.459883 0.124430
H124  H     H_    0.777355 0.779826 0.038715 0.125760
H125  H     H_    0.642770 0.045314 0.048539 0.127708
H126  H     H_    0.356251 0.100790 0.955572 0.119578
H127  H     H_    0.142770 0.545314 0.048539 0.127708
H128  H     H_    0.856251 0.600790 0.955572 0.119578
H129  H     H_    0.684361 0.231557 0.562971 0.134799
H130  H     H_    0.315611 0.231682 0.436764 0.135303
H131  H     H_    0.184361 0.731557 0.562971 0.134799
H132  H     H_    0.815612 0.731681 0.436764 0.135302
H133  H     H_    0.652914 0.067682 0.926095 0.110842
H134  H     H_    0.810220 0.906155 0.467759 0.123214
H135  H     H_    0.348489 0.100868 0.075462 0.116016
H136  H     H_    0.152914 0.567682 0.926095 0.110842
H137  H     H_    0.848489 0.600868 0.075462 0.116016
H138  H     H_    0.034054 0.544151 0.058749 0.133766
H139  H     H_    0.949957 0.535183 0.943402 0.134368
H140  H     H_    0.534054 0.044152 0.058749 0.133766
H141  H     H_    0.449957 0.035183 0.943402 0.134368
H142  H     H_    0.946928 0.512910 0.064799 0.115881
H143  H     H_    0.037087 0.525260 0.940193 0.113589
H144  H     H_    0.446928 0.012910 0.064800 0.115881
O1    O     O_R   0.957210 0.449410 0.665480 -0.547113
O2    O     O_R   0.167480 0.095300 0.164000 -0.533843
O3    O     O_R   0.332520 0.595300 0.836000 -0.533593
O4    O     O_R   0.667480 0.595300 0.164000 -0.533842
O5    O     O_R   0.946380 0.253940 0.826940 -0.511876
O6    O     O_R   0.053620 0.253940 0.173060 -0.512087
O7    O     O_R   0.446380 0.753940 0.826940 -0.511877
O8    O     O_R   0.553620 0.753940 0.173060 -0.512087
O9    O     O_3   0.834560 0.334570 0.748840 -0.276392
O10   O     O_3   0.165440 0.334570 0.251160 -0.273523
O11   O     O_3   0.334560 0.834570 0.748840 -0.276391
O12   O     O_R   0.042790 0.449410 0.334520 -0.547786
O13   O     O_3   0.665440 0.834570 0.251160 -0.273523
O14   O     O_R   0.820730 0.541240 0.668250 -0.515233
O15   O     O_R   0.179270 0.541240 0.331750 -0.515750
O16   O     O_R   0.320730 0.041240 0.668250 -0.515233
O17   O     O_R   0.679270 0.041240 0.331750 -0.515750
O18   O     O_R   0.714240 0.455060 0.663710 -0.531291
O19   O     O_R   0.285760 0.455060 0.336290 -0.531898
O20   O     O_R   0.214240 0.955060 0.663710 -0.531291
O21   O     O_R   0.785760 0.955060 0.336290 -0.531898
O22   O     O_R   0.736780 0.204870 0.675910 -0.515252
O23   O     O_R   0.457210 0.949410 0.665480 -0.547112
O24   O     O_R   0.263220 0.204870 0.324090 -0.515616
O25   O     O_R   0.236780 0.704870 0.675910 -0.515252
O26   O     O_R   0.763220 0.704870 0.324090 -0.515615
O27   O     O_R   0.833070 0.087590 0.673490 -0.530618
O28   O     O_R   0.166930 0.087590 0.326510 -0.530823
O29   O     O_R   0.333070 0.587590 0.673490 -0.530617
O30   O     O_R   0.666930 0.587590 0.326510 -0.530823
O31   O     O_R   0.946890 0.246800 0.676300 -0.509464
O32   O     O_R   0.053110 0.246800 0.323700 -0.509924
O33   O     O_R   0.446890 0.746800 0.676300 -0.509465
O34   O     O_R   0.542790 0.949410 0.334520 -0.547786
O35   O     O_R   0.553110 0.746800 0.323700 -0.509924
O36   O     O_R   0.956650 0.457120 0.827980 -0.532037
O37   O     O_R   0.043350 0.457120 0.172020 -0.531728
O38   O     O_R   0.456650 0.957120 0.827980 -0.532037
O39   O     O_R   0.543350 0.957120 0.172020 -0.531728
O40   O     O_R   0.820220 0.548390 0.818890 -0.509651
O41   O     O_R   0.179780 0.548390 0.181110 -0.509177
O42   O     O_R   0.320220 0.048390 0.818890 -0.509651
O43   O     O_R   0.679780 0.048390 0.181110 -0.509177
O44   O     O_R   0.713680 0.462770 0.826210 -0.532156
O45   O     O_R   0.736260 0.212010 0.826560 -0.510714
O46   O     O_R   0.286320 0.462770 0.173790 -0.531792
O47   O     O_R   0.213680 0.962770 0.826210 -0.532155
O48   O     O_R   0.786320 0.962770 0.173790 -0.531792
O49   O     O_3   0.606730 0.838185 0.592851 -0.784099
O50   O     O_3   0.393229 0.838210 0.407178 -0.784409
O51   O     O_3   0.106729 0.338182 0.592851 -0.784095
O52   O     O_3   0.893229 0.338212 0.407178 -0.784410
O53   O     O_R   0.263740 0.212010 0.173440 -0.510370
O54   O     O_R   0.236260 0.712010 0.826560 -0.510714
O55   O     O_R   0.763740 0.712010 0.173440 -0.510370
O56   O     O_R   0.832520 0.095300 0.836000 -0.533593

loop_
_geom_bond_atom_site_label_1
_geom_bond_atom_site_label_2
_ccdc_geom_bond_type
C19   H23   S    
Cr11  O26   S    
C17   H21   S    
C21   C110  S    
Cr7   O13   S    
C40   H55   S    
C77   H36   S    
Cr8   O18   S    
C6    C85   S    
C1    O18   A    
Cr2   O28   S    
C9    C114  S    
C89   H104  S    
Cr1   O1    S    
C18   H130  S    
C94   H122  S    
Cr3   O3    S    
C22   H27   S    
Cr10  O20   S    
C87   H103  S    
C41   C42   S    
C74   C92   S    
C41   H61   S    
C76   C94   S    
C14   H57   S    
C2    C22   S    
C38   H47   S    
C3    O43   A    
C97   C115  S    
C64   O30   A    
C47   H74   S    
C59   H78   S    
C25   C34   S    
Cr4   O8    S    
Cr12  O5    S    
C29   C64   S    
C3    C79   S    
C37   H112  S    
C96   C114  S    
C75   H108  S    
C46   H75   S    
C11   O8    A    
C106  H10   S    
C50   H70   S    
C5    O53   A    
C112  O23   A    
C48   H67   S    
C27   C31   S    
C28   C32   S    
C15   H83   S    
C38   C99   S    
C35   C66   S    
C118  O44   A    
C119  O41   A    
C71   H126  S    
C13   C33   S    
Cr11  O55   S    
C78   C82   S    
C40   H60   S    
C16   C20   S    
C119  O46   A    
C43   H65   S    
C66   C110  S    
C67   H91   S    
C60   H80   S    
C73   H102  S    
C33   O19   A    
C98   H144  S    
C103  H20   S    
C74   C79   S    
Cr10  O25   S    
C30   H30   S    
Cr12  O31   S    
Cr6   O38   S    
C75   C93   S    
Cr6   O42   S    
C104  C117  S    
C53   C109  S    
C88   H37   S    
C70   C79   S    
C85   C90   S    
C68   H96   S    
Cr6   O23   S    
C81   C119  S    
C61   O27   A    
C106  C115  S    
C36   C77   S    
C35   H43   S    
C76   H109  S    
C36   H101  S    
C20   H132  S    
C99   H42   S    
Cr1   O36   S    
C49   C53   S    
C6    O54   A    
C84   C93   S    
C2    C14   S    
C86   C95   S    
C102  H17   S    
C28   C63   S    
C26   C35   S    
C48   C52   S    
C44   O20   A    
C71   H99   S    
C100  C117  S    
C104  C107  S    
C108  H16   S    
Cr7   O39   S    
C112  O33   A    
C96   H142  S    
Cr4   O30   S    
C12   C110  S    
C92   H116  S    
Cr8   O45   S    
C113  O35   A    
C30   H35   S    
C77   H40   S    
C43   C52   S    
C7    C86   S    
Cr9   O19   S    
C13   C23   S    
Cr4   O35   S    
C70   H125  S    
C25   H29   S    
Cr12  O27   S    
C29   C38   S    
C1    O14   A    
C111  O12   A    
C107  H9    S    
C34   H33   S    
Cr11  O48   S    
C18   H22   S    
Cr7   O17   S    
C45   C53   S    
C96   C97   S    
C25   H24   S    
Cr2   O32   S    
C68   C85   S    
C68   H92   S    
C70   C87   S    
C94   H118  S    
C47   C50   S    
C9    O37   A    
C92   H120  S    
C49   H69   S    
Cr11  O13   S    
C31   H46   S    
C66   H39   S    
C39   C40   S    
C5    C84   S    
H48   O49   S    
C46   C51   S    
H50   O51   S    
C103  H4    S    
C27   C62   S    
C69   H97   S    
C72   C90   S    
C58   C67   S    
Cr12  O9    S    
C67   H95   S    
C8    O36   A    
C19   C28   S    
Cr5   O15   S    
C21   H134  S    
Cr6   O16   S    
H49   O50   S    
C26   C30   S    
C4    O45   A    
C58   H77   S    
C101  C106  S    
C118  O40   A    
C72   H100  S    
C108  C117  S    
C16   H79   S    
C5    O2    A    
C109  O1    A    
C100  H3    S    
C37   H45   S    
C109  O31   A    
C103  C116  S    
C62   O28   A    
C10   C117  S    
C15   H68   S    
C58   H86   S    
C60   C69   S    
C32   H32   S    
C9    O6    A    
C107  C116  S    
C55   O17   A    
C72   H127  S    
C7    O55   A    
C95   H124  S    
C47   C56   S    
C83   C87   S    
C21   H26   S    
C37   C88   S    
C105  H12   S    
C65   H89   S    
C99   H38   S    
Cr1   O40   S    
C15   C19   S    
C57   H76   S    
C50   C54   S    
Cr1   O14   S    
C26   C61   S    
Cr8   O9    S    
C86   C91   S    
C60   H88   S    
C93   H121  S    
C101  H18   S    
C104  H5    S    
C14   H82   S    
C102  C105  S    
C16   H84   S    
C14   C18   S    
Cr5   O41   S    
C102  C115  S    
C42   C56   S    
C39   H54   S    
C55   O21   A    
Cr7   O43   S    
Cr8   O44   S    
C12   C17   S    
C72   C81   S    
C58   C80   S    
C38   H123  S    
C50   O50   S    
C101  C114  S    
C12   H81   S    
C6    O3    A    
C51   H71   S    
Cr4   O4    S    
C4    O56   A    
C64   O26   A    
C47   H64   S    
Cr4   O13   S    
C35   H90   S    
C95   H119  S    
C97   H139  S    
C51   O49   S    
C98   H140  S    
C29   C34   S    
C41   H56   S    
C89   H135  S    
C10   O7    A    
C34   H53   S    
C90   H136  S    
C107  H15   S    
H51   O52   S    
Cr10  O54   S    
C78   C95   S    
C46   C54   S    
Cr3   O33   S    
Cr1   O9    S    
C11   C116  S    
Cr2   O6    S    
Cr3   O11   S    
C87   H133  S    
C74   H111  S    
C10   O38   A    
C36   H44   S    
C98   C100  S    
C20   H25   S    
C7    O4    A    
C73   C82   S    
Cr10  O47   S    
C45   C48   S    
Cr7   O34   S    
Cr5   O10   S    
C90   H105  S    
C59   C81   S    
C57   C65   S    
Cr10  O11   S    
C69   H93   S    
C101  H6    S    
C27   C36   S    
C21   C30   S    
C113  O34   A    
C23   C32   S    
C2    C77   S    
C4    C83   S    
C57   H85   S    
C45   H72   S    
C91   H106  S    
C65   H94   S    
C17   H129  S    
C65   C83   S    
C19   H131  S    
Cr11  O21   S    
C59   H87   S    
C80   C120  S    
C43   H73   S    
C24   C99   S    
C62   O24   A    
C57   C79   S    
C63   O29   A    
Cr9   O53   S    
C73   H128  S    
C46   H63   S    
C83   C92   S    
C23   H13   S    
C78   H110  S    
C22   H2    S    
C17   C26   S    
C28   C37   S    
C104  H19   S    
Cr9   O10   S    
Cr12  O56   S    
C120  O47   A    
C96   H138  S    
C54   C113  S    
C39   H59   S    
C51   C56   S    
C74   H107  S    
C42   H62   S    
C42   H58   S    
C8    C115  S    
C60   C82   S    
C103  C108  S    
C120  O42   A    
C75   C80   S    
C75   H113  S    
C39   C52   S    
Cr5   O12   S    
C67   C84   S    
C16   C24   S    
Cr6   O11   S    
C71   C80   S    
C33   O15   A    
C93   H117  S    
C20   C29   S    
C111  O32   A    
C31   H31   S    
C22   C31   S    
C66   H34   S    
C105  C114  S    
C24   C25   S    
C73   C91   S    
Cr5   O37   S    
C49   O51   S    
C2    C44   S    
C108  H8    S    
C43   C49   S    
C52   C111  S    
C45   H66   S    
C88   H41   S    
C70   H98   S    
C59   C68   S    
C97   H143  S    
C85   C94   S    
C98   C116  S    
C3    O48   A    
C71   C89   S    
C23   H28   S    
C78   H115  S    
C1    C24   S    
C63   O25   A    
C12   H1    S    
C13   C15   S    
C55   C110  S    
C84   C89   S    
C61   O22   A    
C44   O16   A    
C32   H52   S    
C76   H114  S    
C18   C27   S    
C91   H137  S    
C76   C81   S    
C105  H11   S    
Cr8   O22   S    
Cr9   O24   S    
C106  H14   S    
C100  H141  S    
Cr3   O29   S    
Cr9   O46   S    
Cr2   O10   S    
Cr2   O2    S    
Cr3   O7    S    
C8    O5    A    
C48   O52   S    
C11   O39   A    
C13   C88   S    
C41   C54   S    
C102  H7    S    
C40   C53   S    
C82   C118  S    
C56   C112  S    
C69   C86   S    
