data_mof_unit_64620.cif
_audit_creation_date              2012-12-10T18:51:22-0500
_audit_creation_method            fapswitch 2.2
_symmetry_space_group_name_H-M    P1
_symmetry_Int_Tables_number       1
_space_group_crystal_system       triclinic
_cell_length_a                    19.39469
_cell_length_b                    18.208323
_cell_length_c                    19.459983
_cell_angle_alpha                 89.93359
_cell_angle_beta                  92.131629
_cell_angle_gamma                 90.006225
_cell_volume                      6867.43132106

loop_
_atom_site_label
_atom_site_type_symbol
_atom_type_description
_atom_site_fract_x
_atom_site_fract_y
_atom_site_fract_z
_atom_type_partial_charge
C1    C     C_R   0.367881 0.499968 0.499712 0.782686
C2    C     C_R   0.632121 0.499974 0.500295 0.783134
C3    C     C_R   0.851301 0.499318 0.500393 0.194796
C4    C     C_R   0.148709 0.499305 0.499749 0.194678
C5    C     C_R   0.707107 0.499805 0.500359 -0.014610
C6    C     C_R   0.292898 0.499784 0.499685 -0.014557
C7    C     C_R   0.963673 0.566368 0.499322 0.070100
C8    C     C_R   0.036277 0.432205 0.499237 0.070920
C9    C     C_R   0.036355 0.566363 0.500792 0.070081
C10   C     C_R   0.963719 0.432208 0.501045 0.070867
C11   C     C_R   0.072544 0.499283 0.499923 0.023842
C12   C     C_R   0.927468 0.499291 0.500265 0.023811
C13   C     C_R   0.449094 0.723328 0.464104 0.324544
C14   C     C_R   0.546457 0.278878 0.541526 0.330703
C15   C     C_R   0.550906 0.723255 0.535895 0.325075
C16   C     C_R   0.453445 0.278923 0.458619 0.330912
C17   C     C_R   0.449107 0.800946 0.462922 0.067014
C18   C     C_R   0.547501 0.201132 0.542242 -0.010448
C19   C     C_R   0.550840 0.800865 0.537153 0.066380
C20   C     C_R   0.452400 0.201178 0.457985 -0.010484
C21   C     C_R   0.499960 0.840640 0.500060 -0.110640
C22   C     C_R   0.499971 0.161436 0.500109 -0.044845
C23   C     C_R   0.544612 0.962555 0.458355 -0.188113
C24   C     C_R   0.455303 0.039671 0.541810 -0.190886
C25   C     C_R   0.455319 0.962428 0.541821 -0.189158
C26   C     C_R   0.544653 0.039797 0.458411 -0.190736
C27   C     C_R   0.499985 0.079135 0.500122 0.141219
C28   C     C_R   0.499958 0.923039 0.500075 0.134581
C29   C     C_R   0.500718 0.500064 0.367066 0.849551
C30   C     C_R   0.499171 0.499949 0.632917 0.850842
C31   C     C_R   0.492649 0.566642 0.252926 0.116792
C32   C     C_R   0.484656 0.433320 0.745572 0.068520
C33   C     C_R   0.506431 0.565852 0.747410 0.064507
C34   C     C_R   0.512338 0.434065 0.253793 0.064451
C35   C     C_R   0.491664 0.566515 0.180784 0.071435
C36   C     C_R   0.484763 0.432991 0.818036 0.070743
C37   C     C_R   0.504958 0.564944 0.819772 0.074167
C38   C     C_R   0.509804 0.433981 0.181230 0.099636
C39   C     C_R   0.499164 0.499977 0.144635 -0.033990
C40   C     C_R   0.494968 0.498588 0.854515 0.010984
C41   C     C_R   0.501824 0.500246 0.290356 -0.123064
C42   C     C_R   0.496958 0.499707 0.709545 -0.100335
C43   C     C_R   0.495263 0.497907 0.929733 0.508874
C44   C     C_R   0.497591 0.499124 0.068745 0.449651
C45   C     C_R   0.741124 0.459003 0.451013 -0.202609
C46   C     C_R   0.254943 0.540124 0.450105 -0.217495
C47   C     C_R   0.258908 0.458933 0.549108 -0.202865
C48   C     C_R   0.745039 0.540094 0.549913 -0.217590
C49   C     C_R   0.812904 0.459745 0.450301 -0.127195
C50   C     C_R   0.183121 0.538992 0.449479 -0.116906
C51   C     C_R   0.187130 0.459678 0.549867 -0.127229
C52   C     C_R   0.816863 0.538958 0.550588 -0.117072
Cu1   Cu    Cu3+1 0.500000 0.573360 0.500000 0.937034
Cu2   Cu    Cu3+1 0.500000 0.426640 0.500000 0.989889
H1    H     H_    0.712074 0.427903 0.412329 0.138407
H2    H     H_    0.280849 0.571065 0.411104 0.133994
H3    H     H_    0.287978 0.427796 0.587815 0.137974
H4    H     H_    0.719114 0.570993 0.588860 0.133620
H5    H     H_    0.838528 0.429596 0.410655 0.139341
H6    H     H_    0.154347 0.568952 0.409771 0.140487
H7    H     H_    0.161527 0.429490 0.589568 0.139223
H8    H     H_    0.845617 0.568876 0.590277 0.140154
H9    H     H_    0.579401 0.933485 0.425673 0.135220
H10   H     H_    0.420458 0.068775 0.574408 0.133764
H11   H     H_    0.420522 0.933258 0.574487 0.134349
H12   H     H_    0.579500 0.068999 0.425822 0.134132
N1    N     N_R   0.544126 0.458742 0.034588 -0.200630
N2    N     N_R   0.448615 0.538140 0.963605 -0.220144
N3    N     N_R   0.542884 0.457962 0.966221 -0.219809
N4    N     N_R   0.449573 0.538379 0.031947 -0.261423
N5    N     N_R   0.500000 0.683620 0.500000 -0.240121
N6    N     N_R   0.500000 0.316380 0.500000 -0.197008
O1    O     O_R   0.400190 0.561980 0.499990 -0.605101
O2    O     O_R   0.599810 0.438020 0.500010 -0.556712
O3    O     O_R   0.599810 0.561980 0.500010 -0.604928
O4    O     O_R   0.400190 0.438020 0.499990 -0.556731
O5    O     O_R   0.499990 0.561970 0.400150 -0.572967
O6    O     O_R   0.500010 0.438030 0.599850 -0.532123
O7    O     O_R   0.500010 0.561970 0.599850 -0.570169
O8    O     O_R   0.499990 0.438030 0.400150 -0.529882
N7    N     N_3   0.484247 0.635159 0.288028 -0.562483
H13   H     H_    0.524014 0.670597 0.274657 0.245164
H14   H     H_    0.437178 0.658430 0.271556 0.237006
N8    N     N_3   0.470315 0.366532 0.708569 -0.564534
H15   H     H_    0.506247 0.326647 0.724358 0.212083
H16   H     H_    0.420926 0.348323 0.719949 0.211454
N9    N     N_3   0.517906 0.633999 0.712498 -0.575136
H17   H     H_    0.565491 0.655609 0.729367 0.217815
H18   H     H_    0.478838 0.670957 0.724186 0.224479
N10   N     N_3   0.527143 0.367009 0.290349 -0.563970
H19   H     H_    0.575848 0.348230 0.277272 0.211728
H20   H     H_    0.490317 0.327575 0.275842 0.210999
N11   N     N_3   0.484929 0.635651 0.145554 -0.600704
H21   H     H_    0.524668 0.640893 0.111016 0.234276
H22   H     H_    0.437219 0.637486 0.118908 0.249403
N12   N     N_3   0.472993 0.366331 0.855362 -0.578858
H23   H     H_    0.424843 0.345028 0.839957 0.218252
H24   H     H_    0.511227 0.328325 0.843836 0.225581
N13   N     N_3   0.515296 0.631138 0.858908 -0.584474
H25   H     H_    0.477127 0.669054 0.844060 0.226177
H26   H     H_    0.563625 0.653001 0.848511 0.219486
N14   N     N_3   0.516459 0.366385 0.144051 -0.566226
H27   H     H_    0.476887 0.330771 0.157455 0.216901
H28   H     H_    0.564013 0.342395 0.157502 0.222863
N15   N     N_3   0.926006 0.634229 0.495502 -0.600564
H29   H     H_    0.939950 0.666306 0.538289 0.215876
H30   H     H_    0.939197 0.662244 0.450971 0.223957
N16   N     N_3   0.073643 0.364353 0.495332 -0.601952
H31   H     H_    0.063090 0.332231 0.538214 0.214579
H32   H     H_    0.056928 0.336384 0.450904 0.223526
N17   N     N_3   0.074040 0.634216 0.504528 -0.600546
H33   H     H_    0.060103 0.666341 0.461703 0.216050
H34   H     H_    0.060858 0.662184 0.549026 0.223847
N18   N     N_3   0.926336 0.364356 0.505036 -0.601869
H35   H     H_    0.936882 0.332275 0.462196 0.214668
H36   H     H_    0.943043 0.336340 0.549500 0.223499
N19   N     N_3   0.392149 0.688707 0.428294 -0.560680
H37   H     H_    0.407529 0.643537 0.400277 0.264945
H38   H     H_    0.354665 0.675383 0.463353 0.232939
N20   N     N_3   0.594519 0.319059 0.584498 -0.506341
H39   H     H_    0.588538 0.302764 0.635427 0.214949
H40   H     H_    0.644392 0.304835 0.570783 0.216526
N21   N     N_3   0.607952 0.688578 0.571553 -0.561361
H41   H     H_    0.592669 0.643316 0.599591 0.266715
H42   H     H_    0.645347 0.675384 0.536388 0.232845
N22   N     N_3   0.405143 0.319140 0.415868 -0.506308
H43   H     H_    0.410639 0.302718 0.364947 0.214297
H44   H     H_    0.355376 0.305026 0.430038 0.216325
N23   N     N_3   0.395889 0.838471 0.423502 -0.558782
H45   H     H_    0.419134 0.872613 0.387849 0.228237
H46   H     H_    0.368000 0.871203 0.456707 0.221869
N24   N     N_3   0.596882 0.163719 0.586391 -0.613278
H47   H     H_    0.627504 0.130586 0.556038 0.232124
H48   H     H_    0.570184 0.129836 0.619707 0.232301
N25   N     N_3   0.604052 0.838301 0.576587 -0.560537
H49   H     H_    0.580802 0.872313 0.612265 0.226610
H50   H     H_    0.631926 0.871155 0.543398 0.222329
N26   N     N_3   0.402941 0.163813 0.413959 -0.613408
H51   H     H_    0.372355 0.130661 0.444405 0.232140
H52   H     H_    0.429573 0.129957 0.380645 0.232681

loop_
_geom_bond_atom_site_label_1
_geom_bond_atom_site_label_2
_ccdc_geom_bond_type
C9    N17   S    
N9    H17   S    
N11   H21   S    
C14   C18   A    
C18   N24   S    
N17   H33   S    
C16   N6    A    
C24   C27   A    
N18   H35   S    
C3    C49   A    
N21   H41   S    
Cu1   Cu2   S    
C25   C28   A    
C15   C19   A    
N15   H30   S    
C26   C27   A    
N22   H43   S    
C15   N21   S    
C33   C42   A    
C32   C36   A    
C19   C21   A    
N8    H16   S    
C37   C40   A    
N19   H38   S    
C6    C46   A    
C38   C39   A    
N21   H42   S    
C19   N25   S    
N16   H31   S    
N25   H50   S    
C23   C26   A    
C20   N26   S    
C3    C12   S    
Cu2   O2    S    
C40   C43   S    
C43   N2    A    
N12   H24   S    
C7    N15   S    
C44   N4    A    
N25   H49   S    
C10   N18   S    
C29   C41   S    
C23   H9    S    
C24   H10   S    
C34   C38   A    
Cu1   O3    S    
C34   C41   A    
C8    N16   S    
N7    H14   S    
N20   H40   S    
N7    H13   S    
Cu2   O8    S    
C35   N11   S    
C7    C12   A    
C32   N8    S    
C5    C48   A    
C31   N7    S    
C6    C47   A    
C4    C51   A    
C17   N23   S    
C1    C6    S    
C26   H12   S    
C36   C40   A    
C25   H11   S    
N8    H15   S    
N24   H47   S    
C47   C51   A    
C13   N5    A    
C5    C45   A    
C33   C37   A    
C4    C50   A    
N18   H36   S    
N1    N3    A    
Cu1   O5    S    
C34   N10   S    
C47   H3    S    
C36   N12   S    
N10   H20   S    
N13   H25   S    
C45   C49   A    
C16   C20   A    
N12   H23   S    
C29   O5    A    
N17   H34   S    
C23   C28   A    
C24   C25   A    
C4    C11   S    
N14   H28   S    
C9    C11   A    
C10   C12   A    
Cu2   O4    S    
C30   O7    A    
C8    C10   A    
N13   H26   S    
C21   C28   S    
C20   C22   A    
C14   N20   S    
C22   C27   S    
N9    H18   S    
C31   C35   A    
C2    C5    S    
Cu1   N5    S    
C37   N13   S    
N20   H39   S    
N23   H45   S    
C7    C9    A    
N22   H44   S    
C31   C41   A    
Cu1   O7    S    
C18   C22   A    
C1    O4    A    
C14   N6    A    
Cu1   O1    S    
C2    O2    A    
C13   N19   S    
C3    C52   A    
C48   H4    S    
C39   C44   S    
N26   H52   S    
C15   N5    A    
N15   H29   S    
C46   C50   A    
C49   H5    S    
C13   C17   A    
C50   H6    S    
C33   N9    S    
C1    O1    A    
C38   N14   S    
C52   H8    S    
N19   H37   S    
C51   H7    S    
N10   H19   S    
N11   H22   S    
C29   O8    A    
C8    C11   A    
C35   C39   A    
N16   H32   S    
N14   H27   S    
C17   C21   A    
N26   H51   S    
C30   O6    A    
C48   C52   A    
Cu2   N6    S    
C45   H1    S    
N24   H48   S    
C46   H2    S    
N2    N4    A    
C32   C42   A    
C30   C42   S    
C44   N1    A    
N23   H46   S    
C43   N3    A    
C16   N22   S    
C2    O3    A    
Cu2   O6    S    
