data_mof_unit_8777.cif
_audit_creation_date              2012-12-11T16:21:53-0500
_audit_creation_method            fapswitch 2.2
_symmetry_space_group_name_H-M    P1
_symmetry_Int_Tables_number       1
_space_group_crystal_system       triclinic
_cell_length_a                    13.488384
_cell_length_b                    14.01883
_cell_length_c                    30.104207
_cell_angle_alpha                 98.037235
_cell_angle_beta                  90.240979
_cell_angle_gamma                 118.644126
_cell_volume                      4930.05306667

loop_
_atom_site_label
_atom_site_type_symbol
_atom_type_description
_atom_site_fract_x
_atom_site_fract_y
_atom_site_fract_z
_atom_type_partial_charge
C1    C     C_R   0.719595 0.098279 0.569592 0.550173
C2    C     C_R   0.358737 0.684470 0.678163 0.046975
C3    C     C_R   0.267950 0.693941 0.659673 0.196279
C4    C     C_R   0.272167 0.717044 0.615527 -0.057958
C5    C     C_R   0.224948 0.599086 0.822675 0.044645
C6    C     C_R   0.208403 0.583738 0.867297 -0.122022
C7    C     C_R   0.404046 0.627386 0.880783 -0.092592
C8    C     C_R   0.423402 0.649074 0.836830 -0.091470
C9    C     C_R   0.333858 0.632627 0.807441 0.062662
C10   C     C_1   0.353835 0.651830 0.762084 0.013254
C11   C     C_1   0.360627 0.666562 0.723703 -0.008852
C12   C     C_R   0.384069 0.788996 0.551093 0.558218
C13   C     C_R   0.295771 0.592931 0.896043 0.027093
C14   C     C_3   0.238713 0.150243 0.724057 -0.150336
C15   C     C_3   0.241020 0.069098 0.753653 0.018199
C16   C     C_1   0.298671 0.196608 0.877201 0.062997
C17   C     C_1   0.369239 0.135851 0.614394 0.019575
C18   C     C_3   0.320539 0.247403 0.760214 0.040720
C19   C     C_3   0.321446 0.166151 0.789594 0.073882
C20   C     C_3   0.424519 0.251701 0.737415 -0.152065
C21   C     C_3   0.342722 0.153702 0.701876 0.030914
C22   C     C_3   0.425583 0.169761 0.767181 -0.158758
C23   C     C_R   0.397960 0.118837 0.569637 0.569967
C24   C     C_3   0.344295 0.072488 0.730909 0.029150
C25   C     C_1   0.309669 0.177900 0.837929 0.076900
C26   C     C_1   0.354287 0.145931 0.653620 -0.004471
C27   C     C_3   0.900485 0.242257 0.735131 -0.094369
C28   C     C_3   0.820344 0.257201 0.768437 0.141497
C29   C     C_1   0.883593 0.199057 0.880608 0.038579
C30   C     C_1   0.759815 0.126569 0.616043 0.004043
C31   C     C_3   0.896160 0.151235 0.760246 0.001139
C32   C     C_3   0.817886 0.168890 0.794040 0.053210
C33   C     C_3   0.790854 0.063485 0.730040 0.111966
C34   C     C_R   0.720170 0.095092 0.442793 0.544302
C35   C     C_3   0.794192 0.153078 0.705034 -0.001729
C36   C     C_3   0.712319 0.080319 0.763422 0.036882
C37   C     C_3   0.713713 0.170174 0.737954 -0.130391
C38   C     C_1   0.846088 0.183596 0.842399 0.043917
C39   C     C_1   0.779859 0.141722 0.656122 -0.028855
C40   C     C_3   0.234939 0.613301 0.259352 -0.124879
C41   C     C_3   0.281037 0.706099 0.230043 -0.133347
C42   C     C_1   0.307499 0.603826 0.111763 0.016515
C43   C     C_1   0.364602 0.732525 0.378603 0.013469
C44   C     C_3   0.289343 0.554568 0.229978 0.045960
C45   C     C_R   0.381973 0.783877 0.424491 0.550565
C46   C     C_3   0.334925 0.646655 0.201104 0.058690
C47   C     C_3   0.400236 0.616969 0.261108 -0.101779
C48   C     C_3   0.346239 0.676722 0.289724 0.038435
C49   C     C_3   0.445967 0.709832 0.231664 -0.111307
C50   C     C_3   0.392285 0.769865 0.261154 -0.109311
C51   C     C_1   0.324602 0.628521 0.151973 -0.014738
C52   C     C_1   0.354476 0.701481 0.338743 -0.021424
C53   C     C_R   0.354357 0.135050 0.402535 0.017878
C54   C     C_R   0.381362 0.242428 0.394908 0.020432
C55   C     C_R   0.370569 0.259818 0.350116 0.004657
C56   C     C_R   0.394756 0.115544 0.443917 0.583465
C57   C     C_R   0.335224 0.169885 0.314740 -0.000010
C58   C     C_R   0.299092 0.063791 0.323533 -0.134279
C59   C     C_R   0.307158 0.046185 0.367056 -0.156614
C60   C     C_R   0.218777 0.135025 0.157789 0.039640
C61   C     C_R   0.212947 0.145706 0.112647 -0.075775
C62   C     C_R   0.418724 0.256411 0.115315 0.011419
C63   C     C_R   0.424288 0.246455 0.160892 -0.080370
C64   C     C_R   0.325417 0.189611 0.182183 -0.020582
C65   C     C_1   0.334114 0.188138 0.229290 -0.057776
C66   C     C_1   0.335913 0.182700 0.268529 -0.049971
C67   C     C_R   0.366719 0.735581 0.591275 0.005287
C68   C     C_R   0.310796 0.210585 0.091636 -0.038199
C69   C     C_R   0.782482 0.133006 0.403181 0.012949
C70   C     C_R   0.807254 0.061896 0.373697 -0.125430
C71   C     C_R   0.841485 0.086282 0.331325 -0.142258
C72   C     C_R   0.852627 0.182346 0.318020 0.052038
C73   C     C_R   0.838638 0.260136 0.348837 0.031386
C74   C     C_R   0.803120 0.233988 0.391278 -0.154284
C75   C     C_R   0.906292 0.303651 0.171132 -0.062888
C76   C     C_R   0.921489 0.314451 0.125583 0.131183
C77   C     C_R   0.849709 0.114894 0.107707 0.131857
C78   C     C_R   0.453306 0.720917 0.609717 -0.117534
C79   C     C_R   0.836619 0.107650 0.153387 -0.080137
C80   C     C_R   0.869311 0.202145 0.184885 -0.016770
C81   C     C_1   0.865810 0.195628 0.231797 0.010024
C82   C     C_1   0.862397 0.190755 0.271234 0.042828
C83   C     C_R   0.900932 0.219964 0.093837 0.048438
C84   C     C_R   0.284229 0.232267 0.922237 0.552821
C85   C     C_R   0.265841 0.546874 0.937991 0.550210
C86   C     C_R   0.943256 0.221277 0.923438 0.551172
C87   C     C_R   0.292795 0.243160 0.049016 0.524526
C88   C     C_R   0.275075 0.558211 0.065287 0.553709
C89   C     C_R   0.448976 0.695085 0.652871 -0.136511
C90   C     C_R   0.954099 0.233503 0.050267 0.562014
Cr1   Cr    Cr6+3 0.583430 0.162610 0.509470 1.044435
Cr2   Cr    Cr6+3 0.584210 0.916680 0.495400 1.038962
Cr3   Cr    Cr6+3 0.332380 0.920740 0.495100 1.040437
Cr4   Cr    Cr6+3 0.086810 0.177030 0.983130 1.069235
Cr5   Cr    Cr6+3 0.337180 0.419300 0.994610 1.048317
Cr6   Cr    Cr6+3 0.084840 0.422330 0.995830 1.039262
H1    H     H_    0.123776 0.554994 0.878367 0.128449
H2    H     H_    0.163551 0.143432 0.705651 0.092064
H3    H     H_    0.501521 0.176933 0.785133 0.118574
H4    H     H_    0.499787 0.327307 0.730341 0.104369
H5    H     H_    0.977233 0.308901 0.723595 0.167706
H6    H     H_    0.639680 0.179320 0.728133 0.124390
H7    H     H_    0.232601 0.743088 0.216889 0.108416
H8    H     H_    0.148340 0.572899 0.271007 0.143763
H9    H     H_    0.434865 0.859313 0.274705 0.113187
H10   H     H_    0.532414 0.749882 0.219881 0.115885
H11   H     H_    0.448199 0.579572 0.274312 0.120613
H12   H     H_    0.130016 0.108672 0.094650 0.193516
H13   H     H_    0.269085 0.994609 0.296262 0.121034
H14   H     H_    0.285722 0.963748 0.372291 0.139393
H15   H     H_    0.505770 0.283802 0.180148 0.165803
H16   H     H_    0.924995 0.374186 0.196466 0.147312
H17   H     H_    0.786352 0.290383 0.414277 0.112568
H18   H     H_    0.792835 0.983820 0.382072 0.142612
H19   H     H_    0.206240 0.728868 0.601018 0.132823
H20   H     H_    0.802956 0.028289 0.164457 0.133406
H21   H     H_    0.852678 0.026714 0.307875 0.117491
H22   H     H_    0.527170 0.734719 0.591711 0.142291
H23   H     H_    0.507201 0.675141 0.825304 0.115321
H24   H     H_    0.472434 0.634274 0.902326 0.123469
H25   H     H_    0.518235 0.687475 0.667191 0.116228
O1    O     O_R   0.493980 0.188910 0.559650 -0.497541
O2    O     O_R   0.480180 0.824400 0.444640 -0.491264
O3    O     O_R   0.308310 0.808540 0.439800 -0.514179
O4    O     O_R   0.340740 0.020600 0.455570 -0.507246
O5    O     O_3   0.500010 0.000010 0.499990 -0.255128
O6    O     O_R   0.969650 0.150960 0.933380 -0.490384
O7    O     O_R   0.187740 0.180870 0.937580 -0.478965
O8    O     O_R   0.358510 0.327410 0.940870 -0.510113
O9    O     O_R   0.324180 0.507870 0.953930 -0.492991
O10   O     O_R   0.170560 0.527890 0.952050 -0.520533
O11   O     O_R   0.987620 0.318470 0.945550 -0.503642
O12   O     O_R   0.678640 0.153520 0.554450 -0.495669
O13   O     O_R   0.976400 0.159270 0.031530 -0.479738
O14   O     O_R   0.194000 0.188570 0.028560 -0.506401
O15   O     O_R   0.365260 0.335720 0.039020 -0.513256
O16   O     O_R   0.330440 0.515580 0.044910 -0.488970
O17   O     O_R   0.177310 0.536200 0.050190 -0.499451
O18   O     O_R   0.993870 0.326170 0.036530 -0.491448
O19   O     O_3   0.169610 0.339550 0.991190 -0.247784
O20   O     O_R   0.698130 0.004030 0.549500 -0.505958
O21   O     O_R   0.481060 0.827210 0.535360 -0.497017
O22   O     O_R   0.309260 0.811560 0.537660 -0.513808
O23   O     O_R   0.341620 0.023400 0.546290 -0.488103
O24   O     O_R   0.493030 0.185890 0.461780 -0.493328
O25   O     O_R   0.677760 0.150720 0.463730 -0.507261
O26   O     O_R   0.697180 0.001010 0.451640 -0.515406
C91   C     C_2   0.359836 0.974558 0.715674 0.195767
H26   H     H_    0.351142 0.919369 0.739072 0.099249
O27   O     O_2   0.383061 0.956906 0.677359 -0.518073
C92   C     C_2   0.309720 0.348435 0.774855 0.264325
H27   H     H_    0.306444 0.395981 0.749946 0.103221
O28   O     O_2   0.304963 0.377990 0.814495 -0.469414
N1    N     N_2   0.834916 0.362348 0.790217 -0.506288
H28   H     H_    0.787845 0.355883 0.817634 0.248683
C93   C     C_3   0.823376 0.428912 0.760123 -0.295880
H29   H     H_    0.846043 0.511366 0.779146 0.140763
H30   H     H_    0.734443 0.389650 0.745302 0.125920
H31   H     H_    0.880982 0.439904 0.732727 0.194468
C94   C     C_2   0.606228 0.991801 0.778086 0.205509
H32   H     H_    0.539407 0.932264 0.753034 0.120458
O29   O     O_2   0.594730 0.985610 0.817928 -0.524069
N2    N     N_2   0.776885 0.959563 0.706620 -0.521597
H33   H     H_    0.836907 0.969925 0.683926 0.245231
C95   C     C_3   0.760491 0.877559 0.734327 -0.306688
H34   H     H_    0.758216 0.804947 0.713111 0.130914
H35   H     H_    0.678473 0.849022 0.749622 0.166207
H36   H     H_    0.830611 0.910906 0.761207 0.158424
C96   C     C_2   0.124240 0.573079 0.793073 0.224886
H37   H     H_    0.054517 0.581153 0.807481 0.113384
O30   O     O_2   0.114948 0.536628 0.753136 -0.514586
C97   C     C_2   0.996369 0.138588 0.772335 0.228429
H38   H     H_    0.008610 0.074380 0.753101 0.101488
O31   O     O_2   0.065455 0.201549 0.803219 -0.455273
C98   C     C_2   0.230973 0.432675 0.213966 0.216868
H39   H     H_    0.203474 0.376692 0.238347 0.114602
O32   O     O_2   0.214050 0.395744 0.173843 -0.500031
C99   C     C_2   0.112707 0.070120 0.179309 0.227575
H40   H     H_    0.115075 0.064851 0.214857 0.115253
O33   O     O_2   0.020831 0.020901 0.157451 -0.534140
N3    N     N_2   0.177455 0.685410 0.686676 -0.467035
H41   H     H_    0.202131 0.722200 0.719845 0.269022
C100  C     C_3   0.083497 0.694052 0.668055 -0.301830
H42   H     H_    0.019435 0.678330 0.693112 0.143941
H43   H     H_    0.041921 0.631272 0.637453 0.151234
H44   H     H_    0.113353 0.778232 0.660168 0.140735
C101  C     C_2   0.425228 0.335973 0.432958 0.287684
H45   H     H_    0.487646 0.418013 0.427930 0.139854
O34   O     O_2   0.390816 0.322437 0.470251 -0.492470
C102  C     C_2   0.525453 0.312292 0.093111 0.235667
H46   H     H_    0.524202 0.304249 0.056745 0.123752
O35   O     O_2   0.616830 0.366405 0.115188 -0.521522
C103  C     C_2   0.394539 0.369174 0.339274 0.190825
H47   H     H_    0.422567 0.391033 0.306653 0.110942
O36   O     O_2   0.378227 0.433866 0.365584 -0.519383
N4    N     N_2   0.958866 0.418824 0.111301 -0.470025
H48   H     H_    0.905304 0.418310 0.086602 0.267541
C104  C     C_3   0.012287 0.519325 0.143799 -0.278037
H49   H     H_    0.052063 0.591123 0.125787 0.154033
H50   H     H_    0.079803 0.520491 0.165449 0.171272
H51   H     H_    0.948172 0.527156 0.164739 0.147682
C105  C     C_2   0.854901 0.366669 0.337910 0.223236
H52   H     H_    0.830244 0.416831 0.361028 0.100042
O37   O     O_2   0.897722 0.401123 0.303910 -0.524309
N5    N     N_2   0.815809 0.016581 0.076261 -0.480861
H53   H     H_    0.810767 0.951297 0.090158 0.270711
C106  C     C_3   0.716911 0.985050 0.046461 -0.296193
H54   H     H_    0.641777 0.965364 0.066109 0.131374
H55   H     H_    0.699824 0.910966 0.021895 0.149833
H56   H     H_    0.730837 0.052187 0.027381 0.154007
C107  C     C_2   0.138666 0.965202 0.761102 0.194454
H57   H     H_    0.089297 0.902890 0.732486 0.084579
O38   O     O_2   0.110236 0.950163 0.799020 -0.500744

loop_
_geom_bond_atom_site_label_1
_geom_bond_atom_site_label_2
_ccdc_geom_bond_type
C84   O7    A    
C21   C26   S    
C106  H56   S    
C102  H46   S    
Cr1   O5    S    
C80   C81   S    
C58   H13   S    
Cr4   O19   S    
C96   H37   S    
C14   C18   S    
C4    H19   S    
N2    H33   S    
Cr3   O3    S    
C57   C66   S    
C100  H42   S    
C59   H14   S    
Cr6   O18   S    
C90   O18   A    
C53   C59   A    
C7    C8    A    
C98   O32   D    
C53   C54   A    
C70   H18   S    
C15   C19   S    
N2    C95   S    
C46   C49   S    
Cr5   O19   S    
C95   H34   S    
C105  O37   D    
C17   C26   T    
C32   C36   S    
C14   C21   S    
C93   H29   S    
C78   H22   S    
C91   O27   D    
C78   C89   A    
C100  H43   S    
Cr6   O17   S    
C5    C6    A    
C90   O13   A    
C43   C52   T    
C31   C97   S    
C77   C83   A    
C60   C99   S    
C84   O8    A    
C16   C84   S    
C33   C36   S    
C18   C19   S    
C73   C74   A    
C56   O24   A    
C61   H12   S    
Cr3   O5    S    
Cr5   O15   S    
C15   C107  S    
C76   N4    S    
Cr4   O13   S    
C107  H57   S    
C97   O31   D    
C8    C9    A    
C103  O36   D    
Cr1   O1    S    
Cr1   O12   S    
C29   C38   T    
C50   H9    S    
C41   C46   S    
C44   C98   S    
C70   C71   A    
C32   C38   S    
Cr2   O21   S    
C75   C80   A    
C40   C44   S    
N1    C93   S    
Cr3   O22   S    
C44   C47   S    
C42   C51   T    
Cr6   O11   S    
N5    C106  S    
C95   H35   S    
C79   H20   S    
Cr2   O26   S    
C28   N1    S    
C96   O30   D    
C67   C78   A    
C1    O12   A    
C2    C11   S    
C87   O15   A    
C76   C83   A    
C44   C46   S    
C14   H2    S    
C23   O1    A    
N3    C100  S    
C45   O3    A    
C104  H50   S    
C12   C67   S    
Cr5   O16   S    
C105  H52   S    
C71   H21   S    
C63   C64   A    
C27   C31   S    
C106  H54   S    
C6    H1    S    
C99   H40   S    
C28   C32   S    
C19   C22   S    
C91   H26   S    
N4    C104  S    
C24   C91   S    
Cr2   O2    S    
C63   H15   S    
C72   C73   A    
C81   C82   T    
C27   C35   S    
C58   C59   A    
N3    H41   S    
C74   H17   S    
C46   C51   S    
C27   H5    S    
C45   O2    A    
C41   H7    S    
C60   C61   A    
C94   O29   D    
C2    C89   A    
C35   C39   S    
C75   C76   A    
C5    C9    A    
C62   C63   A    
Cr5   O9    S    
C77   N5    S    
C85   O9    A    
C40   H8    S    
C3    N3    S    
C34   O26   A    
C31   C32   S    
C20   H4    S    
C7    C13   A    
C92   H27   S    
C62   C102  S    
C104  H51   S    
C31   C33   S    
Cr4   O14   S    
C75   H16   S    
C77   C79   A    
C69   C74   A    
C17   C23   S    
C56   O4    A    
Cr2   O20   S    
C43   C45   S    
C34   C69   S    
C88   O17   A    
C29   C86   S    
C104  H49   S    
Cr3   O23   S    
Cr6   O10   S    
C40   C41   S    
C55   C103  S    
C20   C22   S    
C49   C50   S    
C95   H36   S    
C47   H11   S    
C54   C101  S    
C55   C57   A    
C22   C24   S    
C23   O23   A    
C100  H44   S    
C42   C88   S    
C3    C4    A    
C41   C50   S    
Cr1   O24   S    
C97   H38   S    
C35   C37   S    
C87   O14   A    
C106  H55   S    
C9    C10   S    
C53   C56   S    
C16   C25   T    
C40   C48   S    
C83   C90   S    
N5    H53   S    
C54   C55   A    
C15   C24   S    
C102  O35   D    
C22   H3    S    
C107  O38   D    
C86   O6    A    
C7    H24   S    
C93   H31   S    
N4    H48   S    
C47   C48   S    
Cr2   O5    S    
Cr6   O19   S    
C4    C67   A    
C99   O33   D    
C33   N2    S    
C49   H10   S    
Cr4   O7    S    
C47   C49   S    
C73   C105  S    
C12   O22   A    
C62   C68   A    
C60   C64   A    
C64   C65   S    
C93   H30   S    
C2    C3    A    
C71   C72   A    
C65   C66   T    
C98   H39   S    
C85   O10   A    
C6    C13   A    
C34   O25   A    
C61   C68   A    
C86   O11   A    
C57   C58   A    
C37   H6    S    
C89   H25   S    
C28   C37   S    
C48   C50   S    
C1    C30   S    
C33   C35   S    
C12   O21   A    
C30   C39   T    
C18   C20   S    
C92   O28   D    
Cr4   O6    S    
C69   C70   A    
C19   C25   S    
C94   H32   S    
Cr3   O4    S    
C88   O16   A    
C101  O34   D    
C1    O20   A    
C10   C11   T    
C36   C94   S    
C79   C80   A    
N1    H28   S    
C48   C52   S    
C20   C21   S    
C36   C37   S    
C103  H47   S    
C21   C24   S    
C13   C85   S    
C27   C28   S    
Cr5   O8    S    
C68   C87   S    
C5    C96   S    
C14   C15   S    
C101  H45   S    
Cr1   O25   S    
C72   C82   S    
C18   C92   S    
C8    H23   S    
