data_mof_unit_39670.cif
_audit_creation_date              2012-12-11T14:41:05-0500
_audit_creation_method            fapswitch 2.2
_symmetry_space_group_name_H-M    P1
_symmetry_Int_Tables_number       1
_space_group_crystal_system       triclinic
_cell_length_a                    7.082288
_cell_length_b                    18.405826
_cell_length_c                    18.477699
_cell_angle_alpha                 89.999353
_cell_angle_beta                  89.998998
_cell_angle_gamma                 90.000839
_cell_volume                      2408.66711561

loop_
_atom_site_label
_atom_site_type_symbol
_atom_type_description
_atom_site_fract_x
_atom_site_fract_y
_atom_site_fract_z
_atom_type_partial_charge
O1    O     O_R   0.377350 0.828520 0.186660 -0.536824
O2    O     O_R   0.622650 0.171480 0.813340 -0.542144
O3    O     O_R   0.122650 0.171480 0.686660 -0.536866
O4    O     O_R   0.877350 0.828520 0.313340 -0.542143
O5    O     O_R   0.877350 0.671480 0.313340 -0.536876
O6    O     O_R   0.122650 0.328520 0.686660 -0.542134
O7    O     O_R   0.622650 0.328520 0.813340 -0.536889
O8    O     O_R   0.377350 0.671480 0.186660 -0.542112
O9    O     O_R   0.707090 0.671930 0.178410 -0.539289
O10   O     O_R   0.292910 0.328070 0.821590 -0.539518
O11   O     O_R   0.792910 0.328070 0.678410 -0.539280
O12   O     O_R   0.207090 0.671930 0.321590 -0.539524
O13   O     O_R   0.207090 0.828070 0.321590 -0.539285
O14   O     O_R   0.792910 0.171930 0.678410 -0.539524
O15   O     O_R   0.292910 0.171930 0.821590 -0.539278
O16   O     O_R   0.707090 0.828070 0.178410 -0.539541
C1    C     C_R   0.537413 0.648254 0.159871 0.692690
C2    C     C_R   0.461201 0.353028 0.838333 0.695464
C3    C     C_R   0.962584 0.351749 0.659874 0.692726
C4    C     C_R   0.038799 0.646970 0.338330 0.695474
C5    C     C_R   0.037415 0.851749 0.340127 0.692705
C6    C     C_R   0.961198 0.146968 0.661673 0.695478
C7    C     C_R   0.462580 0.148249 0.840127 0.692724
C8    C     C_R   0.538811 0.853040 0.161684 0.695509
O17   O     O_3   0.543850 0.750000 0.294270 -0.370907
O18   O     O_3   0.456150 0.250000 0.705730 -0.370889
O19   O     O_3   0.956150 0.250000 0.794270 -0.370904
O20   O     O_3   0.043850 0.750000 0.205730 -0.370883
V1    V     V_3+5 0.818700 0.750000 0.241790 1.392184
V2    V     V_3+5 0.181300 0.250000 0.758210 1.392209
V3    V     V_3+5 0.681300 0.250000 0.741790 1.392183
V4    V     V_3+5 0.318700 0.750000 0.258210 1.392246
C9    C     C_R   0.972663 0.414827 0.609178 -0.089572
C10   C     C_R   0.032955 0.584516 0.389344 -0.084899
C11   C     C_R   0.527326 0.585177 0.109176 -0.089568
C12   C     C_R   0.467045 0.415485 0.889346 -0.084920
C13   C     C_R   0.472651 0.085173 0.890831 -0.089583
C14   C     C_R   0.533002 0.915487 0.110664 -0.084851
C15   C     C_R   0.027327 0.914827 0.390825 -0.089553
C16   C     C_R   0.967035 0.084514 0.610659 -0.084885
C17   C     C_R   0.146345 0.464606 0.422479 -0.199800
C18   C     C_R   0.853304 0.533722 0.574454 -0.201272
C19   C     C_R   0.353565 0.535379 0.922495 -0.199797
C20   C     C_R   0.646721 0.466290 0.074447 -0.201275
C21   C     C_R   0.646204 0.035431 0.077555 -0.199806
C22   C     C_R   0.353395 0.966252 0.925549 -0.201282
C23   C     C_R   0.853701 0.964591 0.577536 -0.199800
C24   C     C_R   0.146631 0.033734 0.425540 -0.201281
C25   C     C_R   0.126631 0.519408 0.370282 0.006392
C26   C     C_R   0.871582 0.478822 0.626642 0.011943
C27   C     C_R   0.373315 0.480584 0.870294 0.006416
C28   C     C_R   0.628421 0.521185 0.126637 0.011946
C29   C     C_R   0.626531 0.980620 0.129747 0.006346
C30   C     C_R   0.371621 0.021163 0.873365 0.011959
C31   C     C_R   0.873403 0.019397 0.629729 0.006388
C32   C     C_R   0.128354 0.978833 0.373353 0.011953
C33   C     C_R   0.942829 0.590270 0.458020 0.105882
C34   C     C_R   0.076976 0.411804 0.542949 0.102016
C35   C     C_R   0.557227 0.409742 0.958012 0.105870
C36   C     C_R   0.422968 0.588192 0.042957 0.101993
C37   C     C_R   0.443071 0.909693 0.041958 0.105946
C38   C     C_R   0.576917 0.088209 0.957069 0.102040
C39   C     C_R   0.057115 0.090277 0.541975 0.105898
C40   C     C_R   0.923037 0.911797 0.457060 0.102021
C41   C     C_R   0.948314 0.530771 0.507408 0.077878
C42   C     C_R   0.058252 0.468813 0.491029 0.081310
C43   C     C_R   0.551697 0.469237 0.007405 0.077887
C44   C     C_R   0.441699 0.531183 0.991037 0.081288
C45   C     C_R   0.448400 0.969212 0.992592 0.077848
C46   C     C_R   0.558200 0.031202 0.008991 0.081335
C47   C     C_R   0.051651 0.030775 0.492591 0.077873
C48   C     C_R   0.941758 0.968806 0.508980 0.081313
H1    H     H_    0.227172 0.417265 0.407651 0.139941
H2    H     H_    0.765887 0.579855 0.587693 0.140235
H3    H     H_    0.272680 0.582707 0.907676 0.139935
H4    H     H_    0.734158 0.420162 0.087685 0.140234
H5    H     H_    0.726919 0.082796 0.092397 0.139943
H6    H     H_    0.266012 0.920105 0.912317 0.140233
H7    H     H_    0.772913 0.917241 0.592369 0.139940
H8    H     H_    0.234022 0.079874 0.412297 0.140228
C49   C     C_3   0.212456 0.350103 0.526791 -0.817522
H9    H     H_    0.240457 0.313744 0.572506 0.230917
H10   H     H_    0.157681 0.317243 0.481017 0.201076
H11   H     H_    0.353100 0.372590 0.512432 0.212026
C50   C     C_3   0.851365 0.660855 0.481028 -0.805229
H12   H     H_    0.881582 0.705602 0.443466 0.206499
H13   H     H_    0.695944 0.653912 0.484799 0.215234
H14   H     H_    0.908884 0.678474 0.534121 0.196861
C51   C     C_3   0.287427 0.649880 0.026811 -0.817487
H15   H     H_    0.259517 0.686280 0.072504 0.230965
H16   H     H_    0.342084 0.682714 0.980997 0.201083
H17   H     H_    0.146767 0.627371 0.012508 0.212037
C52   C     C_3   0.648831 0.339179 0.981003 -0.805232
H18   H     H_    0.618766 0.294437 0.943420 0.206564
H19   H     H_    0.804234 0.346172 0.984791 0.215227
H20   H     H_    0.591310 0.321522 0.034084 0.196850
C53   C     C_3   0.712375 0.149917 0.973227 -0.817560
H21   H     H_    0.740489 0.186236 0.927491 0.230906
H22   H     H_    0.657519 0.182807 0.018964 0.201076
H23   H     H_    0.852990 0.127437 0.987637 0.212022
C54   C     C_3   0.352132 0.839028 0.018886 -0.805230
H24   H     H_    0.382955 0.794258 0.056360 0.206280
H25   H     H_    0.196640 0.845776 0.015205 0.215265
H26   H     H_    0.409617 0.821559 0.965738 0.196899
C55   C     C_3   0.787567 0.850093 0.473220 -0.817543
H27   H     H_    0.759524 0.813750 0.427496 0.230912
H28   H     H_    0.842374 0.817221 0.518980 0.201079
H29   H     H_    0.646934 0.872576 0.487599 0.212026
C56   C     C_3   0.148496 0.160876 0.518956 -0.805229
H30   H     H_    0.118187 0.205625 0.556504 0.206461
H31   H     H_    0.303928 0.153964 0.515197 0.215241
H32   H     H_    0.090983 0.178473 0.465855 0.196865
C57   C     C_3   0.792213 0.490779 0.702650 -0.313863
C58   C     C_3   0.812712 0.569486 0.731095 -0.326963
C59   C     C_3   0.807394 0.573794 0.813920 -0.786996
H33   H     H_    0.693861 0.539442 0.835925 0.250220
H34   H     H_    0.940033 0.554452 0.838575 0.225230
H35   H     H_    0.784280 0.630884 0.831193 0.212519
H36   H     H_    0.944382 0.594703 0.711907 0.214849
H37   H     H_    0.698927 0.604032 0.708863 0.188612
H38   H     H_    0.642511 0.474583 0.702406 0.172148
H39   H     H_    0.862463 0.454254 0.741911 0.173120
C60   C     C_3   0.204875 0.508029 0.293958 -0.313939
C61   C     C_3   0.186639 0.429468 0.265011 -0.327518
C62   C     C_3   0.193240 0.425856 0.182144 -0.782735
H40   H     H_    0.060069 0.444459 0.157360 0.224745
H41   H     H_    0.305454 0.461199 0.160605 0.250812
H42   H     H_    0.219265 0.369078 0.164460 0.211860
H43   H     H_    0.301359 0.395296 0.287150 0.188792
H44   H     H_    0.055363 0.403624 0.283852 0.214356
H45   H     H_    0.133239 0.544620 0.255210 0.170181
H46   H     H_    0.354208 0.525011 0.293623 0.172989
C63   C     C_3   0.707774 0.509222 0.202645 -0.313867
C64   C     C_3   0.687258 0.430514 0.231086 -0.326959
C65   C     C_3   0.692556 0.426200 0.313910 -0.787006
H47   H     H_    0.806095 0.460545 0.335920 0.250222
H48   H     H_    0.559917 0.445546 0.338564 0.225236
H49   H     H_    0.715648 0.369108 0.331182 0.212522
H50   H     H_    0.555588 0.405301 0.211894 0.214853
H51   H     H_    0.801043 0.395967 0.208855 0.188610
H52   H     H_    0.857477 0.525416 0.202403 0.172153
H53   H     H_    0.637520 0.545747 0.241907 0.173125
C66   C     C_3   0.295075 0.491967 0.793970 -0.313943
C67   C     C_3   0.313322 0.570530 0.765027 -0.327515
C68   C     C_3   0.306737 0.574148 0.682160 -0.782739
H54   H     H_    0.439908 0.555542 0.657377 0.224749
H55   H     H_    0.194522 0.538809 0.660618 0.250811
H56   H     H_    0.280726 0.630928 0.664478 0.211860
H57   H     H_    0.198601 0.604703 0.787166 0.188789
H58   H     H_    0.444596 0.596371 0.783871 0.214360
H59   H     H_    0.366714 0.455378 0.755220 0.170190
H60   H     H_    0.145740 0.474987 0.793636 0.172988
C69   C     C_3   0.292280 0.009200 0.797357 -0.313874
C70   C     C_3   0.312789 0.930493 0.768917 -0.326950
C71   C     C_3   0.307492 0.926182 0.686092 -0.787009
H61   H     H_    0.193952 0.960527 0.664083 0.250221
H62   H     H_    0.440133 0.945532 0.661441 0.225243
H63   H     H_    0.284403 0.869090 0.668820 0.212523
H64   H     H_    0.444458 0.905280 0.788109 0.214841
H65   H     H_    0.199000 0.895947 0.791149 0.188610
H66   H     H_    0.142581 0.025396 0.797595 0.172154
H67   H     H_    0.362544 0.045726 0.758097 0.173098
C72   C     C_3   0.704748 0.992000 0.206074 -0.313953
C73   C     C_3   0.686505 0.070561 0.235024 -0.327508
C74   C     C_3   0.693099 0.074169 0.317891 -0.782725
H68   H     H_    0.559921 0.055564 0.342672 0.224758
H69   H     H_    0.805316 0.038827 0.339429 0.250808
H70   H     H_    0.719119 0.130946 0.335577 0.211859
H71   H     H_    0.801226 0.104735 0.212885 0.188786
H72   H     H_    0.555230 0.096401 0.216182 0.214348
H73   H     H_    0.633116 0.955402 0.244818 0.170128
H74   H     H_    0.854083 0.975024 0.206411 0.172998
C75   C     C_3   0.207664 0.990802 0.297340 -0.313892
C76   C     C_3   0.187126 0.069511 0.268906 -0.326939
C77   C     C_3   0.192417 0.073833 0.186082 -0.787028
H75   H     H_    0.305967 0.039496 0.164067 0.250219
H76   H     H_    0.059777 0.054482 0.161432 0.225251
H77   H     H_    0.215492 0.130928 0.168816 0.212526
H78   H     H_    0.055452 0.094714 0.288104 0.214850
H79   H     H_    0.300904 0.104061 0.291138 0.188603
H80   H     H_    0.357366 0.974614 0.297571 0.172166
H81   H     H_    0.137400 0.954275 0.258082 0.173086
C78   C     C_3   0.795177 0.008017 0.706056 -0.313949
C79   C     C_3   0.813410 0.929455 0.735003 -0.327527
C80   C     C_3   0.806812 0.925842 0.817870 -0.782714
H82   H     H_    0.939983 0.944447 0.842653 0.224762
H83   H     H_    0.694594 0.961182 0.839409 0.250816
H84   H     H_    0.780794 0.869063 0.835554 0.211856
H85   H     H_    0.698687 0.895283 0.712865 0.188791
H86   H     H_    0.944683 0.903613 0.716161 0.214355
H87   H     H_    0.866823 0.044608 0.744800 0.170161
H88   H     H_    0.645845 0.024998 0.706394 0.172991

loop_
_geom_bond_atom_site_label_1
_geom_bond_atom_site_label_2
_ccdc_geom_bond_type
C13   C38   A    
C65   H49   S    
C9    C34   A    
C60   H46   S    
C71   H62   S    
O13   V4    S    
C73   H72   S    
C72   C73   S    
C23   H7    S    
O14   V3    S    
C12   C35   A    
C19   C27   A    
C78   H88   S    
C53   H23   S    
C30   C69   S    
C58   C59   S    
C78   H87   S    
C65   H47   S    
C77   H76   S    
O5    C4    A    
C75   C76   S    
C15   C40   A    
C55   H28   S    
O11   C3    A    
C63   H53   S    
C52   H18   S    
C16   C39   A    
C73   C74   S    
C56   H31   S    
C64   H51   S    
C80   H83   S    
C66   C67   S    
C25   C60   S    
C53   H21   S    
C35   C43   A    
C79   C80   S    
C38   C46   A    
C24   C32   A    
C20   H4    S    
C76   C77   S    
C22   C45   A    
C67   H58   S    
C68   H55   S    
C34   C42   A    
C57   H39   S    
C77   H75   S    
C19   C44   A    
C59   H34   S    
C18   C41   A    
C8    C14   S    
C51   H16   S    
C72   H73   S    
C58   H36   S    
O9    V1    S    
C14   C37   A    
C4    C10   S    
C59   H35   S    
O17   V4    S    
O15   C7    A    
C75   H80   S    
O18   V3    S    
O16   C8    A    
O12   V4    S    
O19   V2    S    
C19   H3    S    
C28   C63   S    
O12   C4    A    
C73   H71   S    
C74   H69   S    
C17   C25   A    
C49   H10   S    
C68   H54   S    
C77   H77   S    
O5    V1    S    
O2    C7    A    
C50   H13   S    
O17   V1    S    
C55   H29   S    
C18   H2    S    
O7    V3    S    
C17   H1    S    
O19   V3    S    
C43   C44   A    
O8    V4    S    
C54   H24   S    
C60   C61   S    
C53   H22   S    
C34   C49   S    
C64   H50   S    
C22   H6    S    
C29   C72   S    
C80   H84   S    
C9    C26   A    
C36   C51   S    
C60   H45   S    
C21   C29   A    
O1    V4    S    
C49   H9    S    
C69   H66   S    
C11   C36   A    
C39   C56   S    
O3    V2    S    
C37   C54   S    
C78   C79   S    
C70   H65   S    
C67   H57   S    
O6    C3    A    
C62   H42   S    
C38   C53   S    
O10   V2    S    
C15   C32   A    
C5    C15   S    
O20   V4    S    
O7    C2    A    
C6    C16   S    
C22   C30   A    
C70   C71   S    
C61   H44   S    
C51   H17   S    
C72   H74   S    
O14   C6    A    
C50   H12   S    
C64   C65   S    
C12   C27   A    
C18   C26   A    
C13   C30   A    
O9    C1    A    
C66   H60   S    
O6    V2    S    
C39   C47   A    
C75   H81   S    
O18   V2    S    
C52   H20   S    
C3    C9    S    
C63   C64   S    
C79   H86   S    
C56   H32   S    
C24   C47   A    
C76   H79   S    
C11   C28   A    
C68   H56   S    
O15   V2    S    
C23   C31   A    
C57   C58   S    
C54   H25   S    
C50   H14   S    
C37   C45   A    
C65   H48   S    
O20   V1    S    
C10   C25   A    
C40   C55   S    
C21   C46   A    
C79   H85   S    
O4    V1    S    
C33   C41   A    
C67   C68   S    
C20   C43   A    
C16   C31   A    
C17   C42   A    
C27   C66   S    
C74   H70   S    
C35   C52   S    
C55   H27   S    
C32   C75   S    
C63   H52   S    
O8    C1    A    
C69   H67   S    
C26   C57   S    
C24   H8    S    
O16   V1    S    
C47   C48   A    
C7    C13   S    
C56   H30   S    
O13   C5    A    
O4    C5    A    
C20   C28   A    
C80   H82   S    
C62   H40   S    
C14   C29   A    
O10   C2    A    
C10   C33   A    
C71   H63   S    
C66   H59   S    
C33   C50   S    
C61   H43   S    
C40   C48   A    
C45   C46   A    
C23   C48   A    
O11   V3    S    
C74   H68   S    
C70   H64   S    
C57   H38   S    
C36   C44   A    
O1    C8    A    
C52   H19   S    
C41   C42   A    
C71   H61   S    
C62   H41   S    
C31   C78   S    
C49   H11   S    
O2    V3    S    
O3    C6    A    
C21   H5    S    
C54   H26   S    
C1    C11   S    
C51   H15   S    
C2    C12   S    
C76   H78   S    
C58   H37   S    
C59   H33   S    
C61   C62   S    
C69   C70   S    
