data_mof_unit_49518.cif
_audit_creation_date              2013-03-05T16:48:14-0500
_audit_creation_method            fapswitch 2.2
_symmetry_space_group_name_H-M    P1
_symmetry_Int_Tables_number       1
_space_group_crystal_system       triclinic
_cell_length_a                    23.535829
_cell_length_b                    9.145523
_cell_length_c                    8.07346
_cell_angle_alpha                 89.999933
_cell_angle_beta                  90.000265
_cell_angle_gamma                 89.999822
_cell_volume                      1737.79180233

loop_
_atom_site_label
_atom_site_type_symbol
_atom_site_description
_atom_site_fract_x
_atom_site_fract_y
_atom_site_fract_z
_atom_type_partial_charge
O1    O     O_R   0.500000 0.285350 0.636850 -0.608804
O2    O     O_R   0.500000 0.714650 0.363150 -0.608800
O3    O     O_R   0.500000 0.714650 0.636850 -0.608777
O4    O     O_R   0.500000 0.285350 0.363150 -0.608773
C1    C     C_R   0.500000 0.217497 0.500000 0.933144
C2    C     C_R   0.500000 0.782503 0.500000 0.933147
O5    O     O_R   0.416160 0.500000 0.636910 -0.579415
O6    O     O_R   0.583840 0.500000 0.363090 -0.579461
O7    O     O_R   0.583840 0.500000 0.636910 -0.579462
O8    O     O_R   0.416160 0.500000 0.363090 -0.579424
C3    C     C_R   0.207994 0.499969 0.499963 0.116249
C4    C     C_R   0.792001 0.499957 0.499998 0.116210
C5    C     C_R   0.388961 0.500002 0.499999 0.961985
C6    C     C_R   0.611038 0.499997 0.500000 0.962094
Zn1   Zn    Zn3+2 0.500000 0.500000 0.682780 1.115271
Zn2   Zn    Zn3+2 0.500000 0.500000 0.317220 1.115272
H1    H     H_    0.214226 0.614843 0.268202 0.205566
H2    H     H_    0.785764 0.384827 0.268395 0.205618
H3    H     H_    0.214220 0.385107 0.731731 0.205562
H4    H     H_    0.785772 0.615086 0.731603 0.205616
C7    C     C_R   0.296437 0.567323 0.368993 0.346410
C8    C     C_R   0.703555 0.432492 0.369109 0.346320
C9    C     C_R   0.296434 0.432667 0.630982 0.346405
C10   C     C_R   0.703560 0.567454 0.630893 0.346322
C11   C     C_R   0.326751 0.500000 0.499994 -0.254361
C12   C     C_R   0.673245 0.499982 0.500000 -0.254271
C13   C     C_R   0.880936 0.630316 0.504419 0.611138
C14   C     C_R   0.119062 0.369605 0.504444 0.611153
C15   C     C_R   0.880937 0.369598 0.495549 0.611140
C16   C     C_R   0.119060 0.630322 0.495463 0.611149
N1    N     N_R   0.852659 0.499957 0.499990 -0.356733
N2    N     N_R   0.147337 0.499965 0.499954 -0.356751
C17   C     C_R   0.940425 0.367325 0.490219 -0.156505
C18   C     C_R   0.059572 0.632594 0.490161 -0.156513
C19   C     C_R   0.940424 0.632591 0.509726 -0.156504
C20   C     C_R   0.059574 0.367327 0.509751 -0.156516
C21   C     C_R   0.970113 0.499958 0.499968 -0.116242
C22   C     C_R   0.029885 0.499959 0.499960 -0.116247
C23   C     C_R   0.971040 0.236515 0.479626 0.420216
C24   C     C_R   0.028955 0.763402 0.479561 0.420201
C25   C     C_R   0.971039 0.763402 0.520302 0.420219
C26   C     C_R   0.028958 0.236516 0.520348 0.420187
C27   C     C_1   0.500000 0.064712 0.500000 -0.108799
C28   C     C_1   0.500000 0.935288 0.500000 -0.108799
C29   C     C_R   0.237470 0.564762 0.369230 -0.098442
C30   C     C_R   0.762523 0.435029 0.369350 -0.098418
C31   C     C_R   0.237466 0.435194 0.630713 -0.098457
C32   C     C_R   0.762528 0.564893 0.630649 -0.098414
N3    N     N_1   0.500000 0.500000 0.073640 0.026838
N4    N     N_1   0.500000 0.500000 0.926360 0.026836
O9    O     O_2   0.851494 0.756776 0.496427 -0.428642
O10   O     O_2   0.148509 0.243148 0.496514 -0.428621
O11   O     O_2   0.851494 0.243137 0.503553 -0.428637
O12   O     O_2   0.148504 0.756782 0.503390 -0.428623
Cl1   Cl    Cl    0.944708 0.099806 0.346172 -0.378456
Cl2   Cl    Cl    0.055281 0.900123 0.346111 -0.378437
Cl3   Cl    Cl    0.944714 0.900111 0.653769 -0.378455
Cl4   Cl    Cl    0.055293 0.099775 0.653759 -0.378430
Cl5   Cl    Cl    0.329532 0.662444 0.204972 -0.491718
Cl6   Cl    Cl    0.670450 0.337194 0.205239 -0.491819
Cl7   Cl    Cl    0.329526 0.337584 0.795033 -0.491731
Cl8   Cl    Cl    0.670462 0.662758 0.794769 -0.491809

loop_
_geom_bond_atom_site_label_1
_geom_bond_atom_site_label_2
_geom_bond_distance
_ccdc_geom_bond_type
O4    Zn2   1.997801 S    
O5    C5    1.277333 A    
O6    C6    1.277312 A    
O7    C6    1.277313 A    
O8    C5    1.277327 A    
C21   C22   1.406786 A    
O1    Zn1   1.997802 S    
O2    Zn2   1.997801 S    
C14   O10   1.349792 S    
C3    C31   1.395132 A    
C4    N1    1.427625 S    
C14   N2    1.365850 A    
C17   C21   1.402076 A    
C4    C32   1.395172 A    
O3    C2    1.267195 A    
C13   C19   1.400897 A    
C26   Cl4   1.763005 S    
O5    Zn1   2.007695 S    
C1    C27   1.397296 S    
C25   Cl3   1.763000 S    
O6    Zn2   2.007693 S    
O8    Zn2   2.007698 S    
C6    C12   1.464086 S    
C16   N2    1.365848 A    
C16   O12   1.349795 S    
C10   C12   1.416541 A    
C5    C11   1.464147 S    
H4    C32   1.083658 S    
C15   O11   1.349801 S    
C7    C29   1.388057 A    
O1    C1    1.267196 A    
H2    C30   1.083659 S    
C2    C28   1.397296 S    
C20   C22   1.402095 A    
C24   C25   1.402218 A    
C8    C30   1.388059 A    
C13   O9    1.349796 S    
C3    N2    1.427596 S    
C7    Cl5   1.765515 S    
C23   C26   1.402225 A    
H3    C31   1.083662 S    
C9    C11   1.416586 A    
C27   C28   1.183655 T    
C8    Cl6   1.765496 S    
C19   C25   1.399181 A    
C18   C24   1.399196 A    
C3    C29   1.395147 A    
C9    C31   1.388060 A    
C16   C18   1.400900 A    
C13   N1    1.365864 A    
C10   C32   1.388057 A    
C15   C17   1.400908 A    
C9    Cl7   1.765483 S    
O3    Zn1   1.997801 S    
Zn2   N3    1.966533 S    
C14   C20   1.400908 A    
C15   N1    1.365862 A    
N3    N4    1.189058 T    
C8    C12   1.416549 A    
Zn1   N4    1.966533 S    
C7    C11   1.416576 A    
C10   Cl8   1.765495 S    
C19   C21   1.402077 A    
O7    Zn1   2.007696 S    
C20   C26   1.399205 A    
C17   C23   1.399182 A    
C23   Cl1   1.763001 S    
O2    C2    1.267196 A    
H1    C29   1.083656 S    
O4    C1    1.267195 A    
C24   Cl2   1.763006 S    
C4    C30   1.395173 A    
C18   C22   1.402092 A    
