data_mof_unit_11395.cif
_audit_creation_date              2012-12-10T17:36:19-0500
_audit_creation_method            fapswitch 2.2
_symmetry_space_group_name_H-M    P1
_symmetry_Int_Tables_number       1
_space_group_crystal_system       triclinic
_cell_length_a                    12.354176
_cell_length_b                    13.179787
_cell_length_c                    15.874675
_cell_angle_alpha                 77.574241
_cell_angle_beta                  101.490189
_cell_angle_gamma                 116.638157
_cell_volume                      2240.64031932

loop_
_atom_site_label
_atom_site_type_symbol
_atom_type_description
_atom_site_fract_x
_atom_site_fract_y
_atom_site_fract_z
_atom_type_partial_charge
C1    C     C_R   0.854794 0.286661 0.505725 0.788768
C2    C     C_3   0.978083 0.383278 0.066319 -0.405607
C3    C     C_3   0.000140 0.503601 0.082374 0.150052
C4    C     C_3   0.125018 0.593221 0.051315 -0.011437
C5    C     C_3   0.125244 0.590993 0.953773 -0.070147
C6    C     C_1   0.999981 0.501553 0.175011 -0.042147
C7    C     C_1   0.999915 0.501194 0.824409 0.012626
C8    C     C_1   0.000077 0.500266 0.749078 -0.100855
C9    C     C_R   0.269701 0.025682 0.389983 0.165402
C10   C     C_R   0.227608 0.835182 0.469506 -0.073051
C11   C     C_R   0.816196 0.082370 0.548459 -0.164135
C12   C     C_R   0.999918 0.499842 0.659551 0.841911
C13   C     C_R   0.737912 0.966743 0.560718 -0.130629
C14   C     C_R   0.613811 0.930672 0.534093 -0.173013
C15   C     C_R   0.565598 0.010098 0.490723 0.095231
C16   C     C_R   0.648210 0.125934 0.468749 0.083182
C17   C     C_R   0.438309 0.977825 0.467149 0.033375
C18   C     C_R   0.396163 0.057437 0.413585 0.147453
C19   C     C_R   0.481227 0.166596 0.383360 -0.207779
C20   C     C_R   0.604770 0.199565 0.409320 -0.213903
C21   C     C_R   0.351636 0.868881 0.496723 -0.241011
C22   C     C_R   0.186393 0.914013 0.417843 -0.224888
C23   C     C_R   0.145079 0.713555 0.487405 0.811623
C24   C     C_R   0.772419 0.163750 0.505381 -0.110408
C25   C     C_R   0.350530 0.330045 0.637239 -0.274027
C26   C     C_R   0.759876 0.645851 0.383525 0.075932
C27   C     C_R   0.663665 0.677861 0.357500 -0.232852
C28   C     C_R   0.560008 0.622955 0.400845 -0.169689
C29   C     C_R   0.551604 0.535019 0.471258 0.001655
C30   C     C_R   0.653087 0.505421 0.495667 0.278890
C31   C     C_R   0.447326 0.475685 0.518697 -0.031626
C32   C     C_R   0.448444 0.389180 0.588849 0.129174
C33   C     C_R   0.547632 0.361832 0.611425 -0.222413
C34   C     C_R   0.000014 0.500119 0.340425 0.809820
C35   C     C_R   0.647694 0.418845 0.566061 -0.158801
C36   C     C_R   0.341608 0.497806 0.500449 -0.002313
C37   C     C_R   0.250310 0.355330 0.617384 0.350401
C38   C     C_3   0.977728 0.383027 0.968774 -0.408232
C39   C     C_3   0.897085 0.535547 0.928329 0.019292
C40   C     C_3   0.893501 0.530765 0.026731 -0.063657
C41   C     C_1   0.000049 0.500547 0.250740 -0.149248
C42   C     C_3   0.999236 0.502980 0.916211 0.123122
Cu1   Cu    Cu3+1 0.098280 0.475420 0.519630 0.979878
Cu2   Cu    Cu3+1 0.901720 0.524580 0.480370 0.935180
H1    H     H_    0.889116 0.317661 0.087564 0.180883
H2    H     H_    0.050491 0.358938 0.961136 0.197408
H3    H     H_    0.049254 0.357324 0.105383 0.216943
H4    H     H_    0.140965 0.679886 0.060957 0.161669
H5    H     H_    0.089914 0.887608 0.396597 0.147334
H6    H     H_    0.453041 0.227832 0.339385 0.181703
H7    H     H_    0.378229 0.807709 0.541368 0.161981
H8    H     H_    0.911155 0.107983 0.573905 0.186281
H9    H     H_    0.558869 0.839557 0.545944 0.134460
H10   H     H_    0.773186 0.904742 0.593275 0.160743
H11   H     H_    0.889556 0.316363 0.943716 0.215959
H12   H     H_    0.665397 0.282438 0.379367 0.181986
H13   H     H_    0.548352 0.295637 0.665377 0.176004
H14   H     H_    0.352077 0.264145 0.691180 0.176774
H15   H     H_    0.333428 0.562042 0.447986 0.137628
H16   H     H_    0.839865 0.689018 0.349420 0.127057
H17   H     H_    0.488202 0.651005 0.378169 0.150461
H18   H     H_    0.669478 0.745467 0.303523 0.160026
H19   H     H_    0.719179 0.392186 0.589105 0.209013
H20   H     H_    0.916227 0.623635 0.893838 0.189042
H21   H     H_    0.806286 0.459146 0.045860 0.198410
H22   H     H_    0.196183 0.563996 0.947286 0.193486
N1    N     N_R   0.246300 0.438200 0.549400 -0.198219
N2    N     N_R   0.754300 0.561180 0.451130 -0.208877
O1    O     O_R   0.972520 0.318130 0.524690 -0.557124
O2    O     O_R   0.806530 0.359650 0.491530 -0.611697
O3    O     O_R   0.083030 0.479240 0.637150 -0.545036
O4    O     O_R   0.917040 0.520750 0.603990 -0.591184
O5    O     O_R   0.193470 0.640350 0.508470 -0.589096
O6    O     O_R   0.027480 0.681870 0.475310 -0.587398
O7    O     O_R   0.082960 0.479250 0.396010 -0.566942
O8    O     O_R   0.916970 0.520760 0.362850 -0.594811
N3    N     N_3   0.226516 0.105963 0.336240 -0.588971
H23   H     H_    0.243898 0.113233 0.272883 0.219154
H24   H     H_    0.131956 0.074160 0.334346 0.221864
I1    I     I_    0.111725 0.257705 0.700082 -0.345883
I2    I     I_    0.718714 0.430994 0.867508 -0.389577
N4    N     N_3   0.893149 0.636690 0.042116 -0.571442
H25   H     H_    0.974007 0.707596 0.027207 0.237668
H26   H     H_    0.884411 0.630799 0.107339 0.232837
I3    I     I_    0.181902 0.762177 0.881653 -0.371519
I4    I     I_    0.280194 0.570480 0.128665 -0.390097

loop_
_geom_bond_atom_site_label_1
_geom_bond_atom_site_label_2
_ccdc_geom_bond_type
Cu1   O5    S    
C5    C42   S    
C19   C20   A    
C20   H12   S    
C3    C6    S    
C36   N1    A    
C7    C8    T    
N3    H23   S    
C10   C22   A    
C39   H20   S    
C26   C27   A    
C30   C35   A    
C28   C29   A    
C38   C42   S    
C9    C22   A    
C4    I4    S    
C15   C16   A    
C11   C24   A    
C18   C19   A    
C7    C42   S    
Cu2   O8    S    
C11   H8    S    
C25   C37   A    
C38   H11   S    
C6    C41   T    
C33   H13   S    
Cu2   O2    S    
C16   C20   A    
C34   O7    A    
C5    I3    S    
C28   H17   S    
C36   H15   S    
C25   C32   A    
C12   O4    A    
C16   C24   A    
C13   C14   A    
C34   C41   S    
C23   O5    A    
C39   C42   S    
N3    H24   S    
C10   C21   A    
Cu1   O7    S    
C37   I1    S    
C40   N4    S    
C39   I2    S    
C39   C40   S    
C4    C5    S    
C1    O1    A    
Cu1   Cu2   S    
C29   C30   A    
C27   H18   S    
C2    C38   S    
C31   C32   A    
C8    C12   S    
C17   C18   A    
C9    N3    S    
Cu2   O6    S    
C22   H5    S    
Cu1   N1    S    
C12   O3    A    
C3    C40   S    
N4    H26   S    
C40   H21   S    
C2    H3    S    
Cu2   N2    S    
C25   H14   S    
C23   O6    A    
C3    C4    S    
C21   H7    S    
C13   H10   S    
C4    H4    S    
C15   C17   A    
Cu1   O3    S    
C31   C36   A    
C5    H22   S    
C10   C23   S    
C1    O2    A    
C26   N2    A    
C32   C33   A    
C2    C3    S    
C29   C31   A    
C11   C13   A    
C19   H6    S    
C37   N1    A    
C33   C35   A    
Cu2   O4    S    
C17   C21   A    
C38   H2    S    
C2    H1    S    
C9    C18   A    
C14   H9    S    
C1    C24   S    
Cu1   O1    S    
N4    H25   S    
C27   C28   A    
C14   C15   A    
C35   H19   S    
C26   H16   S    
C30   N2    A    
C34   O8    A    
