data_mof_unit_48715.cif
_audit_creation_date              2013-03-05T16:10:50-0500
_audit_creation_method            fapswitch 2.2
_symmetry_space_group_name_H-M    P1
_symmetry_Int_Tables_number       1
_space_group_crystal_system       triclinic
_cell_length_a                    10.894636
_cell_length_b                    9.568777
_cell_length_c                    15.859466
_cell_angle_alpha                 90.016673
_cell_angle_beta                  88.944643
_cell_angle_gamma                 87.739341
_cell_volume                      1651.75518829

loop_
_atom_site_label
_atom_site_type_symbol
_atom_site_description
_atom_site_fract_x
_atom_site_fract_y
_atom_site_fract_z
_atom_type_partial_charge
O1    O     O_R   0.317570 0.620260 0.500050 -0.581665
O2    O     O_R   0.317570 0.379740 0.500050 -0.558604
C1    C     C_R   0.260194 0.502294 0.506228 0.803582
O3    O     O_R   0.499890 0.620310 0.379470 -0.562376
O4    O     O_R   0.499890 0.379690 0.379470 -0.579168
C2    C     C_R   0.495974 0.499963 0.340935 0.786508
Cu1   Cu    Cu3+1 0.499860 0.642410 0.500040 0.923136
Cu2   Cu    Cu3+1 0.499860 0.357590 0.500040 0.934504
O5    O     O_R   0.682190 0.620260 0.500020 -0.598855
O6    O     O_R   0.682190 0.379740 0.500020 -0.567986
O7    O     O_R   0.499870 0.620210 0.620600 -0.585381
O8    O     O_R   0.499870 0.379790 0.620600 -0.588866
C3    C     C_R   0.739740 0.498956 0.493575 0.770006
C4    C     C_R   0.499718 0.500073 0.659265 0.820953
C5    C     C_3   0.425491 0.646251 0.052775 0.372219
C6    C     C_3   0.402583 0.366760 0.051278 0.419864
C7    C     C_3   0.397810 0.376477 0.947494 0.275890
C8    C     C_3   0.440454 0.653794 0.949852 0.308852
C9    C     C_1   0.498310 0.500274 0.748563 -0.174333
C10   C     C_3   0.478768 0.497231 0.083925 -0.209140
C11   C     C_3   0.490294 0.497819 0.916762 -0.091790
C12   C     C_3   0.626944 0.463919 0.952185 0.464987
C13   C     C_3   0.613952 0.471378 0.051011 -0.531485
C14   C     C_1   0.496611 0.499626 0.824196 0.137288
C15   C     C_1   0.485812 0.498036 0.176409 0.214371
C16   C     C_1   0.491210 0.499317 0.251694 -0.106980
H1    H     H_    0.678960 0.542481 0.078970 0.223459
H2    H     H_    0.652332 0.375014 0.081000 0.213533
C17   C     C_3   0.057981 0.642354 0.542634 0.097021
C18   C     C_3   0.068788 0.382134 0.558537 0.073248
H3    H     H_    0.072658 0.636580 0.612007 0.111967
H4    H     H_    0.093242 0.402154 0.625348 0.154193
C19   C     C_3   0.917734 0.641481 0.531799 -0.394863
C20   C     C_3   0.927085 0.385288 0.553040 -0.468026
H5    H     H_    0.872379 0.656454 0.594947 0.143018
H6    H     H_    0.887236 0.404694 0.617413 0.148697
H7    H     H_    0.883665 0.731345 0.493990 0.195497
H8    H     H_    0.894005 0.282399 0.535092 0.204481
H9    H     H_    0.131668 0.560940 0.371383 0.158194
H10   H     H_    0.129527 0.384216 0.389732 0.176869
C21   C     C_3   0.085389 0.484224 0.411790 -0.366477
C22   C     C_3   0.121864 0.504960 0.504294 -0.040597
C23   C     C_3   0.878677 0.501158 0.492009 0.008021
C24   C     C_3   0.942139 0.486653 0.399613 0.489387
C25   C     C_3   0.625051 0.074365 0.481307 0.243109
C26   C     C_3   0.619083 0.908826 0.472239 0.274612
H11   H     H_    0.684461 0.093415 0.536578 0.088074
H12   H     H_    0.689227 0.868078 0.517189 0.058289
H13   H     H_    0.528522 0.123858 0.635277 0.151369
H14   H     H_    0.548738 0.882987 0.631479 0.148822
C27   C     C_3   0.466660 0.084908 0.586279 -0.273685
C28   C     C_3   0.475281 0.918235 0.587560 -0.304919
C29   C     C_3   0.409940 0.087123 0.442711 -0.226761
C30   C     C_3   0.403755 0.922181 0.447795 -0.202493
N1    N     N_3   0.500250 0.143650 0.501830 -0.158936
N2    N     N_3   0.500250 0.856350 0.501830 -0.145205
H15   H     H_    0.317076 0.132596 0.457589 0.186671
H16   H     H_    0.314245 0.899655 0.475378 0.153298
H17   H     H_    0.428861 0.123174 0.377771 0.169262
H18   H     H_    0.402692 0.873047 0.384733 0.191947
H19   H     H_    0.372835 0.123108 0.605555 0.193960
H20   H     H_    0.388287 0.878467 0.614378 0.174715
N3    N     N_R   0.322783 0.704247 0.912096 0.171222
O9    O     O_R   0.289527 0.662762 0.838190 -0.324153
O10   O     O_R   0.274638 0.823742 0.938081 -0.329513
N4    N     N_R   0.274384 0.409812 0.910560 0.156226
O11   O     O_R   0.174155 0.433742 0.954379 -0.249736
O12   O     O_R   0.260880 0.391513 0.829815 -0.372655
N5    N     N_2   0.906421 0.605581 0.344490 -0.465226
H21   H     H_    0.977321 0.650684 0.311984 0.274386
C31   C     C_3   0.804251 0.594062 0.287746 -0.709976
H22   H     H_    0.786461 0.695387 0.255647 0.255094
H23   H     H_    0.721585 0.565308 0.323288 0.224729
H24   H     H_    0.825187 0.516942 0.236925 0.251290
N6    N     N_2   0.908971 0.356713 0.359250 -0.463583
H25   H     H_    0.815530 0.346480 0.355398 0.278794
C32   C     C_3   0.975085 0.310235 0.282812 -0.629066
H26   H     H_    0.910404 0.266996 0.237098 0.227991
H27   H     H_    0.043759 0.226050 0.298724 0.239204
H28   H     H_    0.022603 0.397212 0.251362 0.283536
N7    N     N_2   0.690118 0.135786 0.410718 -0.388875
H29   H     H_    0.641488 0.160575 0.357466 0.275246
C33   C     C_3   0.816737 0.082881 0.397102 -0.730298
H30   H     H_    0.880583 0.144120 0.432779 0.249987
H31   H     H_    0.841370 0.082808 0.329014 0.249253
H32   H     H_    0.835396 0.977095 0.422036 0.204394
N8    N     N_2   0.654964 0.848057 0.389884 -0.413489
H33   H     H_    0.736728 0.791449 0.388958 0.267191
C34   C     C_3   0.614254 0.894181 0.307246 -0.525425
H34   H     H_    0.693331 0.931548 0.269707 0.227884
H35   H     H_    0.543573 0.978429 0.309208 0.217686
H36   H     H_    0.576742 0.804791 0.273086 0.263113
N9    N     N_R   0.296626 0.663747 0.086521 0.175044
O13   O     O_R   0.199575 0.642134 0.043039 -0.229054
O14   O     O_R   0.278521 0.697623 0.165574 -0.307311
N10   N     N_R   0.277204 0.360791 0.089445 0.181807
O15   O     O_R   0.250361 0.419961 0.161629 -0.329556
O16   O     O_R   0.211451 0.255189 0.069696 -0.295905
N11   N     N_R   0.467577 0.236631 0.082896 0.131804
O17   O     O_R   0.446420 0.196255 0.160095 -0.313020
O18   O     O_R   0.553435 0.167448 0.040554 -0.336588
N12   N     N_R   0.492168 0.762700 0.092394 0.108114
O19   O     O_R   0.432776 0.880610 0.109289 -0.255664
O20   O     O_R   0.611162 0.762657 0.096266 -0.416687
N13   N     N_2   0.437615 0.240891 0.909840 -0.399379
H37   H     H_    0.465068 0.246892 0.847604 0.255697
C35   C     C_3   0.357458 0.123488 0.918845 -0.383005
H38   H     H_    0.348180 0.089541 0.985138 0.297835
H39   H     H_    0.397558 0.033787 0.882230 0.191872
H40   H     H_    0.265008 0.147860 0.893338 0.244152
N14   N     N_2   0.529348 0.762009 0.926902 -0.386746
H41   H     H_    0.512270 0.854986 0.958363 0.321919
C36   C     C_3   0.553856 0.798744 0.839095 -0.647822
H42   H     H_    0.602042 0.898955 0.836254 0.200996
H43   H     H_    0.468116 0.813473 0.803094 0.249566
H44   H     H_    0.616835 0.721391 0.807636 0.243150
N15   N     N_2   0.713571 0.570929 0.925162 -0.406288
H45   H     H_    0.733252 0.649064 0.966991 0.310538
C37   C     C_3   0.808915 0.547254 0.861308 -0.606147
H46   H     H_    0.855298 0.646662 0.848709 0.234103
H47   H     H_    0.769250 0.514950 0.800882 0.203253
H48   H     H_    0.879485 0.470017 0.883931 0.267849
N16   N     N_2   0.679491 0.321793 0.932259 -0.341992
H49   H     H_    0.747977 0.288224 0.972523 0.285934
C38   C     C_3   0.705398 0.261863 0.849104 -0.656695
H50   H     H_    0.678612 0.151179 0.849372 0.237165
H51   H     H_    0.805491 0.260928 0.834490 0.217687
H52   H     H_    0.657372 0.315523 0.797737 0.199491
N17   N     N_2   0.106677 0.775850 0.517222 -0.415307
H53   H     H_    0.175904 0.810361 0.554176 0.248577
C39   C     C_3   0.099558 0.830654 0.432082 -0.658629
H54   H     H_    0.113131 0.944939 0.433514 0.204080
H55   H     H_    0.008773 0.818474 0.404727 0.231925
H56   H     H_    0.172547 0.781703 0.391085 0.240936
N18   N     N_2   0.119240 0.243963 0.534911 -0.405576
H57   H     H_    0.093288 0.208153 0.476849 0.259583
C40   C     C_3   0.113374 0.138050 0.599891 -0.704134
H58   H     H_    0.168485 0.044325 0.579377 0.212833
H59   H     H_    0.016938 0.108420 0.611281 0.230755
H60   H     H_    0.152606 0.175715 0.659539 0.248329

loop_
_geom_bond_atom_site_label_1
_geom_bond_atom_site_label_2
_geom_bond_distance
_ccdc_geom_bond_type
C12   N15   1.477990 S    
N4    O12   1.304230 A    
N8    H33   1.023994 S    
N3    O10   1.302619 A    
C1    C22   1.507136 S    
N9    O13   1.296263 A    
C17   C22   1.579329 S    
C5    C8    1.639336 S    
C8    C11   1.650118 S    
N16   H49   1.032683 S    
C21   C22   1.541785 S    
N14   H41   1.028755 S    
C27   H19   1.109453 S    
N6    H25   1.029468 S    
C39   H56   1.107185 S    
C25   N7    1.450947 S    
N7    H29   1.028057 S    
C29   H17   1.104626 S    
N18   H57   1.030690 S    
H9    C21   1.105125 S    
C30   H18   1.105453 S    
C29   C30   1.584397 S    
Cu1   O7    1.923844 S    
C40   H59   1.110584 S    
C7    N4    1.499429 S    
N17   H53   1.028191 S    
N15   C37   1.448577 S    
O4    C2    1.302811 A    
O7    C4    1.303091 A    
C8    N3    1.488191 S    
C32   H28   1.110931 S    
C10   C15   1.470191 S    
C17   C19   1.541067 S    
N18   C40   1.447930 S    
N5    C31   1.451742 S    
O5    C3    1.300386 A    
C19   H5    1.115256 S    
C17   N17   1.456542 S    
N11   O17   1.303188 A    
C6    C7    1.650273 S    
H13   C27   1.111718 S    
N10   O16   1.302892 A    
C38   H52   1.093545 S    
H14   C28   1.112989 S    
C35   H38   1.104534 S    
C13   H1    1.100244 S    
C34   H35   1.092679 S    
C20   H6    1.114643 S    
Cu2   O8    1.923722 S    
C36   H44   1.102124 S    
C25   H11   1.118324 S    
N4    O11   1.296150 A    
C40   H58   1.104898 S    
N9    O14   1.304394 A    
C20   H8    1.100825 S    
C11   C12   1.621741 S    
C35   H39   1.107050 S    
N12   O19   1.303565 A    
Cu1   N2    2.047506 S    
O3    Cu1   1.923763 S    
Cu2   N1    2.047187 S    
N7    C33   1.462774 S    
C30   N2    1.489177 S    
C29   N1    1.488410 S    
C5    C10   1.599984 S    
C40   H60   1.111000 S    
C26   H12   1.113983 S    
C6    N10   1.487012 S    
C18   C20   1.546979 S    
C27   C28   1.594076 S    
C19   C23   1.560978 S    
Cu1   Cu2   2.725378 S    
C8    N14   1.486261 S    
O3    C2    1.306085 A    
C31   H23   1.097935 S    
C29   H15   1.106796 S    
C15   C16   1.196598 T    
C32   H26   1.111314 S    
C19   H7    1.104561 S    
O1    C1    1.314529 A    
C24   N6    1.459393 S    
C23   C24   1.612311 S    
C7    N13   1.474293 S    
O4    Cu2   1.923889 S    
N13   C35   1.455312 S    
C33   H30   1.092617 S    
C10   C13   1.563856 S    
C6    C10   1.616427 S    
N10   O15   1.300343 A    
C32   H27   1.109895 S    
C24   N5    1.479487 S    
N14   C36   1.458802 S    
C13   H2    1.108347 S    
C34   H36   1.107971 S    
N12   O20   1.298963 A    
N6    C32   1.458919 S    
C37   H47   1.107381 S    
H10   C21   1.107557 S    
N11   O18   1.300729 A    
O8    C4    1.303892 A    
N8    C34   1.454466 S    
C38   H50   1.109616 S    
C35   H40   1.108618 S    
C26   N8    1.469583 S    
C39   H54   1.109569 S    
C3    C23   1.514390 S    
C12   N16   1.486196 S    
C36   H42   1.111747 S    
C30   H16   1.090743 S    
C37   H48   1.109755 S    
Cu1   O5    1.989358 S    
C33   H31   1.107886 S    
O1    Cu1   2.005555 S    
C4    C9    1.416022 S    
O2    Cu2   1.988928 S    
C20   C23   1.554859 S    
C39   H55   1.097688 S    
O6    C3    1.326280 A    
C5    N9    1.496405 S    
C31   H24   1.107162 S    
C37   H46   1.111029 S    
C6    N11   1.499059 S    
N13   H37   1.028351 S    
C9    C14   1.199322 T    
C31   H22   1.107189 S    
C17   H3    1.115757 S    
C28   H20   1.112509 S    
N15   H45   1.030853 S    
C18   H4    1.115670 S    
C2    C16   1.417234 S    
C21   C24   1.575348 S    
O2    C1    1.309732 A    
C27   N1    1.497415 S    
C5    N12   1.498117 S    
N5    H21   1.029778 S    
C7    C11   1.635678 S    
N16   C38   1.456288 S    
N3    O9    1.299775 A    
C25   C26   1.594459 S    
C33   H32   1.099675 S    
C25   N1    1.518752 S    
Cu2   O6    2.005984 S    
C18   N18   1.457849 S    
C11   C14   1.468527 S    
C26   N2    1.475640 S    
C38   H51   1.110346 S    
C12   C13   1.572458 S    
C18   C22   1.578486 S    
C36   H43   1.108019 S    
C34   H34   1.109071 S    
C28   N2    1.498824 S    
N17   C39   1.450974 S    
