data_mof_unit_26174.cif
_audit_creation_date              2012-12-11T14:08:21-0500
_audit_creation_method            fapswitch 2.2
_symmetry_space_group_name_H-M    P1
_symmetry_Int_Tables_number       1
_space_group_crystal_system       triclinic
_cell_length_a                    28.197804
_cell_length_b                    7.183323
_cell_length_c                    17.286675
_cell_angle_alpha                 90.085846
_cell_angle_beta                  101.84191
_cell_angle_gamma                 89.988661
_cell_volume                      3426.95998205

loop_
_atom_site_label
_atom_site_type_symbol
_atom_type_description
_atom_site_fract_x
_atom_site_fract_y
_atom_site_fract_z
_atom_type_partial_charge
O1    O     O_R   0.000700 0.436510 0.857920 -0.536415
O2    O     O_R   0.999300 0.563490 0.142080 -0.530089
O3    O     O_R   0.999300 0.936510 0.642080 -0.533418
O4    O     O_R   0.000700 0.063490 0.357920 -0.531155
O5    O     O_R   0.930080 0.766380 0.721890 -0.541041
O6    O     O_R   0.069920 0.233620 0.278110 -0.535280
O7    O     O_R   0.069920 0.266380 0.778110 -0.540068
O8    O     O_R   0.930080 0.733620 0.221890 -0.536219
C1    C     C_R   0.910567 0.597623 0.708800 0.718624
C2    C     C_R   0.089434 0.402381 0.291200 0.703147
C3    C     C_R   0.089446 0.097629 0.791012 0.696437
C4    C     C_R   0.910563 0.902340 0.208809 0.699556
O9    O     O_R   0.996180 0.766230 0.862310 -0.514729
O10   O     O_R   0.003820 0.233770 0.137690 -0.520707
O11   O     O_R   0.003820 0.266230 0.637690 -0.506935
O12   O     O_R   0.996180 0.733770 0.362310 -0.524164
O13   O     O_R   0.065870 0.936460 0.783500 -0.540611
O14   O     O_R   0.934130 0.063540 0.216500 -0.548249
O15   O     O_R   0.934130 0.436460 0.716500 -0.546345
O16   O     O_R   0.065870 0.563540 0.283500 -0.547180
C5    C     C_R   0.997961 0.595873 0.894177 0.737834
C6    C     C_R   0.002024 0.404171 0.105820 0.734378
C7    C     C_R   0.002397 0.095632 0.605999 0.691524
C8    C     C_R   0.998023 0.904302 0.394153 0.748450
O17   O     O_3   0.022790 0.603020 0.723980 -0.371023
O18   O     O_3   0.977210 0.396980 0.276020 -0.377550
O19   O     O_3   0.977210 0.103020 0.776020 -0.377901
O20   O     O_3   0.022790 0.896980 0.223980 -0.374451
V1    V     V_3+5 0.995770 0.877900 0.754830 1.529438
V2    V     V_3+5 0.004230 0.122100 0.245170 1.521109
V3    V     V_3+5 0.004230 0.377900 0.745170 1.530632
V4    V     V_3+5 0.995770 0.622100 0.254830 1.520102
C9    C     C_2   0.010089 0.074377 0.523792 -0.248116
C10   C     C_2   0.990911 0.925334 0.476659 -0.321284
C11   C     C_2   0.990541 0.574909 0.976539 -0.232433
C12   C     C_2   0.009504 0.425326 0.023443 -0.246895
C13   C     C_R   0.681490 0.870255 0.034038 0.583810
C14   C     C_R   0.318553 0.129930 0.965234 0.582295
C15   C     C_R   0.315730 0.522838 0.467710 0.582743
C16   C     C_R   0.684285 0.475730 0.532506 0.583603
O21   O     O_2   0.709097 0.788575 0.988463 -0.508849
O22   O     O_2   0.290954 0.211830 0.010766 -0.510570
O23   O     O_2   0.285612 0.585123 0.513457 -0.510844
O24   O     O_2   0.714409 0.411990 0.487052 -0.510012
N1    N     N_R   0.702860 0.942907 0.106133 -0.558753
N2    N     N_R   0.297175 0.057049 0.893189 -0.559038
N3    N     N_R   0.296980 0.443990 0.395670 -0.558705
N4    N     N_R   0.703028 0.556044 0.604242 -0.558817
C17   C     C_R   0.675475 0.028037 0.152920 0.577437
C18   C     C_R   0.324548 0.971704 0.846442 0.577877
C19   C     C_R   0.326986 0.377513 0.348856 0.578323
C20   C     C_R   0.673015 0.623984 0.650745 0.577565
C21   C     C_R   0.782854 0.095121 0.143720 -0.078187
C22   C     C_R   0.217169 0.904830 0.855896 -0.079957
C23   C     C_R   0.217211 0.595821 0.354242 -0.079233
C24   C     C_R   0.782755 0.404230 0.646282 -0.079751
C25   C     C_R   0.833228 0.085454 0.168684 -0.192750
C26   C     C_R   0.166788 0.914496 0.831047 -0.176257
C27   C     C_R   0.166872 0.585887 0.328880 -0.190057
C28   C     C_R   0.833093 0.414154 0.671665 -0.188852
C29   C     C_R   0.828501 0.748938 0.171867 -0.155881
C30   C     C_R   0.171542 0.250961 0.827361 -0.191524
C31   C     C_R   0.171326 0.249108 0.331175 -0.156865
C32   C     C_R   0.828722 0.750922 0.668205 -0.157373
C33   C     C_R   0.778068 0.759035 0.146895 -0.080800
C34   C     C_R   0.221978 0.240871 0.852248 -0.074997
C35   C     C_R   0.221726 0.259472 0.356642 -0.080224
C36   C     C_R   0.778324 0.740566 0.642710 -0.078498
C37   C     C_R   0.754858 0.932173 0.132561 0.370650
C38   C     C_R   0.245177 0.067760 0.866782 0.371882
C39   C     C_R   0.245042 0.432889 0.368534 0.371411
C40   C     C_R   0.754966 0.567155 0.631396 0.372215
C41   C     C_R   0.602159 0.970196 0.053516 -0.043969
C42   C     C_R   0.397875 0.029797 0.945790 -0.044074
C43   C     C_R   0.397737 0.470970 0.447555 -0.043694
C44   C     C_R   0.602271 0.529074 0.552344 -0.043597
C45   C     C_R   0.630923 0.882208 0.006610 -0.034459
C46   C     C_R   0.369120 0.117984 0.992656 -0.033507
C47   C     C_R   0.366254 0.538161 0.494744 -0.035166
C48   C     C_R   0.633762 0.460421 0.505466 -0.035612
C49   C     C_R   0.608771 0.809041 0.933181 -0.124378
C50   C     C_R   0.391281 0.191380 0.066036 -0.124367
C51   C     C_R   0.385732 0.618966 0.567892 -0.124615
C52   C     C_R   0.614292 0.378001 0.432655 -0.124734
C53   C     C_R   0.624829 0.043542 0.127461 -0.030860
C54   C     C_R   0.375196 0.956234 0.871890 -0.030966
C55   C     C_R   0.377736 0.389407 0.373954 -0.030287
C56   C     C_R   0.622265 0.612088 0.625640 -0.029894
C57   C     C_R   0.856834 0.912154 0.183081 -0.048229
C58   C     C_R   0.143191 0.087774 0.816485 -0.063663
C59   C     C_R   0.143146 0.412332 0.317074 -0.049681
C60   C     C_R   0.856858 0.587696 0.682909 -0.039345
H1    H     H_    0.845203 0.613037 0.182170 0.139002
H2    H     H_    0.154843 0.386842 0.816942 0.141792
H3    H     H_    0.154505 0.113039 0.323064 0.140350
H4    H     H_    0.845580 0.886973 0.675836 0.134886
H5    H     H_    0.756976 0.631915 0.138784 0.128388
H6    H     H_    0.243081 0.367971 0.860160 0.128943
H7    H     H_    0.242656 0.132355 0.367739 0.127668
H8    H     H_    0.757430 0.867671 0.631139 0.127167
H9    H     H_    0.629986 0.740633 0.895810 0.177994
H10   H     H_    0.370072 0.260003 0.103363 0.177880
H11   H     H_    0.362384 0.671516 0.605532 0.176607
H12   H     H_    0.637647 0.323859 0.395351 0.176653
C61   C     C_R   0.477516 0.925210 0.924518 0.038518
C62   C     C_R   0.522515 0.074714 0.074801 0.038486
C63   C     C_R   0.519771 0.584291 0.574435 0.038894
C64   C     C_R   0.480234 0.416401 0.425324 0.038852
C65   C     C_R   0.471310 0.089938 0.047733 0.037719
C66   C     C_R   0.528728 0.910157 0.951550 0.037711
C67   C     C_R   0.531514 0.430480 0.451702 0.036992
C68   C     C_R   0.468498 0.568941 0.548326 0.037008
C69   C     C_R   0.449130 0.014970 0.972788 0.062433
C70   C     C_R   0.550905 0.985036 0.026514 0.062540
C71   C     C_R   0.550957 0.514585 0.526038 0.062736
C72   C     C_R   0.449051 0.485469 0.473857 0.062700
C73   C     C_R   0.453359 0.853445 0.850434 -0.173381
C74   C     C_R   0.546662 0.146189 0.148945 -0.173381
C75   C     C_R   0.541279 0.667464 0.647671 -0.173500
C76   C     C_R   0.458715 0.335365 0.351637 -0.173169
C77   C     C_R   0.403420 0.868826 0.824913 -0.132265
C78   C     C_R   0.596598 0.130743 0.174480 -0.132213
C79   C     C_R   0.591311 0.680673 0.672525 -0.133249
C80   C     C_R   0.408682 0.322446 0.326725 -0.132947
O25   O     O_2   0.302921 0.902999 0.775226 -0.515708
O26   O     O_2   0.697089 0.096491 0.224189 -0.515895
O27   O     O_2   0.692143 0.700981 0.721523 -0.514858
O28   O     O_2   0.307847 0.301961 0.277788 -0.514493
C81   C     C_R   0.558910 0.822395 0.906155 -0.176560
C82   C     C_R   0.441140 0.177988 0.093068 -0.176565
C83   C     C_R   0.435610 0.634171 0.594216 -0.174267
C84   C     C_R   0.564413 0.363109 0.406263 -0.174309
H13   H     H_    0.146399 0.785706 0.823575 0.139759
H14   H     H_    0.853602 0.214268 0.176409 0.140133
H15   H     H_    0.853307 0.285328 0.682362 0.134247
H16   H     H_    0.146627 0.714719 0.318655 0.140296
H17   H     H_    0.234464 0.770181 0.867229 0.126156
H18   H     H_    0.765553 0.229799 0.132541 0.127326
H19   H     H_    0.765283 0.269319 0.638180 0.125254
H20   H     H_    0.234652 0.730744 0.362790 0.125885
H21   H     H_    0.386977 0.811102 0.767742 0.160715
H22   H     H_    0.613033 0.188247 0.231698 0.160897
H23   H     H_    0.605651 0.745441 0.729147 0.161066
H24   H     H_    0.394334 0.259263 0.269769 0.160933
H25   H     H_    0.471800 0.783744 0.810045 0.109635
H26   H     H_    0.528213 0.215621 0.189393 0.109738
H27   H     H_    0.520621 0.724824 0.687843 0.110131
H28   H     H_    0.479362 0.280113 0.311017 0.109826
H29   H     H_    0.545397 0.761815 0.848954 0.114121
H30   H     H_    0.454663 0.238848 0.150211 0.114024
H31   H     H_    0.446955 0.698075 0.651320 0.113439
H32   H     H_    0.553080 0.297113 0.349597 0.113728
C85   C     C_2   0.047165 0.200949 0.501910 0.813576
O29   O     O_2   0.079640 0.137615 0.472373 -0.567288
O30   O     O_R   0.046012 0.391433 0.518022 -0.625864
H33   H     H_    0.073115 0.462448 0.500721 0.292851
C86   C     C_2   0.954542 0.796731 0.499562 0.842241
O31   O     O_2   0.959690 0.628742 0.494660 -0.503941
O32   O     O_R   0.913690 0.864489 0.524710 -0.647787
H34   H     H_    0.910646 0.004883 0.521127 0.249483
C87   C     C_2   0.953911 0.702986 0.998841 0.787575
O33   O     O_2   0.920651 0.640588 0.026640 -0.568026
O34   O     O_R   0.956572 0.894171 0.985407 -0.626678
H35   H     H_    0.929703 0.966462 0.002877 0.291485
C88   C     C_2   0.046677 0.299740 0.001273 0.795526
O35   O     O_2   0.045575 0.132594 0.014033 -0.528647
O36   O     O_R   0.084039 0.374112 0.968686 -0.664229
H36   H     H_    0.107558 0.275544 0.957767 0.290359

loop_
_geom_bond_atom_site_label_1
_geom_bond_atom_site_label_2
_ccdc_geom_bond_type
O17   V3    S    
C61   C66   A    
O1    C5    A    
C88   O35   D    
C23   C27   A    
O19   V1    S    
O13   V1    S    
C63   C68   A    
C64   C76   A    
O3    C7    A    
O34   H35   S    
C64   C72   A    
C48   C52   A    
C21   C37   A    
C87   O33   D    
C49   H9    S    
C33   C37   A    
O7    C3    A    
C17   O26   S    
C11   C87   S    
C51   H11   S    
C62   C70   A    
C19   O28   S    
C32   C36   A    
C73   H25   S    
O10   V2    S    
C14   O22   S    
N4    C20   A    
O16   V4    S    
C55   C80   A    
O4    C8    A    
C9    C85   S    
C22   H17   S    
C75   H27   S    
C31   H3    S    
C27   H16   S    
O1    V3    S    
C44   C71   A    
C66   C81   A    
O2    V4    S    
C74   C78   A    
O3    V1    S    
C73   C77   A    
C83   H31   S    
C1    O15   A    
C86   O31   D    
C82   H30   S    
C11   C12   D    
C2    O16   A    
C24   C40   A    
O2    C6    A    
C16   C48   A    
O14   V2    S    
N1    C17   A    
C50   C82   A    
C44   C56   A    
C65   C69   A    
O11   C7    A    
O15   V3    S    
O12   C8    A    
C62   C74   A    
C61   C73   A    
N4    C40   S    
C56   C79   A    
C1    C60   S    
C63   C75   A    
C87   O34   S    
C20   O27   S    
C29   C57   A    
O5    V1    S    
C28   C60   A    
C26   H13   S    
C31   C35   A    
O30   H33   S    
O7    V3    S    
C30   C34   A    
N1    C37   S    
C21   H18   S    
O8    V4    S    
C17   C53   A    
C4    C57   S    
C20   C56   A    
C32   H4    S    
C19   C55   A    
O36   H36   S    
C24   H19   S    
C21   C25   A    
O18   V4    S    
C74   H26   S    
N3    C19   A    
C14   C46   A    
C7    C9    S    
C42   C69   A    
C13   C45   A    
C52   C84   A    
C8    C10   S    
C41   C70   A    
C24   C28   A    
O9    V1    S    
C36   C40   A    
C15   C47   A    
C86   O32   S    
C18   C54   A    
C36   H8    S    
O5    C1    A    
C77   H21   S    
C46   C50   A    
C49   C81   A    
O32   H34   S    
C22   C38   A    
C45   C49   A    
O8    C4    A    
N3    C39   S    
C54   C77   A    
C79   H23   S    
C9    C10   D    
C50   H10   S    
O9    C5    A    
C53   C78   A    
C18   O25   S    
C27   C59   A    
C42   C54   A    
C26   C58   A    
C28   H15   S    
C41   C53   A    
C25   C57   A    
C43   C55   A    
O6    V2    S    
C2    C59   S    
C76   H28   S    
C75   C79   A    
C30   H2    S    
C52   H12   S    
C25   H14   S    
C85   O30   S    
C78   H22   S    
C13   N1    A    
C68   C72   A    
N2    C38   S    
C15   N3    A    
C22   C26   A    
C61   C69   A    
C16   N4    A    
C66   C70   A    
C3    O13   A    
C44   C48   A    
O6    C2    A    
C15   O23   S    
O11   V3    S    
C5    C11   S    
C35   H7    S    
O12   V4    S    
C6    C12   S    
N2    C18   A    
C64   C67   A    
C34   H6    S    
O20   V2    S    
C51   C83   A    
C85   O29   D    
C33   H5    S    
C47   C51   A    
C3    C58   S    
O10   C6    A    
C34   C38   A    
C84   H32   S    
C30   C58   A    
C12   C88   S    
C63   C71   A    
C35   C39   A    
C68   C83   A    
C13   O21   S    
O4    V2    S    
C14   N2    A    
C23   H20   S    
C10   C86   S    
C29   C33   A    
C67   C84   A    
C16   O24   S    
C31   C59   A    
C88   O36   S    
C42   C46   A    
C4    O14   A    
C65   C82   A    
C41   C45   A    
C80   H24   S    
C67   C71   A    
C43   C72   A    
C32   C60   A    
C81   H29   S    
C29   H1    S    
C43   C47   A    
C23   C39   A    
C76   C80   A    
C62   C65   A    
