data_mof_unit_31259.cif
_audit_creation_date              2012-10-26T21:23:33-0400
_audit_creation_method            fapswitch 2.2
_symmetry_space_group_name_H-M    P1
_symmetry_Int_Tables_number       1
_space_group_crystal_system       triclinic
_cell_length_a                    27.797922
_cell_length_b                    10.934091
_cell_length_c                    9.682335
_cell_angle_alpha                 89.905311
_cell_angle_beta                  89.771855
_cell_angle_gamma                 90.357532
_cell_volume                      2942.81262927

loop_
_atom_site_label
_atom_site_type_symbol
_atom_type_description
_atom_site_fract_x
_atom_site_fract_y
_atom_site_fract_z
_atom_type_partial_charge
C1    C     C_R   0.500537 0.265325 0.500128 0.562956
C2    C     C_R   0.974644 0.393296 0.461465 0.002289
C3    C     C_R   0.975011 0.601956 0.555392 0.024828
C4    C     C_R   0.407439 0.499502 0.500305 0.554858
C5    C     C_R   0.949503 0.498195 0.506060 0.009814
C6    C     C_R   0.948788 0.301923 0.390355 -0.095521
C7    C     C_R   0.898441 0.303177 0.381739 0.249496
C8    C     C_R   0.872775 0.400875 0.441369 0.058675
C9    C     C_R   0.898468 0.499755 0.500232 -0.074262
C10   C     C_R   0.873115 0.600710 0.553152 0.027620
C11   C     C_R   0.822711 0.600203 0.550216 0.399396
C12   C     C_R   0.278373 0.484598 0.379638 -0.056269
C13   C     C_R   0.821972 0.404330 0.442057 0.430474
C14   C     C_R   0.721261 0.508016 0.372606 -0.053150
C15   C     C_R   0.671095 0.506995 0.373328 -0.136656
C16   C     C_R   0.499403 0.734671 0.500029 0.556287
C17   C     C_R   0.671256 0.496806 0.623645 -0.138598
C18   C     C_R   0.721427 0.497583 0.622619 -0.051995
C19   C     C_R   0.746628 0.503112 0.497168 0.233235
C20   C     C_R   0.025207 0.385695 0.482178 0.036054
C21   C     C_R   0.050912 0.494447 0.514186 -0.006339
C22   C     C_R   0.026042 0.603555 0.548200 0.022429
C23   C     C_R   0.253508 0.494534 0.505103 0.243708
C24   C     C_R   0.050423 0.272544 0.476385 0.256144
C25   C     C_R   0.103107 0.710747 0.566248 -0.121136
C26   C     C_R   0.948432 0.701048 0.608891 -0.138673
C27   C     C_R   0.898477 0.699902 0.608347 -0.099529
C28   C     C_R   0.592574 0.500333 0.499733 0.550078
C29   C     C_R   0.053215 0.710889 0.573172 -0.147804
C30   C     C_2   0.500928 0.933239 0.386560 -0.149830
C31   C     C_2   0.496883 0.866575 0.502273 -0.108155
C32   C     C_2   0.498764 0.067142 0.386749 -0.152463
C33   C     C_2   0.502898 0.133394 0.502470 -0.105163
C34   C     C_R   0.101843 0.494020 0.513564 -0.041763
C35   C     C_2   0.471464 0.429512 0.921395 0.342313
C36   C     C_2   0.469671 0.436231 0.078466 -0.027082
C37   C     C_R   0.177485 0.387148 0.486234 0.401102
C38   C     C_R   0.178280 0.601176 0.533049 0.398035
C39   C     C_R   0.279042 0.505807 0.628739 -0.056708
C40   C     C_R   0.329177 0.507214 0.627192 -0.133022
C41   C     C_R   0.328570 0.486553 0.377683 -0.141705
C42   C     C_3   0.046052 0.054683 0.452404 -0.002044
C43   C     C_3   0.054573 0.047487 0.295716 -0.284474
C44   C     C_3   0.075576 0.923836 0.255524 -0.461308
C45   C     C_R   0.126883 0.384852 0.489532 -0.019506
C46   C     C_R   0.101299 0.274980 0.475877 -0.115965
C47   C     C_R   0.127852 0.602900 0.537604 0.034985
C48   C     C_R   0.354439 0.497933 0.501564 0.005392
C49   C     C_R   0.645598 0.501303 0.498922 0.005690
Cu1   Cu    Cu3+1 0.500010 0.500020 0.638630 1.017753
Cu2   Cu    Cu3+1 0.499990 0.499980 0.361370 0.945749
H1    H     H_    0.347056 0.478872 0.279440 0.128944
H2    H     H_    0.490594 0.907280 0.602418 0.107793
H3    H     H_    0.494394 0.111954 0.287389 0.153241
H4    H     H_    0.258750 0.476055 0.283715 0.127937
H5    H     H_    0.509169 0.092383 0.602472 0.112101
H6    H     H_    0.519928 0.564596 0.894361 0.162610
H7    H     H_    0.442064 0.383587 0.131770 0.129135
H8    H     H_    0.527471 0.543540 0.105383 0.197832
H9    H     H_    0.121703 0.191765 0.468033 0.156159
H10   H     H_    0.652345 0.510828 0.275611 0.134650
H11   H     H_    0.740489 0.512652 0.275233 0.137948
H12   H     H_    0.259949 0.513391 0.726025 0.128844
H13   H     H_    0.967540 0.231027 0.334973 0.147208
H14   H     H_    0.348091 0.515988 0.724279 0.147862
H15   H     H_    0.422689 0.301959 0.923192 0.290564
H16   H     H_    0.897403 0.148949 0.279977 0.318938
H17   H     H_    0.020556 0.979919 0.479618 0.158194
H18   H     H_    0.078776 0.035459 0.513886 0.128998
H19   H     H_    0.019845 0.060082 0.241200 0.165020
H20   H     H_    0.079701 0.120654 0.261003 0.165647
H21   H     H_    0.110592 0.909654 0.307924 0.169352
H22   H     H_    0.081490 0.920864 0.142103 0.161476
H23   H     H_    0.122227 0.795819 0.584505 0.158297
H24   H     H_    0.050426 0.848694 0.284790 0.157104
H25   H     H_    0.965210 0.779815 0.655544 0.113370
H26   H     H_    0.652631 0.492288 0.721980 0.134469
H27   H     H_    0.879771 0.777873 0.651141 0.173965
H28   H     H_    0.740791 0.493273 0.719312 0.138079
H29   H     H_    0.036894 0.797651 0.594979 0.094445
H30   H     H_    0.505284 0.888808 0.287053 0.154499
N1    N     N_R   0.201952 0.494387 0.507155 -0.395517
N2    N     N_R   0.798285 0.502644 0.496310 -0.415515
N3    N     N_2   0.499480 0.498660 0.846910 -0.297152
N4    N     N_2   0.499460 0.498630 0.153040 -0.367424
O1    O     O_R   0.500010 0.321960 0.617040 -0.439689
O2    O     O_R   0.569740 0.500000 0.617090 -0.506698
O3    O     O_R   0.569730 0.499960 0.382940 -0.501357
O4    O     O_2   0.202080 0.283041 0.463324 -0.493819
O5    O     O_3   0.441644 0.348285 0.853532 -0.646437
O6    O     O_3   0.874133 0.210584 0.313669 -0.623468
O7    O     O_3   0.023478 0.164759 0.492503 -0.579946
O8    O     O_2   0.796224 0.309743 0.391140 -0.404726
O9    O     O_2   0.203511 0.705350 0.553881 -0.495170
O10   O     O_2   0.798210 0.696848 0.600140 -0.483218
O11   O     O_R   0.499990 0.321920 0.382900 -0.499952
O12   O     O_R   0.430270 0.500040 0.617060 -0.450925
O13   O     O_R   0.430260 0.500000 0.382910 -0.506309
O14   O     O_R   0.500010 0.678080 0.617100 -0.505127
O15   O     O_R   0.499990 0.678040 0.382960 -0.492475

loop_
_geom_bond_atom_site_label_1
_geom_bond_atom_site_label_2
_ccdc_geom_bond_type
C10   C27   A    
C8    C9    A    
C8    C13   A    
C23   N1    S    
C4    O13   A    
C35   C36   S    
C27   H27   S    
Cu2   N4    S    
Cu1   N3    S    
C7    C8    A    
H15   O5    S    
C45   C46   A    
C16   C31   S    
C12   C23   A    
Cu1   O14   S    
C22   C29   A    
C25   H23   S    
C36   H7    S    
C30   C31   D    
C14   H11   S    
C1    O1    A    
C18   C19   A    
C6    H13   S    
C20   C24   A    
C18   H28   S    
C28   O3    A    
C26   H25   S    
C9    C10   A    
C25   C47   A    
C41   H1    S    
Cu2   O11   S    
C33   H5    S    
C4    O12   A    
C38   N1    A    
C42   H17   S    
C2    C6    A    
C19   N2    S    
C24   O7    S    
C32   H3    S    
Cu1   Cu2   S    
C25   C29   A    
H16   O6    S    
C1    C33   S    
C17   C49   A    
C39   C40   A    
C16   O15   A    
C21   C34   A    
C11   N2    A    
C2    C20   A    
C42   H18   S    
C13   O8    S    
C44   H24   S    
C43   C44   S    
H8    N4    S    
C5    C9    A    
C12   C41   A    
C28   C49   S    
C7    O6    S    
C38   O9    S    
C28   O2    A    
C17   H26   S    
C17   C18   A    
C15   H10   S    
H6    N3    S    
C34   C45   A    
C31   H2    S    
C38   C47   A    
Cu1   O2    S    
C43   H19   S    
C40   H14   S    
C26   C27   A    
C37   N1    A    
C2    C5    A    
C42   C43   S    
C37   C45   A    
C4    C48   S    
C11   O10   S    
Cu2   O15   S    
C40   C48   A    
Cu1   O12   S    
C43   H20   S    
C46   H9    S    
C14   C19   A    
C3    C26   A    
C3    C5    A    
Cu2   O3    S    
C35   N3    D    
C16   O14   A    
C6    C7    A    
C36   N4    D    
C39   H12   S    
C13   N2    A    
C37   O4    S    
C24   C46   A    
C32   C33   D    
C30   H30   S    
C30   C32   S    
C29   H29   S    
Cu2   O13   S    
C1    O11   A    
C23   C39   A    
C41   C48   A    
C44   H21   S    
C42   O7    S    
C15   C49   A    
C44   H22   S    
C12   H4    S    
C10   C11   A    
Cu1   O1    S    
C35   O5    S    
C20   C21   A    
C14   C15   A    
C3    C22   A    
C34   C47   A    
C21   C22   A    
