data_mof_unit_5495.cif
_audit_creation_date              2012-12-11T16:05:04-0500
_audit_creation_method            fapswitch 2.2
_symmetry_space_group_name_H-M    P1
_symmetry_Int_Tables_number       1
_space_group_crystal_system       triclinic
_cell_length_a                    10.64144
_cell_length_b                    10.590421
_cell_length_c                    16.858197
_cell_angle_alpha                 98.410322
_cell_angle_beta                  98.416095
_cell_angle_gamma                 61.586253
_cell_volume                      1646.58816407

loop_
_atom_site_label
_atom_site_type_symbol
_atom_type_description
_atom_site_fract_x
_atom_site_fract_y
_atom_site_fract_z
_atom_type_partial_charge
C1    C     C_R   0.353386 0.778358 0.399652 0.536211
C2    C     C_3   0.285304 0.772922 0.249061 -0.130936
C3    C     C_3   0.331523 0.844580 0.325875 0.057438
C4    C     C_R   0.405369 0.373881 0.356917 0.538907
C5    C     C_3   0.439235 0.856025 0.280623 0.159891
C6    C     C_3   0.326054 0.006858 0.257958 -0.124891
C7    C     C_3   0.216034 0.994399 0.304027 -0.163765
C8    C     C_3   0.169547 0.922941 0.226576 -0.125868
C9    C     C_3   0.280660 0.932519 0.182232 0.021227
C10   C     C_3   0.483982 0.287510 0.795554 -0.120330
C11   C     C_3   0.427042 0.433565 0.759956 -0.151487
C12   C     C_3   0.643829 0.430920 0.233508 -0.143136
C13   C     C_3   0.380662 0.368299 0.681141 0.045909
C14   C     C_3   0.437731 0.223132 0.715849 -0.098975
C15   C     C_3   0.288273 0.275137 0.743650 -0.104731
C16   C     C_R   0.708412 0.414969 0.390256 0.554404
C17   C     C_3   0.231086 0.420861 0.708508 -0.101468
C18   C     C_3   0.276852 0.485116 0.789097 -0.124662
C19   C     C_3   0.334765 0.339182 0.822935 0.052082
C20   C     C_1   0.817162 0.341404 0.709584 -0.046683
C21   C     C_1   0.842830 0.315287 0.778341 -0.045156
C22   C     C_1   0.337999 0.812489 0.709642 -0.046618
C23   C     C_3   0.749806 0.385804 0.308545 0.056854
C24   C     C_1   0.313616 0.839040 0.778619 -0.047793
C25   C     C_R   0.885090 0.313458 0.087737 0.536078
C26   C     C_R   0.321750 0.302674 0.119281 0.532206
C27   C     C_R   0.253578 0.964392 0.098588 0.563834
C28   C     C_R   0.356215 0.772220 0.627025 0.542656
C29   C     C_R   0.883461 0.300142 0.861207 0.543941
C30   C     C_R   0.311634 0.298279 0.895420 0.544213
C31   C     C_R   0.280635 0.883876 0.859239 0.552469
C32   C     C_R   0.409472 0.378429 0.601335 0.569242
C33   C     C_R   0.774834 0.378881 0.629458 0.551168
C34   C     C_3   0.838395 0.235291 0.267300 -0.120096
C35   C     C_1   0.373186 0.361086 0.272413 -0.078167
C36   C     C_1   0.348172 0.343032 0.201378 -0.069996
C37   C     C_3   0.733330 0.279721 0.190671 -0.134916
C38   C     C_3   0.659625 0.863826 0.264889 -0.306915
C39   C     C_3   0.930253 0.293666 0.238248 -0.120451
C40   C     C_3   0.841594 0.443704 0.280213 -0.079614
C41   C     C_3   0.736881 0.488150 0.204252 -0.101698
C42   C     C_3   0.824716 0.338296 0.163123 0.047784
C43   C     C_3   0.395948 0.782857 0.204195 -0.085085
Cr1   Cr    Cr6+3 0.608340 0.611040 0.520430 1.011873
Cr2   Cr    Cr6+3 0.287650 0.601120 0.489350 1.017344
Cr3   Cr    Cr6+3 0.604040 0.287870 0.490280 1.008001
Cr4   Cr    Cr6+3 0.054020 0.052700 0.970850 1.013036
Cr5   Cr    Cr6+3 0.059230 0.375120 0.993390 1.020338
Cr6   Cr    Cr6+3 0.374950 0.061200 0.992340 1.011865
H1    H     H_    0.525841 0.488614 0.233988 0.091527
H2    H     H_    0.211318 0.591445 0.821191 0.137064
H3    H     H_    0.689690 0.212909 0.151902 0.130457
H4    H     H_    0.879156 0.132653 0.295185 0.123477
H5    H     H_    0.048009 0.242193 0.236505 0.111462
H6    H     H_    0.886280 0.510904 0.317598 0.146200
H7    H     H_    0.702199 0.587610 0.174759 0.128229
H8    H     H_    0.267644 0.677016 0.245961 0.119358
H9    H     H_    0.462572 0.700253 0.158939 0.114002
H10   H     H_    0.595625 0.850152 0.372118 0.271653
H11   H     H_    0.775992 0.810756 0.284674 0.140947
H12   H     H_    0.342724 0.102811 0.259746 0.129077
H13   H     H_    0.618228 0.982557 0.274125 0.161973
H14   H     H_    0.645145 0.832374 0.199747 0.157044
H15   H     H_    0.144620 0.078308 0.347398 0.127866
H16   H     H_    0.057810 0.950306 0.202077 0.131734
H17   H     H_    0.485136 0.498280 0.764348 0.105771
H18   H     H_    0.587013 0.233681 0.832980 0.128824
H19   H     H_    0.503409 0.115067 0.685444 0.141256
H20   H     H_    0.230413 0.209917 0.738356 0.116694
H21   H     H_    0.127842 0.474746 0.671287 0.142540
N1    N     N_2   0.585526 0.819992 0.311532 -0.507410
O1    O     O_R   0.751220 0.499230 0.435170 -0.505518
O2    O     O_R   0.412990 0.180750 0.091610 -0.530798
O3    O     O_R   0.366620 0.943130 0.065760 -0.505212
O4    O     O_R   0.477220 0.727600 0.436870 -0.515942
O5    O     O_R   0.160510 0.906330 0.879210 -0.508343
O6    O     O_R   0.930190 0.179050 0.889450 -0.498319
O7    O     O_R   0.909140 0.398170 0.896710 -0.506557
O8    O     O_R   0.186190 0.363460 0.918830 -0.497350
O9    O     O_R   0.401670 0.173200 0.913310 -0.516177
O10   O     O_R   0.356120 0.936130 0.900470 -0.488025
O11   O     O_3   0.162740 0.163010 0.985530 -0.273492
O12   O     O_R   0.297880 0.469080 0.560050 -0.490950
O13   O     O_R   0.258650 0.745120 0.411470 -0.522390
O14   O     O_R   0.297070 0.467240 0.395960 -0.483176
O15   O     O_R   0.488830 0.252610 0.387790 -0.511912
O16   O     O_R   0.724400 0.302390 0.420980 -0.513781
O17   O     O_R   0.752100 0.501210 0.612190 -0.501483
O18   O     O_R   0.478040 0.729440 0.600970 -0.497202
O19   O     O_R   0.259530 0.747110 0.588490 -0.511928
O20   O     O_R   0.489720 0.254590 0.564810 -0.511852
O21   O     O_R   0.725220 0.304230 0.585080 -0.507267
O22   O     O_3   0.500010 0.500010 0.500020 -0.316460
O23   O     O_R   0.171830 0.913880 0.057510 -0.514837
O24   O     O_R   0.940690 0.186050 0.054730 -0.522619
O25   O     O_R   0.920470 0.405720 0.075010 -0.518749
O26   O     O_R   0.196690 0.370460 0.084120 -0.494940

loop_
_geom_bond_atom_site_label_1
_geom_bond_atom_site_label_2
_ccdc_geom_bond_type
C11   C18   S    
C34   C37   S    
C41   C42   S    
C13   C32   S    
C35   C36   T    
C16   O1    A    
Cr2   O22   S    
C6    C9    S    
C2    H8    S    
C7    C8    S    
C10   H18   S    
C1    O13   A    
C15   C19   S    
Cr5   O26   S    
C12   C23   S    
C9    C27   S    
C6    H12   S    
C33   O17   A    
Cr4   O5    S    
Cr3   O16   S    
C3    C7    S    
C5    C6    S    
C32   O20   A    
Cr3   O21   S    
Cr6   O10   S    
C23   C40   S    
Cr4   O24   S    
C12   C37   S    
C26   O2    A    
C18   C19   S    
Cr4   O11   S    
Cr5   O7    S    
C37   C42   S    
Cr1   O22   S    
C43   H9    S    
C29   O7    A    
C8    C9    S    
C16   O16   A    
C28   O18   A    
C27   O3    A    
C10   C19   S    
C11   H17   S    
C30   O9    A    
C23   C34   S    
C5    C43   S    
C4    C35   S    
C17   H21   S    
C22   C28   S    
C13   C14   S    
Cr2   O12   S    
C18   H2    S    
C39   C42   S    
C15   H20   S    
C9    C43   S    
C34   C39   S    
C1    O4    A    
C10   C14   S    
C33   O21   A    
C39   C40   S    
C37   H3    S    
C4    O14   A    
C21   C29   S    
C1    C3    S    
Cr6   O11   S    
Cr1   O4    S    
Cr2   O14   S    
C41   H7    S    
C12   C41   S    
C2    C43   S    
C40   H6    S    
C17   C18   S    
Cr2   O19   S    
C25   O25   A    
C38   H11   S    
C20   C33   S    
C26   C36   S    
C40   C41   S    
C25   O24   A    
C16   C23   S    
Cr6   O2    S    
Cr2   O13   S    
C30   O8    A    
C4    O15   A    
Cr5   O8    S    
C38   H14   S    
C15   C17   S    
C32   O12   A    
C38   N1    S    
C14   H19   S    
Cr5   O25   S    
Cr6   O3    S    
C2    C8    S    
C3    C5    S    
C25   C42   S    
C12   H1    S    
C6    C7    S    
Cr3   O20   S    
C31   O10   A    
Cr6   O9    S    
C13   C17   S    
C2    C3    S    
C24   C31   S    
C5    N1    S    
C11   C13   S    
C31   O5    A    
Cr3   O22   S    
Cr4   O23   S    
Cr5   O11   S    
Cr1   O1    S    
C22   C24   T    
C7    H15   S    
C10   C11   S    
C26   O26   A    
C39   H5    S    
C8    H16   S    
C29   O6    A    
C20   C21   T    
C34   H4    S    
Cr4   O6    S    
C14   C15   S    
C27   O23   A    
C28   O19   A    
C38   H13   S    
Cr1   O17   S    
C19   C30   S    
Cr1   O18   S    
H10   N1    S    
Cr3   O15   S    
