data_mof_unit_39283.cif
_audit_creation_date              2012-12-10T18:09:52-0500
_audit_creation_method            fapswitch 2.2
_symmetry_space_group_name_H-M    P1
_symmetry_Int_Tables_number       1
_space_group_crystal_system       triclinic
_cell_length_a                    10.671549
_cell_length_b                    12.787864
_cell_length_c                    13.170166
_cell_angle_alpha                 82.634619
_cell_angle_beta                  93.523881
_cell_angle_gamma                 102.019974
_cell_volume                      1742.25390453

loop_
_atom_site_label
_atom_site_type_symbol
_atom_type_description
_atom_site_fract_x
_atom_site_fract_y
_atom_site_fract_z
_atom_type_partial_charge
C1    C     C_R   0.495213 0.440355 0.690842 0.942893
C2    C     C_R   0.529965 0.449648 0.975065 -0.024352
C3    C     C_R   0.560610 0.475096 0.871083 0.013875
C4    C     C_R   0.741357 0.500730 0.499602 0.986115
C5    C     C_R   0.571753 0.531284 0.040088 0.031569
C6    C     C_R   0.616756 0.639065 0.998238 0.106247
C7    C     C_R   0.660335 0.659021 0.898999 -0.173716
C8    C     C_R   0.642953 0.574463 0.839616 -0.076895
C9    C     C_R   0.574003 0.509559 0.145747 0.474532
C10   C     C_R   0.583636 0.698306 0.159868 -0.192565
C11   C     C_R   0.502887 0.403722 0.800538 -0.112210
C12   C     C_3   0.121499 0.499006 0.503024 -0.212409
C13   C     C_R   0.321306 0.092393 0.342882 -0.282460
C14   C     C_R   0.669436 0.801803 0.618779 0.043326
C15   C     C_R   0.723051 0.908187 0.629806 -0.242109
C16   C     C_R   0.522912 0.559160 0.310111 0.961103
C17   C     C_R   0.666818 0.989388 0.578176 -0.080334
C18   C     C_R   0.551270 0.965320 0.519689 -0.021876
C19   C     C_R   0.508406 0.856109 0.500697 0.192414
C20   C     C_R   0.483313 0.045775 0.472112 -0.074126
C21   C     C_R   0.388408 0.018078 0.394634 0.012950
C22   C     C_R   0.357090 0.915258 0.369350 -0.296433
C23   C     C_3   0.041173 0.389599 0.475095 -0.477392
C24   C     C_R   0.413692 0.834543 0.420557 0.436520
C25   C     C_R   0.498806 0.151468 0.499388 0.407344
C26   C     C_R   0.345656 0.195152 0.368809 0.507692
C27   C     C_R   0.258486 0.498921 0.501314 1.042419
C28   C     C_3   0.935871 0.510565 0.611075 0.166130
C29   C     C_3   0.083711 0.516108 0.613016 0.541673
C30   C     C_3   0.900530 0.395610 0.462372 -0.479612
C31   C     C_3   0.947211 0.600332 0.425121 0.594668
C32   C     C_3   0.878427 0.501694 0.499335 -0.138788
C33   C     C_3   0.090686 0.592370 0.421967 0.148868
C34   C     C_R   0.622379 0.722903 0.058609 -0.143439
C35   C     C_R   0.559190 0.590466 0.204048 -0.145597
C36   C     C_R   0.437533 0.300032 0.835580 -0.260755
C37   C     C_R   0.411116 0.271137 0.939007 0.391815
C38   C     C_R   0.448166 0.348939 0.007850 0.482471
Cl1   Cl    Cl    0.639260 0.396966 0.201382 -0.513511
Cl2   Cl    Cl    0.255848 0.286473 0.307357 -0.562458
Cl3   Cl    Cl    0.581150 0.191758 0.612364 -0.626736
Cl4   Cl    Cl    0.163382 0.644933 0.650691 -0.552515
Cl5   Cl    Cl    0.134244 0.418812 0.710075 -0.553106
Cl6   Cl    Cl    0.869268 0.603648 0.299022 -0.587732
H1    H     H_    0.869110 0.392497 0.380510 0.271010
H2    H     H_    0.248961 0.070355 0.283561 0.195418
H3    H     H_    0.717168 0.739291 0.654254 0.129334
H4    H     H_    0.721527 0.070027 0.578803 0.199283
H5    H     H_    0.811347 0.927975 0.674712 0.173164
H6    H     H_    0.843717 0.322078 0.505058 0.240620
H7    H     H_    0.053499 0.323193 0.535798 0.246122
H8    H     H_    0.149108 0.669452 0.443046 0.213352
H9    H     H_    0.882701 0.357924 0.665285 0.387895
H10   H     H_    0.076580 0.517113 0.299042 0.396114
H11   H     H_    0.339614 0.260384 0.114405 0.406908
H12   H     H_    0.072060 0.367203 0.403354 0.265811
H13   H     H_    0.323483 0.125955 0.915347 0.356546
H14   H     H_    0.330796 0.739230 0.320462 0.350438
H15   H     H_    0.976415 0.757488 0.412135 0.365987
H16   H     H_    0.579283 0.762819 0.204549 0.190376
H17   H     H_    0.709830 0.738602 0.868381 0.146331
H18   H     H_    0.652026 0.806263 0.026737 0.166095
H19   H     H_    0.398335 0.243580 0.781451 0.209898
H20   H     H_    0.918337 0.586611 0.634628 0.209831
H21   H     H_    0.689426 0.588800 0.767282 0.156759
H22   H     H_    0.284235 0.896241 0.309492 0.169193
N1    N     N_R   0.433240 0.222190 0.444680 -0.157315
N2    N     N_R   0.566070 0.776970 0.554790 -0.108222
O1    O     O_R   0.468120 0.366740 0.627160 -0.567653
O2    O     O_3   0.128411 0.583538 0.323071 -0.720279
O3    O     O_3   0.396647 0.332208 0.103703 -0.693068
O4    O     O_3   0.341424 0.170256 0.973110 -0.752319
O5    O     O_3   0.378061 0.735873 0.387738 -0.713124
O6    O     O_3   0.940199 0.696787 0.463756 -0.773219
O7    O     O_R   0.510770 0.544830 0.662520 -0.631335
O8    O     O_R   0.663880 0.410950 0.482330 -0.583319
O9    O     O_R   0.706530 0.589040 0.517700 -0.610364
O10   O     O_R   0.489230 0.455170 0.337480 -0.531042
O11   O     O_R   0.531880 0.633260 0.372840 -0.568853
O12   O     O_R   0.293470 0.410960 0.482300 -0.590495
O13   O     O_R   0.336120 0.589050 0.517670 -0.530054
O14   O     O_3   0.871136 0.428337 0.682511 -0.707624
Zn1   Zn    Zn3+2 0.471520 0.381090 0.476390 1.092493
Zn2   Zn    Zn3+2 0.528480 0.618910 0.523610 1.045812

loop_
_geom_bond_atom_site_label_1
_geom_bond_atom_site_label_2
_ccdc_geom_bond_type
N1    Zn1   S    
C12   C29   S    
C30   H1    S    
C25   N1    A    
C17   H4    S    
C9    Cl1   S    
C7    C8    A    
C33   H8    S    
C12   C23   S    
C26   N1    A    
C28   C29   S    
C16   C35   S    
O11   Zn2   S    
C29   Cl4   S    
C24   O5    S    
C20   C25   A    
C34   H18   S    
C18   C19   A    
C7    H17   S    
C14   H3    S    
O10   Zn1   S    
C22   H22   S    
C1    C11   S    
C31   C33   S    
C10   C35   A    
C36   H19   S    
C16   O10   A    
C30   H6    S    
C8    H21   S    
C21   C22   A    
C29   Cl5   S    
O12   Zn1   S    
O8    Zn1   S    
C31   Cl6   S    
C12   C27   S    
C28   O14   S    
C1    O7    A    
C23   C30   S    
C28   C32   S    
C27   O12   A    
C25   Cl3   S    
C31   O6    S    
O9    Zn2   S    
C1    O1    A    
C6    C34   A    
H9    O14   S    
N2    Zn2   S    
C10   H16   S    
C5    C9    A    
C37   C38   A    
O1    Zn1   S    
C2    C38   A    
C23   H7    S    
C31   C32   S    
H10   O2    S    
C27   O13   A    
C17   C18   A    
C13   C21   A    
C19   N2    A    
C10   C34   A    
H15   O6    S    
C23   H12   S    
C4    C32   S    
C33   O2    S    
C28   H20   S    
C3    C8    A    
C22   C24   A    
C13   C26   A    
C2    C5    A    
O13   Zn2   S    
C13   H2    S    
C15   C17   A    
C38   O3    S    
C11   C36   A    
C6    C7    A    
C16   O11   A    
C2    C3    A    
C4    O9    A    
C30   C32   S    
C26   Cl2   S    
C5    C6    A    
C19   C24   A    
C18   C20   A    
C15   H5    S    
H13   O4    S    
O7    Zn2   S    
C4    O8    A    
C3    C11   A    
C20   C21   A    
C36   C37   A    
C37   O4    S    
C9    C35   A    
C14   N2    A    
C14   C15   A    
C12   C33   S    
H11   O3    S    
H14   O5    S    
