data_mof_unit_16270.cif
_audit_creation_date              2012-12-11T16:16:50-0500
_audit_creation_method            fapswitch 2.2
_symmetry_space_group_name_H-M    P1
_symmetry_Int_Tables_number       1
_space_group_crystal_system       triclinic
_cell_length_a                    13.387284
_cell_length_b                    13.348636
_cell_length_c                    28.518356
_cell_angle_alpha                 89.635888
_cell_angle_beta                  91.07512
_cell_angle_gamma                 120.051078
_cell_volume                      4410.43657742

loop_
_atom_site_label
_atom_site_type_symbol
_atom_type_description
_atom_site_fract_x
_atom_site_fract_y
_atom_site_fract_z
_atom_type_partial_charge
C1    C     C_R   0.440086 0.549791 0.315968 0.536790
C2    C     C_R   0.549986 0.437669 0.683339 0.543207
C3    C     C_R   0.106453 0.860162 0.374861 -0.089080
C4    C     C_R   0.197423 0.973083 0.369753 -0.117075
C5    C     C_R   0.287042 0.020223 0.403164 -0.108635
C6    C     C_R   0.707003 0.656438 0.061583 0.032005
C7    C     C_R   0.793893 0.628218 0.069118 -0.096202
C8    C     C_R   0.878806 0.686004 0.103837 -0.115746
C9    C     C_R   0.877800 0.772329 0.130924 -0.108841
C10   C     C_R   0.792828 0.802274 0.122934 -0.113762
C11   C     C_R   0.708189 0.745314 0.088196 -0.093234
C12   C     C_R   0.322885 0.020190 0.938806 0.032727
C13   C     C_R   0.562176 0.110423 0.815840 0.541583
C14   C     C_R   0.247252 0.934337 0.906995 -0.106639
C15   C     C_R   0.200495 0.963510 0.868671 -0.129785
C16   C     C_R   0.227297 0.078023 0.862244 -0.098833
C17   C     C_R   0.300245 0.163324 0.894317 -0.104760
C18   C     C_R   0.347708 0.134729 0.932657 -0.091218
C19   C     C_R   0.052022 0.350198 0.557742 0.028098
C20   C     C_R   0.978564 0.258275 0.587026 -0.095065
C21   C     C_R   0.024665 0.214624 0.620283 -0.116591
C22   C     C_R   0.143880 0.260798 0.624055 -0.109853
C23   C     C_R   0.216989 0.350087 0.594296 -0.113682
C24   C     C_R   0.885249 0.449121 0.682876 0.541102
C25   C     C_R   0.171688 0.395051 0.561261 -0.088432
C26   C     C_R   0.725843 0.679724 0.959488 0.035832
C27   C     C_R   0.763462 0.795536 0.971196 -0.090265
C28   C     C_R   0.870687 0.883508 0.956981 -0.125132
C29   C     C_R   0.938515 0.857999 0.928488 -0.123604
C30   C     C_R   0.899813 0.743809 0.914700 -0.116939
C31   C     C_R   0.794583 0.654212 0.930890 -0.084337
C32   C     C_R   0.294872 0.994976 0.544106 0.033979
C33   C     C_R   0.249733 0.066202 0.530756 -0.095358
C34   C     C_R   0.157918 0.061558 0.554984 -0.113288
C35   C     C_1   0.050345 0.517253 0.359507 -0.022865
C36   C     C_R   0.110351 0.985996 0.592663 -0.101947
C37   C     C_R   0.152447 0.912568 0.605465 -0.111570
C38   C     C_R   0.244236 0.916650 0.581216 -0.091182
C39   C     C_R   0.951653 0.279070 0.950797 0.034407
C40   C     C_R   0.041348 0.255623 0.943968 -0.088654
C41   C     C_R   0.025133 0.167097 0.913504 -0.130578
C42   C     C_R   0.919564 0.101261 0.889881 -0.110592
C43   C     C_R   0.828743 0.121775 0.897751 -0.101639
C44   C     C_R   0.844476 0.210617 0.928072 -0.094793
C45   C     C_R   0.676960 0.708247 0.554590 0.032897
C46   C     C_1   0.458026 0.930301 0.136378 -0.016893
C47   C     C_R   0.763662 0.710700 0.583947 -0.082703
C48   C     C_R   0.818716 0.797517 0.617729 -0.107443
C49   C     C_R   0.789530 0.883870 0.621822 -0.109382
C50   C     C_R   0.706018 0.884201 0.591809 -0.109988
C51   C     C_R   0.649662 0.796686 0.558206 -0.087486
C52   C     C_1   0.482597 0.533960 0.359831 -0.032790
C53   C     C_1   0.061491 0.528068 0.138255 -0.011790
C54   C     C_1   0.473639 0.946838 0.359779 -0.018906
C55   C     C_1   0.467771 0.529774 0.138777 -0.011234
C56   C     C_1   0.528748 0.053954 0.859812 -0.013292
C57   C     C_R   0.110574 0.561302 0.183842 0.542711
C58   C     C_1   0.919314 0.459088 0.635236 -0.009590
C59   C     C_1   0.539325 0.475480 0.862231 -0.023312
C60   C     C_1   0.528178 0.070611 0.636274 -0.016722
C61   C     C_1   0.941918 0.466716 0.861207 -0.017405
C62   C     C_1   0.538645 0.466793 0.636439 -0.012512
C63   C     C_R   0.017670 0.403844 0.475972 -0.003233
C64   C     C_R   0.389964 0.987992 0.018764 -0.000529
C65   C     C_R   0.601796 0.614814 0.475156 -0.005654
C66   C     C_R   0.987520 0.391985 0.025683 -0.002445
C67   C     C_R   0.394841 0.994024 0.470285 -0.001272
C68   C     C_R   0.451627 0.889713 0.315863 0.541072
C69   C     C_R   0.607186 0.583678 0.029895 -0.002435
C70   C     C_R   0.399547 0.996305 0.969346 0.000903
C71   C     C_R   0.003738 0.403504 0.525205 -0.004872
C72   C     C_R   0.618525 0.587070 0.980521 -0.001376
C73   C     C_R   0.396665 0.005150 0.519731 -0.003738
C74   C     C_R   0.975678 0.385010 0.976384 -0.002080
C75   C     C_R   0.605283 0.605589 0.524469 -0.006554
C76   C     C_R   0.897867 0.506329 0.514088 -0.125111
C77   C     C_R   0.565693 0.968181 0.974087 -0.135957
C78   C     C_R   0.468310 0.398657 0.518097 -0.128670
C79   C     C_R   0.437435 0.549031 0.183879 0.542141
C80   C     C_R   0.023909 0.587065 0.973822 -0.132297
C81   C     C_R   0.599433 0.056302 0.521260 -0.128495
C82   C     C_R   0.417746 0.432758 0.973147 -0.132303
C83   C     C_R   0.555889 0.958256 0.022496 -0.132854
C84   C     C_R   0.911971 0.507437 0.465812 -0.132981
C85   C     C_R   0.405858 0.433019 0.021440 -0.129545
C86   C     C_R   0.597537 0.046401 0.472843 -0.128677
C87   C     C_R   0.033382 0.593224 0.022283 -0.135443
C88   C     C_R   0.465307 0.407584 0.469674 -0.124122
C89   C     C_R   0.976147 0.461705 0.446572 0.016335
C90   C     C_R   0.110700 0.560520 0.316225 0.541221
C91   C     C_R   0.470648 0.970291 0.045236 0.016633
C92   C     C_R   0.529741 0.515067 0.448142 0.018028
C93   C     C_R   0.014382 0.496538 0.048190 0.014113
C94   C     C_R   0.495762 0.013626 0.447526 0.015689
C95   C     C_R   0.499951 0.507539 0.049747 0.017763
C96   C     C_R   0.488925 0.988308 0.947695 0.017545
C97   C     C_R   0.946741 0.458364 0.543872 0.016310
C98   C     C_R   0.523036 0.508617 0.952315 0.018198
C99   C     C_R   0.499700 0.033327 0.545040 0.014936
C100  C     C_R   0.994450 0.483741 0.950857 0.018344
C101  C     C_R   0.448642 0.887236 0.183121 0.538357
C102  C     C_R   0.535698 0.496912 0.545475 0.009227
C103  C     C_1   0.934771 0.462250 0.593763 -0.056104
C104  C     C_1   0.510567 0.017677 0.899080 -0.058938
C105  C     C_1   0.535301 0.482989 0.595272 -0.066599
C106  C     C_1   0.972404 0.477077 0.901429 -0.059238
C107  C     C_1   0.510279 0.048995 0.595093 -0.063020
C108  C     C_1   0.532107 0.496265 0.902660 -0.064504
C109  C     C_1   0.463197 0.953251 0.095282 -0.061190
C110  C     C_1   0.010201 0.487362 0.398098 -0.065536
C111  C     C_1   0.482924 0.514981 0.098762 -0.055571
C112  C     C_R   0.551030 0.438914 0.816576 0.540818
C113  C     C_1   0.489447 0.983619 0.399018 -0.065353
C114  C     C_1   0.034016 0.510349 0.097726 -0.059387
C115  C     C_1   0.509272 0.523825 0.399195 -0.066014
C116  C     C_R   0.067581 0.336761 0.455737 0.032330
C117  C     C_R   0.019450 0.218885 0.466916 -0.089293
C118  C     C_R   0.069648 0.156389 0.450772 -0.126049
C119  C     C_R   0.162609 0.208109 0.420644 -0.127116
C120  C     C_R   0.208521 0.323623 0.408077 -0.106334
C121  C     C_R   0.164269 0.389373 0.426784 -0.082541
C122  C     C_R   0.295618 0.995433 0.041975 0.036874
C123  C     C_R   0.561383 0.112633 0.683148 0.538605
C124  C     C_R   0.180225 0.921342 0.028008 -0.094802
C125  C     C_R   0.091218 0.928173 0.049575 -0.113493
C126  C     C_R   0.116416 0.007734 0.085700 -0.102462
C127  C     C_R   0.230839 0.082646 0.099613 -0.115132
C128  C     C_R   0.320402 0.077151 0.077654 -0.089033
C129  C     C_R   0.678274 0.725622 0.451561 0.035227
C130  C     C_R   0.796937 0.765594 0.449917 -0.086374
C131  C     C_R   0.868893 0.865407 0.424825 -0.125396
C132  C     C_R   0.823518 0.926472 0.401520 -0.112590
C133  C     C_R   0.705615 0.887735 0.403433 -0.102184
C134  C     C_R   0.889774 0.450575 0.816102 0.540638
C135  C     C_R   0.632770 0.787647 0.428473 -0.087010
C136  C     C_R   0.971498 0.292284 0.054364 0.033067
C137  C     C_R   0.860290 0.198019 0.061305 -0.092505
C138  C     C_R   0.842554 0.115673 0.095648 -0.111871
C139  C     C_R   0.935400 0.127433 0.123118 -0.110566
C140  C     C_R   0.046734 0.218934 0.115249 -0.107073
C141  C     C_R   0.065095 0.300473 0.080669 -0.086032
C142  C     C_R   0.287364 0.953777 0.441592 0.031462
C143  C     C_R   0.193849 0.841335 0.447195 -0.087213
C144  C     C_R   0.103821 0.795333 0.413899 -0.109491
Cr1   Cr    Cr6+3 0.505050 0.756260 0.250000 1.020371
Cr2   Cr    Cr6+3 0.251210 0.494950 0.250000 1.016864
Cr3   Cr    Cr6+3 0.243740 0.748790 0.250000 1.022692
Cr4   Cr    Cr6+3 0.756260 0.505050 0.750000 1.016814
Cr5   Cr    Cr6+3 0.494950 0.251210 0.750000 1.021549
Cr6   Cr    Cr6+3 0.748790 0.243740 0.750000 1.019477
H1    H     H_    0.850491 0.545013 0.528268 0.110839
H2    H     H_    0.674853 0.061309 0.455282 0.117592
H3    H     H_    0.056538 0.673903 0.039729 0.117176
H4    H     H_    0.410593 0.330778 0.449052 0.110722
H5    H     H_    0.944678 0.176039 0.489048 0.109601
H6    H     H_    0.036854 0.068286 0.461928 0.117649
H7    H     H_    0.199961 0.159475 0.407269 0.111924
H8    H     H_    0.279564 0.362019 0.384416 0.137824
H9    H     H_    0.205539 0.480727 0.418743 0.111367
H10   H     H_    0.159156 0.858055 0.000507 0.102158
H11   H     H_    0.002655 0.871038 0.038546 0.138676
H12   H     H_    0.634631 0.962423 0.957360 0.115832
H13   H     H_    0.047018 0.010522 0.103030 0.118478
H14   H     H_    0.250207 0.144789 0.127449 0.105009
H15   H     H_    0.408823 0.136441 0.088418 0.110008
H16   H     H_    0.833226 0.718406 0.467374 0.100451
H17   H     H_    0.959917 0.895402 0.423496 0.119041
H18   H     H_    0.879692 0.003747 0.381984 0.121881
H19   H     H_    0.671036 0.935094 0.385195 0.131012
H20   H     H_    0.541194 0.757676 0.429363 0.109231
H21   H     H_    0.787039 0.191389 0.041759 0.111276
H22   H     H_    0.756523 0.044831 0.102097 0.108309
H23   H     H_    0.416804 0.315131 0.534454 0.121115
H24   H     H_    0.921412 0.066155 0.150727 0.096140
H25   H     H_    0.118460 0.228059 0.136630 0.111928
H26   H     H_    0.151155 0.373444 0.076086 0.108313
H27   H     H_    0.193179 0.787700 0.475990 0.112860
H28   H     H_    0.032887 0.708682 0.417669 0.112376
H29   H     H_    0.037167 0.823297 0.348918 0.118967
H30   H     H_    0.199182 0.023800 0.339690 0.104049
H31   H     H_    0.359037 0.106812 0.398008 0.101932
H32   H     H_    0.793621 0.559244 0.049210 0.117243
H33   H     H_    0.944710 0.663198 0.110227 0.126315
H34   H     H_    0.038939 0.662898 0.954253 0.108228
H35   H     H_    0.942957 0.816072 0.158069 0.115197
H36   H     H_    0.790802 0.867715 0.144322 0.107285
H37   H     H_    0.641184 0.767477 0.083093 0.105701
H38   H     H_    0.230106 0.846259 0.910410 0.105299
H39   H     H_    0.144313 0.897521 0.843743 0.108364
H40   H     H_    0.191583 0.100760 0.832411 0.109800
H41   H     H_    0.321792 0.251987 0.888680 0.117012
H42   H     H_    0.409203 0.202631 0.955753 0.113821
H43   H     H_    0.885916 0.222117 0.584651 0.107234
H44   H     H_    0.968202 0.145936 0.643470 0.101929
H45   H     H_    0.679628 0.082449 0.540266 0.105161
H46   H     H_    0.179601 0.226954 0.649821 0.125445
H47   H     H_    0.308771 0.385173 0.597229 0.126696
H48   H     H_    0.229729 0.465902 0.539070 0.113363
H49   H     H_    0.711229 0.817326 0.992734 0.102812
H50   H     H_    0.901268 0.971249 0.968556 0.134620
H51   H     H_    0.020939 0.927155 0.917397 0.128897
H52   H     H_    0.952524 0.724491 0.892366 0.114499
H53   H     H_    0.768058 0.565525 0.921900 0.117305
H54   H     H_    0.286580 0.126344 0.501968 0.102060
H55   H     H_    0.124540 0.117594 0.544930 0.133295
H56   H     H_    0.343886 0.373332 0.951950 0.102488
H57   H     H_    0.041434 0.985159 0.612056 0.109747
H58   H     H_    0.114613 0.853206 0.634415 0.108283
H59   H     H_    0.276372 0.859590 0.591561 0.107599
H60   H     H_    0.124701 0.308273 0.960997 0.103336
H61   H     H_    0.094417 0.149747 0.908135 0.113776
H62   H     H_    0.907605 0.033119 0.866084 0.117671
H63   H     H_    0.746825 0.069637 0.879860 0.134159
H64   H     H_    0.774706 0.228398 0.932744 0.110682
H65   H     H_    0.785059 0.642662 0.581990 0.107350
H66   H     H_    0.882612 0.796641 0.641282 0.107759
H67   H     H_    0.615347 0.940951 0.042326 0.101758
H68   H     H_    0.830483 0.949483 0.648711 0.099846
H69   H     H_    0.682762 0.950407 0.595610 0.111462
H70   H     H_    0.581943 0.795350 0.536346 0.110647
H71   H     H_    0.874990 0.546971 0.443545 0.107676
H72   H     H_    0.322879 0.375277 0.036721 0.111886
O1    O     O_R   0.530190 0.870330 0.301660 -0.518301
O2    O     O_R   0.870330 0.530190 0.698340 -0.517881
O3    O     O_R   0.469810 0.340140 0.801660 -0.512312
O4    O     O_R   0.659860 0.129670 0.698340 -0.514575
O5    O     O_R   0.494300 0.651190 0.297490 -0.484935
O6    O     O_R   0.156890 0.505700 0.202510 -0.490311
O7    O     O_R   0.348810 0.843110 0.297490 -0.484404
O8    O     O_R   0.494300 0.651190 0.202510 -0.491307
O9    O     O_R   0.156890 0.505700 0.297490 -0.492081
O10   O     O_R   0.348810 0.843110 0.202510 -0.490464
O11   O     O_R   0.651190 0.494300 0.797490 -0.491021
O12   O     O_R   0.340140 0.469810 0.198340 -0.518408
O13   O     O_R   0.505700 0.156890 0.702510 -0.490224
O14   O     O_R   0.843110 0.348810 0.797490 -0.485715
O15   O     O_R   0.651190 0.494300 0.702510 -0.491649
O16   O     O_R   0.505700 0.156890 0.797490 -0.483394
O17   O     O_R   0.843110 0.348810 0.702510 -0.491866
O18   O     O_3   0.333333 0.666667 0.250000 -0.244807
O19   O     O_3   0.666667 0.333333 0.750000 -0.246015
O20   O     O_R   0.129670 0.659860 0.301660 -0.507600
O21   O     O_R   0.530190 0.870330 0.198340 -0.514909
O22   O     O_R   0.340140 0.469810 0.301660 -0.521482
O23   O     O_R   0.129670 0.659860 0.198340 -0.513405
O24   O     O_R   0.870330 0.530190 0.801660 -0.517243
O25   O     O_R   0.469810 0.340140 0.698340 -0.512978
O26   O     O_R   0.659860 0.129670 0.801660 -0.520813

loop_
_geom_bond_atom_site_label_1
_geom_bond_atom_site_label_2
_ccdc_geom_bond_type
C6    C69   S    
Cr1   O8    S    
Cr2   O12   S    
C126  C127  A    
Cr6   O4    S    
C78   C102  A    
Cr5   O3    S    
C41   C42   A    
C87   C93   A    
C19   C71   S    
C19   C20   A    
Cr1   O18   S    
C82   H56   S    
C2    O25   A    
C76   C84   A    
C48   H66   S    
C5    C142  A    
Cr6   O17   S    
C127  H14   S    
C7    C8    A    
C123  O4    A    
C72   C98   A    
Cr3   O18   S    
C17   H41   S    
Cr6   O26   S    
C71   C97   A    
C18   H42   S    
C26   C27   A    
C28   H50   S    
C44   H64   S    
C28   C29   A    
C32   C73   S    
C13   O26   A    
C80   C87   A    
C9    H35   S    
C84   H71   S    
C30   C31   A    
C83   H67   S    
C35   C110  T    
C39   C74   S    
C54   C68   S    
C45   C51   A    
C143  C144  A    
C66   C74   A    
C54   C113  T    
C40   H60   S    
C50   H69   S    
C98   C108  S    
C116  C117  A    
Cr1   O21   S    
C102  C105  S    
Cr4   O11   S    
C135  H20   S    
C3    H29   S    
C118  C119  A    
C133  H19   S    
C25   H48   S    
C86   C94   A    
C59   C112  S    
C129  C135  A    
C57   O6    A    
Cr6   O19   S    
C88   C92   A    
C132  C133  A    
C47   H65   S    
C117  H5    S    
C67   C94   A    
C87   H3    S    
C118  H6    S    
C67   C73   A    
C32   C38   A    
C21   H44   S    
C29   C30   A    
C9    C10   A    
C31   H53   S    
C81   C86   A    
C13   C56   S    
C1    O5    A    
C45   C47   A    
C15   H39   S    
C120  C121  A    
C131  H17   S    
C26   C31   A    
Cr5   O25   S    
C21   C22   A    
C80   C100  A    
C120  H8    S    
C82   C98   A    
C22   H46   S    
C4    H30   S    
C101  O21   A    
C5    H31   S    
C1    C52   S    
C94   C113  S    
C61   C134  S    
Cr5   O16   S    
C6    C7    A    
Cr2   O9    S    
C24   O2    A    
C34   H55   S    
C30   H52   S    
C46   C101  S    
C29   H51   S    
C116  C121  A    
C138  H22   S    
Cr4   O15   S    
Cr3   O7    S    
C27   H49   S    
C140  C141  A    
Cr1   O5    S    
C57   O23   A    
C10   C11   A    
C39   C40   A    
C62   C105  T    
C141  H26   S    
C53   C57   S    
C8    C9    A    
C74   C100  A    
C81   C99   A    
Cr3   O20   S    
C50   C51   A    
C76   C97   A    
C89   C110  S    
Cr6   O14   S    
C15   C16   A    
C53   C114  T    
C143  H27   S    
C36   H57   S    
C88   H4    S    
C60   C123  S    
C70   C96   A    
C43   C44   A    
C79   O8    A    
C37   C38   A    
C1    O22   A    
C86   H2    S    
C75   C102  A    
C55   C79   S    
Cr3   O10   S    
C130  H16   S    
C47   C48   A    
C119  H7    S    
C63   C89   A    
Cr4   O24   S    
C17   C18   A    
C3    C4    A    
Cr5   O13   S    
C26   C72   S    
C119  C120  A    
C61   C106  T    
C60   C107  T    
C56   C104  T    
C97   C103  S    
C65   C92   A    
C16   H40   S    
C66   C93   A    
C123  O13   A    
C63   C116  S    
C8    H33   S    
C24   C58   S    
C40   C41   A    
C63   C71   A    
C124  H10   S    
C64   C70   A    
C96   C104  S    
C121  H9    S    
C125  C126  A    
C37   H58   S    
C66   C136  S    
C90   O9    A    
C68   O1    A    
C144  H28   S    
C84   C89   A    
C39   C44   A    
Cr2   O22   S    
C127  C128  A    
C43   H63   S    
C20   H43   S    
C6    C11   A    
C69   C72   A    
C42   H62   S    
C68   O7    A    
C129  C130  A    
C85   H72   S    
C52   C115  T    
C78   C88   A    
C77   H12   S    
C73   C99   A    
C78   H23   S    
C12   C70   S    
C48   C49   A    
C134  O14   A    
C112  O3    A    
C77   C96   A    
C7    H32   S    
C55   C111  T    
C22   C23   A    
C125  H11   S    
C3    C144  A    
C132  H18   S    
C79   O12   A    
Cr2   O18   S    
C4    C5    A    
C69   C95   A    
C65   C75   A    
C65   C129  S    
C139  C140  A    
C2    O15   A    
C13   O16   A    
Cr1   O1    S    
C51   H70   S    
C82   C85   A    
C99   C107  S    
C137  C138  A    
C23   H47   S    
C33   H54   S    
C100  C106  S    
C59   C108  T    
C76   H1    S    
C49   H68   S    
C45   C75   S    
C32   C33   A    
C91   C109  S    
C90   O20   A    
C130  C131  A    
C12   C14   A    
C81   H45   S    
C95   C111  S    
C117  C118  A    
C85   C95   A    
C11   H37   S    
Cr4   O19   S    
C128  H15   S    
Cr2   O6    S    
C36   C37   A    
C140  H25   S    
C64   C122  S    
C126  H13   S    
C83   C91   A    
C10   H36   S    
C136  C141  A    
C33   C34   A    
C101  O10   A    
C34   C36   A    
C93   C114  S    
C80   H34   S    
C38   H59   S    
Cr4   O2    S    
C131  C132  A    
C19   C25   A    
C92   C115  S    
C24   O17   A    
C137  H21   S    
C138  C139  A    
C122  C128  A    
C41   H61   S    
C35   C90   S    
C2    C62   S    
C23   C25   A    
C20   C21   A    
Cr3   O23   S    
Cr5   O19   S    
C49   C50   A    
C42   C43   A    
C46   C109  T    
C12   C18   A    
C27   C28   A    
C133  C135  A    
C77   C83   A    
C14   C15   A    
C136  C137  A    
C139  H24   S    
C142  C143  A    
C58   C103  T    
C64   C91   A    
C14   H38   S    
C67   C142  S    
C122  C124  A    
C134  O24   A    
C112  O11   A    
C16   C17   A    
C124  C125  A    
