data_mof_unit_10611.cif
_audit_creation_date              2013-03-05T16:18:15-0500
_audit_creation_method            fapswitch 2.2
_symmetry_space_group_name_H-M    P1
_symmetry_Int_Tables_number       1
_space_group_crystal_system       triclinic
_cell_length_a                    8.313279
_cell_length_b                    19.071494
_cell_length_c                    22.944978
_cell_angle_alpha                 100.355522
_cell_angle_beta                  90.303861
_cell_angle_gamma                 91.889371
_cell_volume                      3576.41478412

loop_
_atom_site_label
_atom_site_type_symbol
_atom_site_description
_atom_site_fract_x
_atom_site_fract_y
_atom_site_fract_z
_atom_type_partial_charge
P1    P     P_3+3 0.933470 0.664380 0.557030 0.443435
O1    O     O_2   0.108070 0.674980 0.540650 -0.361199
O2    O     O_3   0.861930 0.586170 0.535430 -0.395779
O3    O     O_3   0.366390 0.628250 0.433820 -0.342262
O4    O     O_2   0.285154 0.751994 0.484652 -0.411061
O5    O     O_3   0.941922 0.681663 0.634364 -0.598221
O6    O     O_3   0.315095 0.738568 0.369244 -0.493368
H1    H     H_    0.459925 0.662934 0.319606 0.085675
C1    C     C_3   0.355815 0.730943 0.265170 -0.837494
H2    H     H_    0.257901 0.690550 0.250439 0.278961
H3    H     H_    0.307949 0.785344 0.269546 0.240597
P2    P     P_3+3 0.383600 0.440030 0.365120 0.479722
P3    P     P_3+3 0.946919 0.585544 0.325480 0.469850
O7    O     O_2   0.211060 0.461230 0.357810 -0.357532
O8    O     O_3   0.958150 0.591500 0.402390 -0.376289
O9    O     O_2   0.084399 0.538705 0.297598 -0.364534
O10   O     O_3   0.374306 0.346898 0.345302 -0.554661
O11   O     O_3   0.000211 0.669694 0.310170 -0.511348
C2    C     C_3   0.912778 0.721021 0.347285 0.526956
H4    H     H_    0.957187 0.726891 0.393784 0.121611
H5    H     H_    0.782174 0.706443 0.344954 -0.035185
C3    C     C_3   0.937134 0.792329 0.327015 -0.995301
H6    H     H_    0.066390 0.809125 0.330209 0.286965
H7    H     H_    0.895110 0.787679 0.280387 0.259029
C4    C     C_3   0.818615 0.374011 0.342745 0.422982
H8    H     H_    0.696934 0.386893 0.359730 0.095541
H9    H     H_    0.901586 0.421362 0.354614 0.124156
C5    C     C_3   0.809387 0.353371 0.275592 -0.931188
H10   H     H_    0.726510 0.306167 0.262684 0.274970
H11   H     H_    0.764022 0.397819 0.255883 0.215426
H12   H     H_    0.930860 0.340391 0.257706 0.266133
Ba1   Ba    Ba6+2 0.157290 0.533910 0.474710 1.549321
C6    C     C_3   0.994459 0.622549 0.656279 0.385771
H13   H     H_    0.108370 0.604274 0.635176 0.114948
H14   H     H_    0.902462 0.578284 0.647979 0.127856
C7    C     C_3   0.021112 0.645490 0.722920 -0.909730
H15   H     H_    0.088260 0.697670 0.732611 0.283158
H16   H     H_    0.092585 0.606555 0.741300 0.228456
H17   H     H_    0.903238 0.650809 0.745623 0.254060
C8    C     C_3   0.319281 0.317271 0.393375 0.452322
H18   H     H_    0.196788 0.335294 0.404850 0.083504
H19   H     H_    0.400777 0.332401 0.432403 0.139850
C9    C     C_3   0.314189 0.236426 0.375907 -0.976997
H20   H     H_    0.229193 0.219338 0.338141 0.270258
H21   H     H_    0.273822 0.211767 0.413787 0.219125
H22   H     H_    0.436089 0.217555 0.362925 0.268828
P4    P     P_3+3 0.876840 0.335610 0.442930 0.465815
O12   O     O_2   0.702240 0.324970 0.459330 -0.360652
O13   O     O_3   0.948380 0.413820 0.464520 -0.404645
O14   O     O_3   0.443920 0.371740 0.566130 -0.371980
O15   O     O_3   0.875305 0.316066 0.365446 -0.559116
P5    P     P_3+3 0.859260 0.415354 0.674944 0.457643
O16   O     O_3   0.358830 0.538360 0.571050 -0.391583
O17   O     O_3   0.852160 0.408490 0.597560 -0.381831
O18   O     O_2   0.703434 0.450905 0.699211 -0.383974
O19   O     O_3   0.838077 0.330909 0.694292 -0.542437
Ba2   Ba    Ba6+2 0.652900 0.466090 0.525240 1.544868
P6    P     P_3+3 0.395768 0.718383 0.434533 0.444891
C10   C     C_3   0.427213 0.719875 0.323895 0.397105
H23   H     H_    0.536759 0.755089 0.332636 0.028140
H24   H     H_    0.450705 0.725420 0.231016 0.249425
O20   O     O_3   0.451480 0.461630 0.428900 -0.409349
C11   C     C_3   0.426046 0.693724 0.638273 0.609252
H25   H     H_    0.394634 0.668673 0.591816 0.092238
C12   C     C_3   0.320399 0.758838 0.653650 -0.934620
H26   H     H_    0.321712 0.779483 0.702134 0.259358
H27   H     H_    0.362668 0.801738 0.629772 0.216317
H28   H     H_    0.194556 0.745081 0.640225 0.278607
P7    P     P_3+3 0.415156 0.556367 0.645789 0.440626
O21   O     O_2   0.599240 0.538720 0.642170 -0.367652
O22   O     O_3   0.398175 0.646958 0.678718 -0.572801
H29   H     H_    0.868588 0.834069 0.355309 0.222781
C13   C     C_3   0.882992 0.279405 0.646215 0.449938
H30   H     H_    0.801516 0.279640 0.607642 0.124547
H31   H     H_    0.008477 0.290436 0.633828 0.008541
C14   C     C_3   0.868737 0.205215 0.662955 -0.454765
H32   H     H_    0.857370 0.165158 0.621394 0.136412
H33   H     H_    0.757359 0.199357 0.688508 0.223271
P8    P     P_3+3 0.413566 0.281640 0.565600 0.407285
C15   C     C_3   0.403971 0.300508 0.678425 0.433767
H34   H     H_    0.271614 0.291740 0.672449 0.040862
O23   O     O_2   0.525101 0.246919 0.516226 -0.417917
O24   O     O_3   0.487144 0.260223 0.631459 -0.526021
H35   H     H_    0.436117 0.358060 0.681826 0.127921
H36   H     H_    0.380699 0.308054 0.773104 0.254438
C16   C     C_3   0.450688 0.278058 0.736334 -0.952517
H37   H     H_    0.580606 0.289753 0.746016 0.287047
H38   H     H_    0.424555 0.220062 0.733599 0.250790
C17   C     C_R   0.954806 0.197607 0.469726 -0.311613
H39   H     H_    0.871351 0.175341 0.434445 0.158401
C18   C     C_R   0.989521 0.272109 0.479010 0.309808
C19   C     C_R   0.137440 0.188591 0.549825 -0.336922
H40   H     H_    0.177563 0.165757 0.586854 0.147646
C20   C     C_R   0.204962 0.255097 0.544256 0.227878
C21   C     C_R   0.674127 0.810931 0.450368 -0.363225
H41   H     H_    0.634113 0.834184 0.413657 0.133349
C22   C     C_R   0.604726 0.744802 0.456363 0.203700
C23   C     C_R   0.855627 0.802567 0.530988 -0.306288
H42   H     H_    0.940438 0.824759 0.565833 0.147203
C24   C     C_R   0.818292 0.728433 0.522705 0.302878
C25   C     C_R   0.019584 0.154064 0.508705 0.088884
C26   C     C_R   0.120659 0.299202 0.514340 -0.458332
H43   H     H_    0.163412 0.353653 0.515613 0.160454
C27   C     C_R   0.791700 0.845655 0.491546 0.116254
C28   C     C_R   0.684914 0.701735 0.488559 -0.408217
H44   H     H_    0.639477 0.647987 0.488911 0.162154
C29   C     C_R   0.228038 0.035267 0.538594 -0.181641
C30   C     C_R   0.320980 0.983606 0.556463 -0.129919
C31   C     C_R   0.274167 0.912825 0.540006 -0.110169
C32   C     C_R   0.128539 0.895294 0.510377 -0.142874
C33   C     C_R   0.012454 0.946728 0.508048 0.054642
C34   C     C_R   0.066839 0.020400 0.518205 0.101178
C35   C     C_R   0.849395 0.924467 0.492889 -0.076761
C36   C     C_R   0.744689 0.979186 0.481820 0.103344
C37   C     C_R   0.799109 0.052841 0.491891 0.052621
C38   C     C_R   0.962171 0.075131 0.507080 -0.075538
C39   C     C_R   0.583325 0.964309 0.461625 -0.178514
C40   C     C_R   0.490349 0.015883 0.443655 -0.122660
C41   C     C_R   0.537345 0.086653 0.459901 -0.093350
C42   C     C_R   0.682936 0.104218 0.489534 -0.155302
H45   H     H_    0.293238 0.083977 0.537492 0.146782
H46   H     H_    0.439821 0.997686 0.575414 0.136969
H47   H     H_    0.356342 0.872034 0.546372 0.150121
H48   H     H_    0.105313 0.841170 0.489290 0.186646
H49   H     H_    0.518096 0.915661 0.462952 0.146232
H50   H     H_    0.371431 0.001780 0.424783 0.139397
H51   H     H_    0.455406 0.127435 0.453373 0.154940
H52   H     H_    0.705887 0.158300 0.510688 0.181775
H53   H     H_    0.277609 0.326708 0.049041 0.172197
H54   H     H_    0.193895 0.322632 0.946829 0.169316
C43   C     C_R   0.641563 0.525159 0.334740 -0.552621
C44   C     C_R   0.411783 0.548191 0.944036 -0.226850
C45   C     C_R   0.385851 0.539411 0.881992 0.585622
O25   O     O_2   0.452053 0.582530 0.854856 -0.539752
N1    N     N_R   0.293476 0.481413 0.851574 -0.165443
C46   C     C_R   0.247777 0.426105 0.880851 0.514474
O26   O     O_2   0.172796 0.373612 0.854205 -0.623203
C47   C     C_R   0.290318 0.428747 0.940993 -0.009995
C48   C     C_R   0.369631 0.490591 0.972911 -0.040361
C49   C     C_R   0.485533 0.611482 0.977802 0.396570
C50   C     C_R   0.516690 0.615169 0.038282 -0.226570
C51   C     C_R   0.480866 0.557087 0.066497 -0.104493
C52   C     C_R   0.410865 0.494055 0.033605 -0.012760
C53   C     C_R   0.255688 0.370742 0.969973 -0.127851
C54   C     C_R   0.303731 0.373051 0.028825 -0.120549
C55   C     C_R   0.382525 0.434432 0.061255 -0.041698
C56   C     C_R   0.436102 0.437452 0.120370 0.515960
N2    N     N_R   0.502299 0.500518 0.152815 -0.164268
C57   C     C_R   0.513654 0.561012 0.127224 0.561555
C58   C     C_2   0.089004 0.461663 0.770990 -0.200902
C59   C     C_3   0.037794 0.469672 0.708646 0.172954
C60   C     C_1   0.311485 0.498289 0.689115 0.272674
C61   C     C_2   0.363311 0.496031 0.743278 -0.201955
C62   C     C_2   0.244978 0.478231 0.789303 0.105393
C63   C     C_R   0.711487 0.534625 0.233380 0.079204
C64   C     C_R   0.749865 0.547604 0.294775 0.154199
C65   C     C_R   0.499351 0.487493 0.314767 0.307643
C66   C     C_R   0.453185 0.480723 0.255312 -0.201919
C67   C     C_R   0.556351 0.504858 0.213983 0.050279
O27   O     O_2   0.425247 0.383827 0.142611 -0.584964
O28   O     O_2   0.550777 0.618712 0.157609 -0.619657
C68   C     C_2   0.178948 0.464098 0.667555 -0.465683
H55   H     H_    0.571332 0.664061 0.063146 0.200679
H56   H     H_    0.484434 0.520227 0.755366 0.211490
H57   H     H_    0.997216 0.451606 0.802436 0.178151
H58   H     H_    0.337766 0.455371 0.241013 0.189343
H59   H     H_    0.674427 0.531790 0.381149 0.184591
H60   H     H_    0.181127 0.424060 0.627447 0.150492
N3    N     N_2   0.594181 0.716391 0.640846 -0.137427
H61   H     H_    0.662011 0.673602 0.624500 0.185076
C69   C     C_3   0.656561 0.756472 0.696905 -0.746369
H62   H     H_    0.783479 0.774057 0.691849 0.255547
H63   H     H_    0.650184 0.723125 0.732016 0.270884
H64   H     H_    0.590313 0.806076 0.710876 0.231804
N4    N     N_2   0.009548 0.189994 0.695654 -0.113015
H65   H     H_    0.028884 0.136095 0.690845 0.188041
C70   C     C_3   0.022707 0.225983 0.756739 -0.707237
H66   H     H_    0.130877 0.207861 0.777642 0.224409
H67   H     H_    0.914694 0.213403 0.781897 0.235767
H68   H     H_    0.037270 0.284488 0.759241 0.291631
N5    N     N_2   0.834114 0.540816 0.191024 -0.107420
H69   H     H_    0.823302 0.505327 0.151456 0.155562
C71   C     C_3   0.891487 0.611717 0.184927 -0.658956
H70   H     H_    0.870320 0.620206 0.138865 0.224844
H71   H     H_    0.023053 0.616880 0.193886 0.240799
H72   H     H_    0.829274 0.653887 0.215559 0.254063
N6    N     N_R   0.525110 0.673686 0.952568 0.264699
O29   O     O_R   0.412515 0.705674 0.928353 -0.323397
O30   O     O_R   0.666386 0.705413 0.962853 -0.369868

loop_
_geom_bond_atom_site_label_1
_geom_bond_atom_site_label_2
_geom_bond_distance
_ccdc_geom_bond_type
C52   C55   1.412193 A    
C69   H62   1.109569 S    
C11   C12   1.534810 S    
C65   C66   1.397448 A    
C13   H31   1.106102 S    
C13   H30   1.112380 S    
C21   H41   1.076065 S    
C15   H35   1.109889 S    
O16   P7    1.745621 S    
O14   P8    1.726380 S    
C36   C37   1.439282 A    
Ba2   O20   2.753396 S    
P4    O13   1.580085 S    
N5    H69   1.031807 S    
C44   C48   1.416757 A    
C69   H63   1.112983 S    
C24   C28   1.382997 A    
N1    C62   1.472689 S    
O4    P6    1.537536 D    
C1    H24   1.108982 S    
C51   C57   1.406602 A    
C5    H10   1.110831 S    
C2    H5    1.110476 S    
C14   H33   1.111785 S    
C35   C36   1.436683 A    
P7    O21   1.577138 D    
C71   H71   1.109713 S    
H1    C10   1.115450 S    
C16   H38   1.110675 S    
C11   N3    1.447136 S    
C37   C38   1.429513 A    
C6    C7    1.525806 S    
O13   Ba2   2.944009 S    
C30   C31   1.377242 A    
O1    Ba1   2.882818 S    
P1    O1    1.517473 D    
N3    H61   1.023295 S    
C3    H29   1.108121 S    
P7    O22   1.767377 S    
C40   C41   1.376974 A    
C15   C16   1.519759 S    
C32   H48   1.069196 S    
C32   C33   1.406091 A    
C48   C52   1.421845 A    
C8    C9    1.520883 S    
C56   N2    1.390600 Am   
C44   C45   1.417673 A    
C70   H67   1.112731 S    
C43   C65   1.394154 A    
P2    O10   1.751498 S    
C29   C30   1.388493 A    
Ba2   O21   2.834308 S    
C17   C18   1.418117 A    
H54   C53   1.085626 S    
C1    H2    1.110128 S    
O6    P6    1.748109 S    
H53   C54   1.085937 S    
C49   N6    1.440157 S    
P5    O18   1.541978 D    
C22   C28   1.383405 A    
C59   C68   1.503725 S    
C8    H19   1.109935 S    
C43   H59   1.082008 S    
C10   H23   1.109011 S    
P2    Ba1   3.423723 S    
N3    C69   1.456384 S    
O2    Ba1   2.943110 S    
P6    C22   1.834308 S    
Ba1   Ba2   4.564278 S    
C15   O24   1.405327 S    
C56   O27   1.223346 D    
P1    C24   1.855917 S    
O6    C10   1.406187 S    
P5    O17   1.757304 S    
C54   C55   1.408640 A    
C14   N4    1.452207 S    
C69   H64   1.108246 S    
C61   H56   1.106423 S    
C63   C67   1.427748 A    
P1    O5    1.746150 S    
N1    C46   1.392556 Am   
C2    C3    1.522180 S    
C14   H32   1.110999 S    
P8    C20   1.829606 S    
N4    C70   1.447431 S    
C71   H72   1.111910 S    
O7    Ba1   2.834192 S    
O16   Ba2   2.951206 S    
C16   H37   1.108765 S    
C31   H47   1.080771 S    
P4    O15   1.749612 S    
C12   H27   1.112323 S    
C4    H8    1.105281 S    
H36   C16   1.109613 S    
C58   H57   1.088854 S    
C7    H17   1.111252 S    
P1    Ba1   3.445885 S    
C27   C35   1.557524 S    
P1    O2    1.580117 S    
N2    C67   1.458657 S    
C9    H20   1.110494 S    
C4    O15   1.397600 S    
P3    C64   1.851978 S    
P4    Ba2   3.446478 S    
P2    O20   1.545623 S    
P4    O12   1.517711 D    
C70   H68   1.109457 S    
C19   C20   1.397235 A    
C6    H13   1.103924 S    
C71   H70   1.111581 S    
C33   C35   1.429233 A    
C29   C34   1.419755 A    
C49   C50   1.399172 A    
C9    H21   1.108525 S    
O3    Ba1   2.749008 S    
C19   C25   1.417042 A    
C70   H66   1.110699 S    
C68   H60   1.085695 S    
P3    O11   1.747201 S    
C46   C47   1.414423 A    
C8    H18   1.103557 S    
P2    O7    1.519572 D    
C50   H55   1.085974 S    
C23   C24   1.416056 A    
C1    H3    1.111327 S    
C45   O25   1.234797 D    
P2    C65   1.846754 S    
C13   C14   1.532426 S    
C3    H7    1.111031 S    
C4    H9    1.110844 S    
C12   H28   1.098916 S    
C18   C26   1.384033 A    
O2    Ba2   2.803516 S    
Ba1   O16   2.754024 S    
C34   C38   1.437065 A    
C21   C27   1.417457 A    
C66   H58   1.082187 S    
C55   C56   1.416087 A    
C25   C38   1.558056 S    
C21   C22   1.399137 A    
C43   C64   1.399718 A    
O19   C13   1.400050 S    
C33   C34   1.439494 A    
C17   C25   1.439075 A    
C58   C59   1.525514 S    
P7    C60   1.816571 S    
P4    C18   1.859165 S    
C5    H12   1.110774 S    
C63   N5    1.428825 S    
C30   H46   1.083150 S    
C15   H34   1.111534 S    
O8    Ba1   2.728838 S    
P8    O23   1.537392 D    
C41   C42   1.386390 A    
C42   H52   1.068602 S    
C44   C49   1.429366 A    
C28   H44   1.082109 S    
C39   C40   1.388335 A    
O5    C6    1.395912 S    
C53   C54   1.398814 A    
C2    H4    1.112343 S    
P3    O8    1.749653 S    
C61   C62   1.521869 S    
Ba1   O20   2.952134 S    
N6    O29   1.308070 A    
N4    H65   1.031985 S    
C47   C53   1.412184 A    
C50   C51   1.404612 A    
P8    O24   1.747309 S    
O14   Ba2   2.748532 S    
C66   C67   1.409332 A    
P5    C59   1.863446 S    
C23   C27   1.437974 A    
C7    H16   1.105121 S    
C19   H40   1.078147 S    
C6    H14   1.109921 S    
C5    H11   1.105620 S    
C3    H6    1.109351 S    
N2    C57   1.386255 Am   
C12   H26   1.111250 S    
C37   C42   1.405926 A    
C26   H43   1.081775 S    
C9    H22   1.110817 S    
Ba1   O13   2.803076 S    
N6    O30   1.303860 A    
C36   C39   1.419795 A    
C47   C48   1.412546 A    
C4    C5    1.521097 S    
C11   H25   1.112838 S    
N5    C71   1.449709 S    
O12   Ba2   2.883554 S    
C57   O28   1.221368 D    
C60   C61   1.321645 D    
C20   C26   1.382470 A    
C7    H15   1.110802 S    
C23   H42   1.080818 S    
C58   C62   1.370100 D    
P3    O9    1.543730 D    
O3    P6    1.725374 S    
C63   C64   1.418508 A    
C45   N1    1.400386 Am   
O11   C2    1.401990 S    
C29   H45   1.064334 S    
C51   C52   1.405824 A    
C46   O26   1.224478 D    
C40   H50   1.083157 S    
C1    C10   1.521357 S    
C17   H39   1.080747 S    
C31   C32   1.386541 A    
C39   H49   1.064380 S    
C11   O22   1.413005 S    
O10   C8    1.399121 S    
C60   C68   1.309501 D    
P5    O19   1.749545 S    
O17   Ba2   2.729556 S    
C41   H51   1.080326 S    
