data_mof_unit_35686.cif
_audit_creation_date              2012-12-10T20:28:44-0500
_audit_creation_method            fapswitch 2.2
_symmetry_space_group_name_H-M    P1
_symmetry_Int_Tables_number       1
_space_group_crystal_system       triclinic
_cell_length_a                    10.738984
_cell_length_b                    10.734595
_cell_length_c                    9.920381
_cell_angle_alpha                 88.737073
_cell_angle_beta                  88.477357
_cell_angle_gamma                 90.71975
_cell_volume                      1142.82765498

loop_
_atom_site_label
_atom_site_type_symbol
_atom_type_description
_atom_site_fract_x
_atom_site_fract_y
_atom_site_fract_z
_atom_type_partial_charge
C1    C     C_R   0.500844 0.260178 0.500420 0.855143
C2    C     C_R   0.559532 0.938437 0.388724 -0.215646
C3    C     C_R   0.496872 0.871179 0.492938 -0.084758
C4    C     C_R   0.261326 0.515382 0.501471 0.908859
C5    C     C_R   0.421358 0.932200 0.584970 0.123036
C6    C     C_3   0.415492 0.922741 0.735128 -0.449090
C7    C     C_3   0.407649 0.062662 0.733427 -0.531671
C8    C     C_R   0.462580 0.397358 0.075875 0.136722
C9    C     C_R   0.553303 0.594980 0.068712 -0.109042
C10   C     C_R   0.555779 0.594527 0.924431 0.146259
C11   C     C_R   0.465386 0.395475 0.934274 0.121642
C12   C     C_R   0.057815 0.535090 0.625259 0.065373
C13   C     C_3   0.347591 0.318167 0.938932 -0.177710
C14   C     C_3   0.339923 0.331831 0.090850 -0.131640
C15   C     C_R   0.501720 0.739543 0.498323 0.874442
C16   C     C_R   0.740587 0.493020 0.498555 0.905436
C17   C     C_R   0.099239 0.581613 0.749528 0.160654
C18   C     C_R   0.033078 0.548799 0.869581 -0.157496
C19   C     C_R   0.931510 0.467317 0.866084 -0.180428
C20   C     C_R   0.884233 0.434163 0.742699 -0.169266
C21   C     C_R   0.938042 0.483858 0.621127 0.017317
C22   C     C_R   0.128864 0.537483 0.503730 -0.195728
C23   C     C_R   0.070077 0.535949 0.380195 -0.260547
C24   C     C_R   0.943574 0.519074 0.375642 0.389065
C25   C     C_R   0.875559 0.490280 0.496692 -0.216384
C26   C     C_R   0.419268 0.059691 0.584452 0.113178
C27   C     C_R   0.497701 0.127842 0.496564 -0.085492
C28   C     C_R   0.560962 0.067562 0.391314 -0.234960
Cl1   Cl    Cl    0.880243 0.533416 0.213742 -0.702044
H1    H     H_    0.122705 0.546441 0.285737 0.194099
H2    H     H_    0.804730 0.371217 0.743653 0.165997
H3    H     H_    0.615716 0.119685 0.315478 0.166169
H4    H     H_    0.613049 0.891709 0.311175 0.164688
H5    H     H_    0.329308 0.877492 0.776424 0.198906
H6    H     H_    0.701987 0.652730 0.808679 0.222057
H7    H     H_    0.650447 0.761078 0.914069 0.145355
H8    H     H_    0.162479 0.334679 0.914479 0.195416
H9    H     H_    0.245855 0.338986 0.772543 0.217023
H10   H     H_    0.434323 0.174640 0.156274 0.201520
H11   H     H_    0.320712 0.223841 0.263270 0.220145
H12   H     H_    0.503230 0.889066 0.778611 0.227863
H13   H     H_    0.171488 0.750490 0.702779 0.157479
H14   H     H_    0.219745 0.692529 0.851329 0.172900
H15   H     H_    0.312920 0.093915 0.763510 0.196552
H16   H     H_    0.488925 0.108554 0.779884 0.214617
H17   H     H_    0.594926 0.671735 0.121102 0.161126
H18   H     H_    0.363714 0.221230 0.912771 0.161912
H19   H     H_    0.263524 0.392367 0.128300 0.182693
H20   H     H_    0.063929 0.581163 0.965918 0.175028
H21   H     H_    0.886415 0.432829 0.958328 0.210283
N1    N     N_R   0.499160 0.499140 0.142800 -0.119970
N2    N     N_R   0.499160 0.499180 0.857150 -0.098727
N3    N     N_3   0.621074 0.691507 0.849511 -0.417562
N4    N     N_3   0.243813 0.373575 0.870098 -0.405189
N5    N     N_3   0.344371 0.210878 0.161804 -0.448704
N6    N     N_3   0.200822 0.669378 0.752032 -0.413069
O1    O     O_R   0.500020 0.316790 0.614690 -0.626716
O2    O     O_R   0.500000 0.316760 0.385350 -0.630339
O3    O     O_R   0.316770 0.500020 0.614690 -0.589627
O4    O     O_R   0.316760 0.499980 0.385350 -0.637392
O5    O     O_R   0.500000 0.683240 0.614650 -0.590607
O6    O     O_R   0.499980 0.683210 0.385310 -0.630408
O7    O     O_R   0.683240 0.500020 0.614650 -0.643367
O8    O     O_R   0.683230 0.499980 0.385310 -0.545019
Zn1   Zn    Zn3+2 0.500010 0.500020 0.653130 0.960535
Zn2   Zn    Zn3+2 0.499990 0.499980 0.346870 0.969109

loop_
_geom_bond_atom_site_label_1
_geom_bond_atom_site_label_2
_ccdc_geom_bond_type
C12   C17   A    
C8    C14   S    
C23   C24   A    
O7    Zn1   S    
C24   C25   A    
C6    C7    S    
C11   N2    A    
C16   O7    A    
C1    O1    A    
H6    N3    S    
C4    C22   S    
C9    C10   A    
C19   C20   A    
H9    N4    S    
C3    C5    A    
H11   N5    S    
C10   N2    A    
C4    O4    A    
C14   N5    S    
C15   O5    A    
O4    Zn2   S    
C9    H17   S    
C7    H15   S    
O3    Zn1   S    
C11   C13   S    
C19   H21   S    
O8    Zn2   S    
C26   C27   A    
C7    C26   S    
C8    C11   A    
H8    N4    S    
C7    H16   S    
C4    O3    A    
C15   O6    A    
C6    H12   S    
C2    C3    A    
C17   N6    S    
C22   C23   A    
C5    C6    S    
C20   H2    S    
C12   C22   A    
C2    C28   A    
O6    Zn2   S    
C5    C26   A    
C23   H1    S    
O5    Zn1   S    
H14   N6    S    
C28   H3    S    
C3    C15   S    
C20   C21   A    
C2    H4    S    
C17   C18   A    
C13   N4    S    
C8    N1    A    
C16   C25   S    
C1    C27   S    
C10   N3    S    
C21   C25   A    
C24   Cl1   S    
C18   C19   A    
C14   H19   S    
H7    N3    S    
C16   O8    A    
C13   C14   S    
H13   N6    S    
C1    O2    A    
C13   H18   S    
C12   C21   A    
O2    Zn2   S    
H10   N5    S    
N2    Zn1   S    
C6    H5    S    
C18   H20   S    
O1    Zn1   S    
C27   C28   A    
N1    Zn2   S    
C9    N1    A    
