data_mof_unit_49559.cif
_audit_creation_date              2012-12-10T16:56:33-0500
_audit_creation_method            fapswitch 2.2
_symmetry_space_group_name_H-M    P1
_symmetry_Int_Tables_number       1
_space_group_crystal_system       triclinic
_cell_length_a                    7.813106
_cell_length_b                    8.563587
_cell_length_c                    15.700598
_cell_angle_alpha                 91.422841
_cell_angle_beta                  84.718289
_cell_angle_gamma                 93.853948
_cell_volume                      1043.48941198

loop_
_atom_site_label
_atom_site_type_symbol
_atom_type_description
_atom_site_fract_x
_atom_site_fract_y
_atom_site_fract_z
_atom_type_partial_charge
C1    C     C_R   0.545787 0.794637 0.497871 0.957853
C2    C     C_3   0.339511 0.476560 0.034647 0.066530
C3    C     C_1   0.501079 0.500306 0.750749 -0.176663
C4    C     C_1   0.498921 0.499693 0.249251 -0.176646
C5    C     C_3   0.404769 0.615917 0.977616 -0.203878
C6    C     C_3   0.595232 0.384082 0.022384 -0.203879
C7    C     C_3   0.499746 0.500046 0.916993 0.142647
C8    C     C_3   0.500254 0.499953 0.083007 0.142645
C9    C     C_1   0.500476 0.500187 0.826083 -0.050571
C10   C     C_1   0.499524 0.499813 0.173917 -0.050572
C11   C     C_1   0.836932 0.549252 0.925078 0.155439
C12   C     C_R   0.454213 0.205363 0.502129 0.957847
C13   C     C_1   0.163068 0.450747 0.074921 0.155442
C14   C     C_3   0.987438 0.277618 0.363116 -0.668898
C15   C     C_3   0.012476 0.722370 0.636882 -0.668929
C16   C     C_R   0.500530 0.500409 0.661890 0.894803
C17   C     C_R   0.499470 0.499591 0.338110 0.894801
C18   C     C_2   0.569733 0.958330 0.496542 -0.381726
C19   C     C_2   0.430267 0.041670 0.503458 -0.381722
C20   C     C_3   0.568133 0.639688 0.027159 -0.221806
C21   C     C_3   0.431868 0.360311 0.972841 -0.221805
C22   C     C_3   0.660489 0.523439 0.965353 0.066529
H1    H     H_    0.625071 0.752859 0.051076 0.146790
H2    H     H_    0.848254 0.253270 0.355614 0.239253
H3    H     H_    0.031882 0.771720 0.508122 0.210983
H4    H     H_    0.944044 0.828786 0.656516 0.198901
H5    H     H_    0.151649 0.746655 0.644431 0.239250
H6    H     H_    0.959627 0.625162 0.679156 0.244895
H7    H     H_    0.374929 0.247140 0.948924 0.146790
H8    H     H_    0.674063 0.290661 0.042431 0.154413
H9    H     H_    0.325938 0.709339 0.957569 0.154412
H10   H     H_    0.701349 0.009655 0.489831 0.171185
H11   H     H_    0.298651 0.990345 0.510169 0.171174
H12   H     H_    0.968238 0.228294 0.491880 0.210975
H13   H     H_    0.055903 0.171230 0.343461 0.198896
H14   H     H_    0.040182 0.374837 0.320824 0.244887
N1    N     N_2   0.950320 0.457950 0.477300 0.030687
N2    N     N_2   0.049680 0.542050 0.522700 0.030668
N3    N     N_1   0.975927 0.569567 0.893197 -0.220841
N4    N     N_1   0.024073 0.430432 0.106803 -0.220848
N5    N     N_2   0.013423 0.317275 0.451023 -0.189708
N6    N     N_2   0.986598 0.682741 0.548961 -0.189710
O1    O     O_R   0.389250 0.738570 0.505570 -0.629359
O2    O     O_R   0.610750 0.261430 0.494430 -0.629351
O3    O     O_R   0.678390 0.711630 0.491020 -0.613961
O4    O     O_R   0.321610 0.288370 0.508980 -0.613994
O5    O     O_R   0.355460 0.513480 0.630490 -0.618077
O6    O     O_R   0.644540 0.486520 0.369510 -0.618081
O7    O     O_R   0.644600 0.486540 0.615950 -0.605588
O8    O     O_R   0.355400 0.513460 0.384050 -0.605567
Zn1   Zn    Zn3+2 0.306940 0.517990 0.509710 0.966740
Zn2   Zn    Zn3+2 0.693060 0.482010 0.490290 0.966743

loop_
_geom_bond_atom_site_label_1
_geom_bond_atom_site_label_2
_ccdc_geom_bond_type
C17   O8    A    
H3    N6    S    
C11   N3    T    
C20   H1    S    
N1    N2    D    
C3    C9    T    
C7    C22   S    
C11   C22   S    
C15   H5    S    
C17   O6    A    
O7    Zn2   S    
O1    Zn1   S    
O2    Zn2   S    
C2    C21   S    
O8    Zn1   S    
C15   H6    S    
C12   O2    A    
C5    C20   S    
C14   H14   S    
C1    O3    A    
C1    C18   S    
C8    C20   S    
H12   N5    S    
C14   N5    S    
C6    C8    S    
C4    C17   S    
C12   C19   S    
C8    C10   S    
C6    H8    S    
C20   C22   S    
N2    N6    S    
C5    C7    S    
N1    N5    S    
C2    C5    S    
C18   H10   S    
N1    Zn2   S    
C4    C10   T    
C6    C22   S    
O6    Zn2   S    
C16   O7    A    
C16   O5    A    
C12   O4    A    
C18   C19   D    
C19   H11   S    
C14   H2    S    
C14   H13   S    
C7    C9    S    
C2    C13   S    
C13   N4    T    
O5    Zn1   S    
N2    Zn1   S    
O3    Zn2   S    
C5    H9    S    
C7    C21   S    
C6    C21   S    
C21   H7    S    
O4    Zn1   S    
C1    O1    A    
C2    C8    S    
C3    C16   S    
C15   N6    S    
C15   H4    S    
