data_mof_unit_7507.cif
_audit_creation_date              2012-12-10T16:35:07-0500
_audit_creation_method            fapswitch 2.2
_symmetry_space_group_name_H-M    P1
_symmetry_Int_Tables_number       1
_space_group_crystal_system       triclinic
_cell_length_a                    10.878531
_cell_length_b                    10.887052
_cell_length_c                    10.838182
_cell_angle_alpha                 81.40498
_cell_angle_beta                  98.303928
_cell_angle_gamma                 90.431813
_cell_volume                      1255.7697051

loop_
_atom_site_label
_atom_site_type_symbol
_atom_type_description
_atom_site_fract_x
_atom_site_fract_y
_atom_site_fract_z
_atom_type_partial_charge
C1    C     C_R   0.834298 0.471114 0.528546 0.731209
C2    C     C_2   0.466687 0.028704 0.530466 0.267541
C3    C     C_2   0.540076 0.965468 0.470448 -0.251401
C4    C     C_2   0.030278 0.540763 0.469609 -0.278141
C5    C     C_3   0.386497 0.962903 0.716137 0.063449
C6    C     C_3   0.469073 0.852251 0.782342 -0.357131
C7    C     C_3   0.476601 0.840798 0.925289 -0.872124
C8    C     C_1   0.653070 0.013522 0.425749 0.140092
C9    C     C_1   0.968021 0.647761 0.388966 0.154603
C10   C     C_3   0.958037 0.279886 0.694285 0.085844
C11   C     C_3   0.043079 0.183683 0.782964 -0.296842
C12   C     C_2   0.967667 0.455976 0.540494 0.308852
C13   C     C_3   0.973026 0.108591 0.880312 -0.997276
C14   C     C_3   0.238656 0.514696 0.988790 0.076283
C15   C     C_3   0.127260 0.552012 0.887076 -0.304791
C16   C     C_3   0.005867 0.506516 0.932100 -0.952161
C17   C     C_3   0.706529 0.323425 0.017684 0.098343
C18   C     C_3   0.640567 0.210110 0.078857 -0.366790
C19   C     C_3   0.705673 0.089193 0.068614 -0.935770
C20   C     C_2   0.452261 0.517831 0.024934 0.168867
C21   C     C_2   0.540208 0.464629 0.973764 0.246811
C22   C     C_R   0.164273 0.527596 0.473693 0.872656
C23   C     C_R   0.524549 0.473000 0.838487 0.816572
C24   C     C_R   0.473532 0.523906 0.160515 0.792812
C25   C     C_R   0.525200 0.834251 0.476324 0.912934
C26   C     C_R   0.477535 0.163883 0.524340 0.750223
H1    H     H_    0.293476 0.951508 0.747003 0.176166
H2    H     H_    0.081969 0.119558 0.727194 0.235152
H3    H     H_    0.121478 0.231707 0.832777 0.225995
H4    H     H_    0.936632 0.170856 0.939374 0.259255
H5    H     H_    0.036924 0.038911 0.942504 0.278701
H6    H     H_    0.894511 0.059119 0.832751 0.270761
H7    H     H_    0.220598 0.547372 0.076955 0.173763
H8    H     H_    0.247651 0.411262 0.004991 0.115920
H9    H     H_    0.122401 0.654904 0.862493 0.231459
H10   H     H_    0.139010 0.511901 0.800916 0.242940
H11   H     H_    0.008608 0.403853 0.957980 0.249806
H12   H     H_    0.425164 0.049168 0.748698 0.146736
H13   H     H_    0.927008 0.533078 0.855650 0.282456
H14   H     H_    0.990165 0.549395 0.015408 0.278295
H15   H     H_    0.806013 0.317939 0.059924 0.177266
H16   H     H_    0.705437 0.321561 0.915153 0.096573
H17   H     H_    0.639704 0.216819 0.179984 0.271316
H18   H     H_    0.542827 0.208473 0.032013 0.195118
H19   H     H_    0.703170 0.078250 0.968008 0.256904
H20   H     H_    0.657840 0.009481 0.116736 0.273182
H21   H     H_    0.803755 0.088259 0.114819 0.281609
H22   H     H_    0.431245 0.765171 0.750775 0.252019
H23   H     H_    0.564411 0.865685 0.757873 0.224567
H24   H     H_    0.509086 0.928950 0.957788 0.245856
H25   H     H_    0.543454 0.765539 0.971391 0.273309
H26   H     H_    0.383988 0.818934 0.954017 0.289456
H27   H     H_    0.881955 0.230789 0.642102 0.149416
H28   H     H_    0.918142 0.341465 0.752062 0.121300
N1    N     N_1   0.743846 0.051049 0.390954 -0.168969
N2    N     N_1   0.918434 0.732874 0.324819 -0.177721
O1    O     O_3   0.500000 0.500000 0.500000 -0.496102
O2    O     O_R   0.597340 0.765700 0.560080 -0.664463
O3    O     O_R   0.548200 0.222430 0.451790 -0.662434
O4    O     O_R   0.441590 0.789440 0.401000 -0.615656
O5    O     O_R   0.412860 0.222430 0.587130 -0.635359
O6    O     O_3   0.369298 0.967513 0.583214 -0.630280
O7    O     O_3   0.028401 0.348294 0.608336 -0.614207
O8    O     O_3   0.346408 0.570739 0.948219 -0.670276
O9    O     O_3   0.657313 0.435510 0.043379 -0.635390
O10   O     O_R   0.441590 0.410520 0.779910 -0.660326
O11   O     O_R   0.548210 0.443940 0.230290 -0.611102
O12   O     O_R   0.787780 0.544200 0.591150 -0.660042
O13   O     O_R   0.222430 0.601350 0.398650 -0.648441
O14   O     O_R   0.767360 0.410530 0.454140 -0.626502
O15   O     O_R   0.222430 0.443930 0.556060 -0.578340
O16   O     O_R   0.597340 0.544190 0.781580 -0.645532
O17   O     O_R   0.412870 0.601350 0.208220 -0.648996
Zn1   Zn    Zn3+2 0.396020 0.396030 0.603970 0.977091
Zn2   Zn    Zn3+2 0.618560 0.587010 0.606350 0.959615
Zn3   Zn    Zn3+2 0.396030 0.620930 0.379070 0.988210
Zn4   Zn    Zn3+2 0.589390 0.396030 0.410610 0.975262

loop_
_geom_bond_atom_site_label_1
_geom_bond_atom_site_label_2
_ccdc_geom_bond_type
O1    Zn1   S    
C14   H8    S    
O15   Zn1   S    
C5    O6    S    
C19   H19   S    
C20   O8    S    
C6    C7    S    
C25   O4    A    
C18   H18   S    
O5    Zn1   S    
C4    C12   D    
C4    C22   S    
C26   O3    A    
C15   H10   S    
C13   H6    S    
C17   O9    S    
C10   O7    S    
O11   Zn4   S    
C16   H11   S    
C14   O8    S    
O3    Zn4   S    
C14   H7    S    
C14   C15   S    
C2    C3    D    
C19   H20   S    
C7    H25   S    
C2    C26   S    
C9    N2    T    
C18   H17   S    
O12   Zn2   S    
C11   C13   S    
O1    Zn2   S    
C25   O2    A    
C1    C12   S    
C6    H22   S    
C11   H2    S    
C16   H14   S    
O16   Zn2   S    
C8    N1    T    
C15   H9    S    
C26   O5    A    
O4    Zn3   S    
C7    H26   S    
C17   C18   S    
C19   H21   S    
C21   C23   S    
C6    H23   S    
C5    C6    S    
C10   H28   S    
O17   Zn3   S    
C17   H15   S    
C24   O17   A    
C11   H3    S    
C16   H13   S    
C23   O10   A    
C15   C16   S    
O10   Zn1   S    
O1    Zn4   S    
C13   H4    S    
C3    C25   S    
C1    O12   A    
C5    H12   S    
C20   C21   D    
O1    Zn3   S    
O13   Zn3   S    
C3    C8    S    
C10   C11   S    
C22   O15   A    
C10   H27   S    
C12   O7    S    
C20   C24   S    
C17   H16   S    
C18   C19   S    
C22   O13   A    
C24   O11   A    
C21   O9    S    
C4    C9    S    
C5    H1    S    
C2    O6    S    
C23   O16   A    
C13   H5    S    
C1    O14   A    
C7    H24   S    
O2    Zn2   S    
O14   Zn4   S    
