data_mof_unit_58764.cif
_audit_creation_date              2012-12-11T17:37:44-0500
_audit_creation_method            fapswitch 2.2
_symmetry_space_group_name_H-M    P1
_symmetry_Int_Tables_number       1
_space_group_crystal_system       triclinic
_cell_length_a                    13.062007
_cell_length_b                    13.172194
_cell_length_c                    15.409359
_cell_angle_alpha                 116.756124
_cell_angle_beta                  62.811425
_cell_angle_gamma                 97.106594
_cell_volume                      2094.56528201

loop_
_atom_site_label
_atom_site_type_symbol
_atom_type_description
_atom_site_fract_x
_atom_site_fract_y
_atom_site_fract_z
_atom_type_partial_charge
C1    C     C_R   0.990090 0.828675 0.064959 -0.103877
C2    C     C_R   0.293260 0.599827 0.789058 -0.043982
C3    C     C_R   0.261302 0.417172 0.044975 0.537044
C4    C     C_R   0.678296 0.476343 0.221944 -0.087323
C5    C     C_R   0.065413 0.278975 0.685653 -0.114764
C6    C     C_R   0.364325 0.432323 0.968847 0.036950
C7    C     C_R   0.061624 0.169258 0.678020 0.033082
C8    C     C_R   0.284123 0.575880 0.694080 0.090073
C9    C     C_R   0.998632 0.156575 0.051885 0.083924
C10   C     C_R   0.279089 0.052282 0.143949 -0.180366
C11   C     C_R   0.269777 0.021542 0.222682 -0.219758
C12   C     C_R   0.667470 0.549073 0.326771 0.062277
C13   C     C_R   0.160468 0.025735 0.305627 0.058362
C14   C     C_R   0.060916 0.065057 0.311654 -0.243663
C15   C     C_R   0.070176 0.099923 0.234402 0.551687
C16   C     C_R   0.755780 0.520341 0.894399 0.725742
C17   C     C_R   0.179970 0.088923 0.148593 -0.200221
C18   C     C_R   0.158843 0.070429 0.477424 -0.203169
C19   C     C_R   0.105304 0.061130 0.575338 0.052899
C20   C     C_R   0.075400 0.952066 0.570445 0.044545
C21   C     C_R   0.092360 0.860943 0.470732 -0.267464
C22   C     C_R   0.110977 0.881766 0.383578 0.048931
C23   C     C_R   0.663804 0.459413 0.924954 -0.236136
C24   C     C_R   0.149315 0.988015 0.385902 0.063336
C25   C     C_R   0.053083 0.879896 0.701875 -0.225243
C26   C     C_R   0.982172 0.854074 0.788364 -0.124978
C27   C     C_R   0.862139 0.881511 0.840113 0.060581
C28   C     C_R   0.013720 0.704529 0.303848 -0.151686
C29   C     C_R   0.813039 0.937526 0.807888 0.023539
C30   C     C_R   0.883469 0.963551 0.721833 -0.186322
C31   C     C_R   0.003762 0.932677 0.666833 0.088222
C32   C     C_R   0.771631 0.635639 0.609301 -0.241224
C33   C     C_R   0.673590 0.619342 0.593335 0.776008
C34   C     C_R   0.074062 0.799303 0.301750 0.066078
C35   C     C_R   0.644458 0.688279 0.558314 -0.120492
C36   C     C_R   0.709635 0.777274 0.545412 -0.244060
C37   C     C_R   0.811382 0.788421 0.555291 -0.122666
C38   C     C_R   0.843546 0.716439 0.585617 -0.227376
C39   C     C_R   0.440330 0.683476 0.624959 -0.171644
C40   C     C_R   0.677420 0.421448 0.989299 -0.319606
C41   C     C_R   0.352005 0.618693 0.611149 0.039161
C42   C     C_R   0.351313 0.577220 0.508463 0.047106
C43   C     C_R   0.452377 0.575613 0.419421 -0.260904
C44   C     C_R   0.555750 0.601522 0.428038 0.072705
C45   C     C_R   0.338803 0.513418 0.945947 -0.166883
C46   C     C_R   0.546168 0.664764 0.534677 0.106248
C47   C     C_R   0.282735 0.395858 0.417675 -0.242481
C48   C     C_R   0.192189 0.328440 0.418359 -0.219851
C49   C     C_R   0.077332 0.375830 0.488136 0.563853
C50   C     C_R   0.054348 0.496419 0.542946 -0.316188
C51   C     C_R   0.145678 0.565234 0.538583 -0.234542
C52   C     C_R   0.099677 0.796131 0.203570 -0.164799
C53   C     C_R   0.259363 0.513827 0.484091 0.130958
C54   C     C_2   0.477971 0.395771 0.945201 -0.392388
C55   C     C_2   0.573196 0.434727 0.891005 0.778809
C56   C     C_R   0.990673 0.182349 0.782948 -0.131137
C57   C     C_2   0.800606 0.938955 0.130465 -0.136438
C58   C     C_2   0.766975 0.987564 0.237509 -0.110866
C59   C     C_R   0.780289 0.557060 0.315966 -0.157567
C60   C     C_R   0.888842 0.744903 0.972094 -0.190341
C61   C     C_R   0.895367 0.845893 0.053313 0.112092
C62   C     C_3   0.235409 0.462576 0.215602 0.263253
C63   C     C_3   0.111365 0.470166 0.298567 -0.961781
C64   C     C_3   0.899538 0.219334 0.332622 0.263635
C65   C     C_3   0.811988 0.272176 0.320780 -0.876683
C66   C     C_3   0.896089 0.342768 0.600767 0.262118
C67   C     C_R   0.194593 0.509300 0.696466 -0.155707
C68   C     C_3   0.834571 0.243073 0.619489 -0.858715
C69   C     C_R   0.049140 0.255990 0.088660 -0.273526
C70   C     C_R   0.943198 0.177150 0.002846 0.626614
F1    F     F_    0.857203 0.118035 0.984331 -0.741899
F2    F     F_    0.784408 0.557718 0.818118 -0.742831
F3    F     F_    0.608361 0.535004 0.609682 -0.691489
F4    F     F_    0.579883 0.469827 0.818162 -0.661679
H1    H     H_    0.013328 0.887155 0.127578 0.126139
H2    H     H_    0.610245 0.448811 0.197809 0.094854
H3    H     H_    0.976865 0.064728 0.374246 0.137452
H4    H     H_    0.191347 0.149087 0.475865 0.131658
H5    H     H_    0.071854 0.777806 0.467660 0.127479
H6    H     H_    0.145750 0.857748 0.661528 0.129427
H7    H     H_    0.020703 0.812243 0.814306 0.131525
H8    H     H_    0.806259 0.862229 0.906771 0.088271
H9    H     H_    0.720512 0.960536 0.849378 0.102769
H10   H     H_    0.844716 0.008263 0.698103 0.120632
H11   H     H_    0.923032 0.723602 0.592342 0.162633
H12   H     H_    0.979965 0.120879 0.812309 0.169358
H13   H     H_    0.791492 0.584441 0.638854 0.185782
H14   H     H_    0.686507 0.831628 0.519914 0.151387
H15   H     H_    0.865898 0.851291 0.536401 0.143638
H16   H     H_    0.436920 0.729163 0.704912 0.117854
H17   H     H_    0.452079 0.539002 0.341156 0.118607
H18   H     H_    0.370484 0.354881 0.371916 0.151467
H19   H     H_    0.212246 0.237862 0.370300 0.162318
H20   H     H_    0.967612 0.537412 0.594545 0.151645
H21   H     H_    0.992120 0.671257 0.361508 0.115710
H22   H     H_    0.126932 0.656312 0.587936 0.145852
H23   H     H_    0.153494 0.480766 0.646000 0.132650
H24   H     H_    0.478021 0.358292 0.994953 0.137714
H25   H     H_    0.749494 0.961631 0.101511 0.150724
H26   H     H_    0.810836 0.964371 0.272252 0.133708
H27   H     H_    0.632143 0.357683 0.014494 0.154179
H28   H     H_    0.164601 0.838124 0.161295 0.129525
H29   H     H_    0.810456 0.599112 0.375907 0.135276
H30   H     H_    0.817384 0.726731 0.952667 0.156334
H31   H     H_    0.396235 0.552121 0.895304 0.216458
H32   H     H_    0.254692 0.548126 0.216576 0.074773
H33   H     H_    0.293816 0.442861 0.241630 0.135723
H34   H     H_    0.084766 0.274711 0.143932 0.222594
H35   H     H_    0.098795 0.392387 0.311004 0.257084
H36   H     H_    0.092971 0.546630 0.376741 0.234693
H37   H     H_    0.050116 0.476193 0.269354 0.251338
H38   H     H_    0.948833 0.289593 0.362348 0.142143
H39   H     H_    0.850472 0.185995 0.393193 0.125507
H40   H     H_    0.771682 0.205609 0.274171 0.277498
H41   H     H_    0.742969 0.327549 0.402806 0.252368
H42   H     H_    0.854374 0.326437 0.278829 0.243289
H43   H     H_    0.834912 0.397285 0.603920 0.171863
H44   H     H_    0.921298 0.391994 0.667107 0.144161
H45   H     H_    0.345966 0.659826 0.820983 0.095503
H46   H     H_    0.896957 0.179055 0.603195 0.249901
H47   H     H_    0.766693 0.274146 0.705079 0.230252
H48   H     H_    0.793060 0.200955 0.565027 0.234128
H49   H     H_    0.113765 0.303943 0.621685 0.110198
H50   H     H_    0.189345 0.107810 0.084204 0.148709
H51   H     H_    0.363195 0.046089 0.078145 0.148938
H52   H     H_    0.346934 0.992016 0.217737 0.141867
N1    N     N_R   0.037320 0.720000 0.995830 -0.054405
N2    N     N_R   0.824900 0.517970 0.936430 -0.109909
N3    N     N_R   0.003190 0.648180 0.211390 -0.037277
N4    N     N_R   0.774330 0.457010 0.995830 -0.053575
N5    N     N_R   0.053760 0.709130 0.151980 -0.041805
N6    N     N_R   0.853840 0.498830 0.211390 -0.050961
N7    N     N_R   0.974250 0.667320 0.936430 -0.040041
N8    N     N_R   0.225670 0.542990 0.004170 -0.090966
N9    N     N_R   0.946240 0.290870 0.848020 -0.038595
N10   N     N_R   0.146160 0.501170 0.788610 -0.046590
N11   N     N_R   0.025750 0.332680 0.063570 -0.083269
N12   N     N_R   0.962680 0.280000 0.004170 -0.106423
N13   N     N_R   0.209230 0.553860 0.848010 -0.049902
N14   N     N_R   0.175100 0.482030 0.063570 -0.096155
N15   N     N_R   0.996810 0.351820 0.788610 -0.056439
N16   N     N_R   0.790770 0.446140 0.151990 -0.034082
Ni1   Ni    Ni4+2 0.130310 0.630310 0.000000 0.196751
Ni2   Ni    Ni4+2 0.869690 0.369690 0.000000 0.251782
Ni3   Ni    Ni4+2 0.985660 0.509480 0.863750 0.227999
Ni4   Ni    Ni4+2 0.014340 0.490520 0.136250 0.199702
O1    O     O_3   0.255128 0.372351 0.112493 -0.669519
O2    O     O_3   0.973628 0.129945 0.231652 -0.663960
O3    O     O_3   0.993483 0.299920 0.497545 -0.703031

loop_
_geom_bond_atom_site_label_1
_geom_bond_atom_site_label_2
_ccdc_geom_bond_type
C25   C31   A    
C66   C68   S    
C3    O1    S    
C6    C45   A    
C27   C29   A    
C25   H6    S    
C41   C42   A    
C35   C36   A    
C16   F2    S    
C3    C6    A    
C39   C41   A    
C36   H14   S    
C52   H28   S    
C26   C27   A    
C37   C38   A    
C28   H21   S    
C18   C24   A    
C2    N13   A    
C21   C22   A    
C36   C37   A    
C9    C69   A    
C29   H9    S    
C42   C53   S    
C4    N16   A    
C30   C31   A    
N2    Ni3   S    
C64   H38   S    
C10   C17   A    
C23   C40   A    
C57   H25   S    
C28   N3    A    
C65   H40   S    
C14   H3    S    
C40   H27   S    
C12   C59   A    
N13   Ni1   S    
C19   C20   A    
C44   C46   A    
C66   H43   S    
C70   F1    S    
C32   C38   A    
C4    C12   A    
C10   H51   S    
N4    Ni2   S    
C39   H16   S    
N10   Ni3   S    
N15   Ni3   S    
C51   H22   S    
C47   C53   A    
N8    Ni1   S    
C28   C34   A    
C13   C14   A    
C64   O2    S    
N6    N16   A    
C65   H41   S    
C7    C56   A    
C6    C54   S    
N10   N13   A    
C69   H34   S    
C45   H31   S    
C69   N11   A    
C22   C34   S    
C2    C8    A    
C59   N6    A    
C48   H19   S    
C38   H11   S    
C1    H1    S    
C1    N1    A    
N11   Ni4   S    
C11   H52   S    
C58   H26   S    
C8    C41   S    
C66   O3    S    
C68   H48   S    
C5    C7    A    
C63   H37   S    
C18   C19   A    
C62   H33   S    
C25   C26   A    
C32   H13   S    
C43   H17   S    
C13   C24   S    
C1    C61   A    
C60   C61   A    
C51   C53   A    
C63   H35   S    
C43   C44   A    
C62   C63   S    
C17   H50   S    
C56   H12   S    
C47   C48   A    
C18   H4    S    
C21   H5    S    
C50   C51   A    
C45   N8    A    
N1    Ni1   S    
C9    C70   A    
C57   C61   S    
C16   N2    A    
N3    Ni4   S    
C39   C46   A    
C33   F3    S    
C48   C49   A    
C70   N12   A    
C26   H7    S    
C7    C19   S    
C62   O1    S    
C65   H42   S    
N16   Ni2   S    
N7    Ni3   S    
C42   C43   A    
N14   Ni4   S    
C56   N9    A    
N5    Ni1   S    
C15   C17   A    
C40   N4    A    
C54   C55   D    
N9    Ni2   S    
C64   H39   S    
C52   N5    A    
C27   H8    S    
C50   H20   S    
C5    N15   A    
N1    N7    A    
N2    N4    A    
C68   H47   S    
C2    H45   S    
C23   C55   S    
C62   H32   S    
C49   O3    S    
C16   C23   A    
N11   N12   A    
C5    H49   S    
C34   C52   A    
C47   H18   S    
C37   H15   S    
C59   H29   S    
C64   C65   S    
C63   H36   S    
C67   N10   A    
N6    Ni4   S    
C12   C44   S    
N12   Ni2   S    
C32   C33   A    
N8    N14   A    
C11   C13   A    
C57   C58   D    
C15   O2    S    
C33   C35   A    
C22   C24   A    
C30   H10   S    
C4    H2    S    
C10   C11   A    
C67   H23   S    
C29   C30   A    
N9    N15   A    
C20   C21   A    
C8    C67   A    
C49   C50   A    
C66   H44   S    
C14   C15   A    
C54   H24   S    
C3    N14   A    
C60   H30   S    
C35   C46   S    
C60   N7    A    
C55   F4    S    
C68   H46   S    
N3    N5    A    
C20   C31   S    
