data_mof_unit_9078.cif
_audit_creation_date              2013-03-05T15:55:20-0500
_audit_creation_method            fapswitch 2.2
_symmetry_space_group_name_H-M    P1
_symmetry_Int_Tables_number       1
_space_group_crystal_system       triclinic
_cell_length_a                    14.696636
_cell_length_b                    14.729075
_cell_length_c                    33.421482
_cell_angle_alpha                 95.540153
_cell_angle_beta                  96.086095
_cell_angle_gamma                 61.515217
_cell_volume                      6314.27791001

loop_
_atom_site_label
_atom_site_type_symbol
_atom_site_description
_atom_site_fract_x
_atom_site_fract_y
_atom_site_fract_z
_atom_type_partial_charge
O1    O     O_R   0.679450 0.499830 0.463150 -0.520458
O2    O     O_R   0.480650 0.664000 0.464630 -0.522506
C1    C     C_R   0.392458 0.697333 0.445171 0.850196
O3    O     O_R   0.323930 0.675950 0.455370 -0.543069
O4    O     O_R   0.354700 0.475360 0.451930 -0.549757
C2    C     C_R   0.407131 0.387077 0.433737 0.839458
O5    O     O_R   0.494470 0.320860 0.448390 -0.511842
O6    O     O_R   0.662580 0.357570 0.460050 -0.477908
C3    C     C_R   0.650751 0.437474 0.442126 0.873112
O7    O     O_R   0.680900 0.502040 0.551870 -0.523113
O8    O     O_R   0.481990 0.666040 0.546870 -0.496716
C4    C     C_R   0.394197 0.699614 0.561628 0.909402
O9    O     O_R   0.325370 0.678160 0.544080 -0.498009
O10   O     O_R   0.356040 0.477400 0.534170 -0.541304
C5    C     C_R   0.408382 0.387925 0.549241 0.837299
O11   O     O_R   0.495910 0.323070 0.537100 -0.486192
O12   O     O_R   0.663920 0.359620 0.542290 -0.493895
C6    C     C_R   0.700108 0.414289 0.562904 0.914771
Cr1   Cr    Cr6+3 0.576280 0.580550 0.506370 1.092791
Cr2   Cr    Cr6+3 0.346780 0.572400 0.496520 1.012376
Cr3   Cr    Cr6+3 0.576960 0.347070 0.497150 1.136535
O13   O     O_3   0.500010 0.500010 0.500010 -0.417153
H1    H     H_    0.513962 0.217830 0.384276 0.254203
C7    C     C_R   0.375358 0.366409 0.392058 -0.255015
C8    C     C_R   0.285830 0.441813 0.372148 -0.234721
C9    C     C_R   0.263691 0.427349 0.331097 0.643921
C10   C     C_R   0.331165 0.337647 0.309667 -0.228205
C11   C     C_R   0.420986 0.262245 0.329103 0.655894
C12   C     C_R   0.442645 0.276255 0.370098 -0.179024
C13   C     C_R   0.336178 0.185018 0.173287 0.342897
C14   C     C_R   0.329996 0.167822 0.131136 0.191199
C15   C     C_R   0.202796 0.348996 0.124444 -0.143835
C16   C     C_R   0.210458 0.366446 0.166042 -0.125194
C17   C     C_R   0.277395 0.285466 0.190331 -0.088209
C18   C     C_1   0.292063 0.307564 0.232450 0.150117
C19   C     C_1   0.308590 0.322687 0.267701 0.238415
C20   C     C_R   0.263593 0.250317 0.106376 -0.192168
H2    H     H_    0.234557 0.513085 0.388036 0.198082
H3    H     H_    0.165256 0.443772 0.179271 0.203494
H4    H     H_    0.150340 0.413547 0.106424 0.207541
N1    N     N_R   0.690499 0.436533 0.207768 -0.191323
N2    N     N_R   0.659788 0.453329 0.245098 -0.188386
C21   C     C_R   0.666811 0.422118 0.398553 -0.328437
C22   C     C_R   0.662371 0.503075 0.378141 -0.309677
C23   C     C_R   0.671672 0.493351 0.336814 0.645269
C24   C     C_R   0.686215 0.401714 0.315022 -0.318769
C25   C     C_R   0.685271 0.321011 0.334473 0.190248
C26   C     C_R   0.676905 0.331480 0.376365 0.572977
N3    N     N_R   0.806585 0.300217 0.263916 -0.202857
N4    N     N_R   0.837525 0.283982 0.226819 -0.162799
C27   C     C_R   0.780377 0.351720 0.198041 0.684685
C28   C     C_R   0.717410 0.385024 0.273709 0.668928
C29   C     C_R   0.809415 0.412736 0.134881 0.193116
C30   C     C_R   0.847345 0.388425 0.096310 0.589563
C31   C     C_R   0.913815 0.204656 0.104961 0.190594
C32   C     C_R   0.866945 0.229805 0.141521 0.619880
C33   C     C_R   0.817548 0.332454 0.157311 -0.401114
C34   C     C_R   0.903938 0.284626 0.081679 -0.447676
H5    H     H_    0.652158 0.574184 0.394399 0.229664
N5    N     N_R   0.327010 0.733301 0.211302 -0.163458
N6    N     N_R   0.331738 0.721521 0.250608 -0.165875
C35   C     C_R   0.379121 0.737380 0.404724 -0.251919
C36   C     C_R   0.303414 0.728310 0.377501 -0.261115
C37   C     C_R   0.300261 0.739307 0.336552 0.690507
C38   C     C_R   0.372847 0.760523 0.321355 -0.195508
C39   C     C_R   0.445708 0.774767 0.348093 -0.188631
C40   C     C_R   0.450162 0.764450 0.389830 0.335513
N7    N     N_R   0.407520 0.830181 0.264179 -0.201889
N8    N     N_R   0.402121 0.842563 0.224857 -0.151808
C41   C     C_R   0.361980 0.794103 0.197710 0.678645
C42   C     C_R   0.371625 0.770107 0.277781 0.583240
C43   C     C_R   0.261109 0.822368 0.132010 0.599102
C44   C     C_R   0.239007 0.856913 0.093374 0.617162
C45   C     C_R   0.409166 0.847643 0.093968 0.220065
C46   C     C_R   0.428908 0.819059 0.134992 0.230151
C47   C     C_R   0.351486 0.811429 0.154261 -0.407029
C48   C     C_R   0.305898 0.883342 0.076088 -0.456719
H6    H     H_    0.248924 0.706714 0.387444 0.206425
H7    H     H_    0.500441 0.792879 0.336128 0.253096
N9    N     N_R   0.258622 0.419462 0.767325 -0.211098
N10   N     N_R   0.263606 0.425605 0.728170 -0.181007
C49   C     C_R   0.373892 0.363626 0.584989 -0.242434
C50   C     C_R   0.281104 0.439341 0.600867 -0.240515
C51   C     C_R   0.252766 0.430300 0.638395 0.389829
C52   C     C_R   0.320801 0.344542 0.661278 -0.164392
C53   C     C_R   0.410064 0.265781 0.644479 -0.208548
C54   C     C_R   0.437425 0.272910 0.606557 0.379692
N11   N     N_R   0.347027 0.244890 0.720201 -0.251228
N12   N     N_R   0.342852 0.238657 0.759384 -0.176522
C55   C     C_R   0.298665 0.325855 0.783609 0.626390
C56   C     C_R   0.307116 0.338479 0.703814 0.573265
C57   C     C_R   0.213567 0.391058 0.848060 -0.247103
C58   C     C_R   0.211147 0.382159 0.888974 0.650579
C59   C     C_R   0.388785 0.240346 0.890304 0.211224
C60   C     C_R   0.387477 0.245377 0.848210 0.627770
C61   C     C_R   0.298978 0.319159 0.827053 -0.295094
C62   C     C_R   0.293809 0.300616 0.909538 -0.398232
H8    H     H_    0.230818 0.507294 0.584201 0.220429
H9    H     H_    0.461396 0.198935 0.661579 0.219985
H10   H     H_    0.146770 0.451877 0.832489 0.242424
H11   H     H_    0.885953 0.158878 0.803456 0.221980
C63   C     C_R   0.747256 0.385657 0.603992 -0.365744
C64   C     C_R   0.764245 0.458251 0.629755 -0.247123
C65   C     C_R   0.787733 0.444673 0.671133 0.332145
C66   C     C_R   0.798282 0.354016 0.686652 -0.291921
C67   C     C_R   0.785044 0.279588 0.660939 0.571226
C68   C     C_R   0.759025 0.295362 0.619937 0.586033
C69   C     C_R   0.879256 0.224542 0.823219 -0.198486
C70   C     C_R   0.907362 0.210733 0.864118 0.640520
C71   C     C_R   0.865718 0.392913 0.874644 0.211419
C72   C     C_R   0.834820 0.406939 0.833232 0.305892
C73   C     C_R   0.846104 0.320729 0.807630 -0.194736
C74   C     C_1   0.829412 0.328915 0.764803 0.183606
C75   C     C_1   0.815675 0.339143 0.729099 0.236119
C76   C     C_R   0.906898 0.292328 0.890080 -0.372313
H12   H     H_    0.754941 0.528392 0.617993 0.263729
H13   H     H_    0.516894 0.778316 0.687291 0.229080
C77   C     C_R   0.378151 0.748721 0.602915 -0.353792
C78   C     C_R   0.283719 0.778480 0.620464 0.604204
C79   C     C_R   0.274702 0.806310 0.661402 -0.144266
C80   C     C_R   0.358728 0.805282 0.685559 -0.144116
C81   C     C_R   0.451362 0.779736 0.668529 -0.137428
C82   C     C_R   0.461444 0.751658 0.627432 0.587730
C83   C     C_R   0.389438 0.885973 0.830877 0.610514
C84   C     C_R   0.375966 0.909481 0.872116 0.201388
C85   C     C_R   0.228227 0.873328 0.864073 0.257457
C86   C     C_R   0.241434 0.851479 0.822101 0.219883
C87   C     C_R   0.321649 0.860730 0.805938 -0.291047
C88   C     C_1   0.338911 0.840840 0.763712 0.257302
C89   C     C_1   0.350306 0.825040 0.728154 0.148032
C90   C     C_R   0.291013 0.909614 0.888795 -0.409062
H14   H     H_    0.202848 0.825516 0.674559 0.228392
O14   O     O_R   0.170070 0.978950 0.027680 -0.475687
O15   O     O_R   0.001760 0.175230 0.026640 -0.513169
C91   C     C_R   0.964655 0.263445 0.046053 0.894653
O16   O     O_R   0.984760 0.333570 0.037150 -0.499368
O17   O     O_R   0.183410 0.309240 0.041890 -0.530744
C92   C     C_R   0.254120 0.232159 0.062199 0.804364
O18   O     O_R   0.340240 0.172500 0.045430 -0.484096
O19   O     O_R   0.309670 0.000990 0.032050 -0.522063
C93   C     C_R   0.261785 0.954695 0.042372 0.932970
O20   O     O_R   0.168330 0.982130 0.939200 -0.490301
O21   O     O_R   0.000140 0.178170 0.944610 -0.495854
C94   C     C_R   0.961782 0.268990 0.930824 0.882921
O22   O     O_R   0.983010 0.336750 0.948660 -0.498243
O23   O     O_R   0.181800 0.312190 0.959860 -0.496206
C95   C     C_R   0.272396 0.264692 0.945764 0.919183
O24   O     O_R   0.338500 0.175680 0.956950 -0.500619
O25   O     O_R   0.308050 0.003930 0.950020 -0.513081
C96   C     C_R   0.256733 0.963649 0.929052 0.908009
Cr4   Cr    Cr6+3 0.087320 0.083240 0.984860 1.166859
Cr5   Cr    Cr6+3 0.087720 0.316210 0.996740 1.123907
Cr6   Cr    Cr6+3 0.317350 0.090340 0.995890 1.149694
O26   O     O_3   0.164130 0.163270 0.992500 -0.433900
N13   N     N_R   0.386966 0.065376 0.113880 -0.188686
O27   O     O_R   0.480071 0.033335 0.102794 -0.000333
O28   O     O_R   0.480211 0.033276 0.102775 -0.000333
F1    F     F_    0.677024 0.253652 0.395182 -0.594768
F2    F     F_    0.835821 0.466577 0.074235 -0.536879
F3    F     F_    0.671196 0.571844 0.318346 -0.597833
N14   N     N_R   0.690002 0.230057 0.311949 0.196608
O29   O     O_R   0.652389 0.235331 0.274696 -0.304553
O30   O     O_R   0.722932 0.143725 0.329485 -0.221794
N15   N     N_R   0.771207 0.517365 0.151744 0.215216
O31   O     O_R   0.726749 0.594716 0.128280 -0.203724
O32   O     O_R   0.797443 0.534956 0.189033 -0.286899
N16   N     N_R   0.978971 0.097540 0.094374 0.192123
O33   O     O_R   0.953479 0.053621 0.062685 -0.243913
O34   O     O_R   0.046955 0.039514 0.121513 -0.295699
F4    F     F_    0.871900 0.152348 0.162287 -0.525943
N17   N     N_R   0.527391 0.780811 0.415568 0.128556
O35   O     O_R   0.603933 0.782698 0.399466 -0.302429
O36   O     O_R   0.511293 0.814087 0.453267 -0.316385
F5    F     F_    0.149056 0.867972 0.073488 -0.498183
N18   N     N_R   0.403019 0.101054 0.198560 0.152497
O37   O     O_R   0.369062 0.086964 0.230677 -0.318074
O38   O     O_R   0.500402 0.043536 0.191404 -0.230793
F6    F     F_    0.225796 0.728764 0.311945 -0.577556
F7    F     F_    0.189177 0.807651 0.148752 -0.522875
N19   N     N_R   0.494796 0.826914 0.069899 0.212295
O39   O     O_R   0.479203 0.848302 0.031929 -0.295484
O40   O     O_R   0.589764 0.763866 0.082359 -0.217373
N20   N     N_R   0.527571 0.793933 0.156704 0.243817
O41   O     O_R   0.570423 0.716833 0.180255 -0.275545
O42   O     O_R   0.574118 0.849237 0.154111 -0.205991
N21   N     N_R   0.531563 0.188898 0.591997 0.174224
O43   O     O_R   0.612240 0.142790 0.617052 -0.258532
O44   O     O_R   0.529691 0.143022 0.556753 -0.295987
F8    F     F_    0.127594 0.453761 0.908724 -0.542436
N22   N     N_R   0.154338 0.507341 0.652296 0.150845
O45   O     O_R   0.113061 0.601903 0.641057 -0.286927
O46   O     O_R   0.098284 0.479999 0.670798 -0.306593
F9    F     F_    0.488465 0.176122 0.308347 -0.534618
N23   N     N_R   0.486318 0.180781 0.913278 0.224908
O47   O     O_R   0.497232 0.204491 0.951448 -0.304968
O48   O     O_R   0.570532 0.120125 0.894883 -0.199879
F10   F     F_    0.473175 0.181712 0.827824 -0.537876
F11   F     F_    0.938298 0.115895 0.877961 -0.564451
F12   F     F_    0.792880 0.193435 0.675953 -0.564154
F13   F     F_    0.741035 0.224416 0.596334 -0.547029
N24   N     N_R   0.792791 0.507964 0.817198 0.195558
O49   O     O_R   0.830584 0.570767 0.829763 -0.223883
O50   O     O_R   0.714566 0.538604 0.790335 -0.313077
N25   N     N_R   0.853217 0.481590 0.900699 0.209166
O51   O     O_R   0.759895 0.554942 0.907842 -0.256729
O52   O     O_R   0.931289 0.501454 0.908256 -0.230902
N26   N     N_R   0.795440 0.525610 0.696756 0.191133
O53   O     O_R   0.862303 0.503558 0.727827 -0.290529
O54   O     O_R   0.741899 0.621592 0.687038 -0.286334
N27   N     N_R   0.450581 0.931374 0.896557 0.197198
O55   O     O_R   0.488571 0.984804 0.882391 -0.247566
O56   O     O_R   0.496606 0.880149 0.928720 -0.258121
F14   F     F_    0.470824 0.886066 0.814885 -0.538504
F15   F     F_    0.554455 0.722101 0.612451 -0.602438
F16   F     F_    0.201281 0.775927 0.598700 -0.583971
N28   N     N_R   0.174607 0.819494 0.796318 0.179664
O57   O     O_R   0.135283 0.766441 0.810231 -0.245340
O58   O     O_R   0.152090 0.843269 0.758516 -0.343090
N29   N     N_R   0.151154 0.858595 0.881522 0.223942
O59   O     O_R   0.053328 0.910248 0.869387 -0.220327
O60   O     O_R   0.178303 0.796448 0.910840 -0.285708
F17   F     F_    0.177577 0.501633 0.312172 -0.584248

loop_
_geom_bond_atom_site_label_1
_geom_bond_atom_site_label_2
_geom_bond_distance
_ccdc_geom_bond_type
N23   O48   1.307122 A    
C31   C32   1.397291 A    
C78   F16   1.360028 S    
N22   O45   1.302227 A    
N13   O28   1.301990 A    
N24   O50   1.302259 A    
N1    N2    1.332224 A    
C66   C67   1.401499 A    
C60   C61   1.406329 A    
O14   Cr4   2.039653 S    
C31   N16   1.433294 S    
C80   C89   1.431662 S    
H13   C81   1.084643 S    
C46   N20   1.443249 S    
C87   C88   1.437732 S    
C72   N24   1.445656 S    
C88   C89   1.202536 T    
N14   O29   1.301337 A    
C52   C56   1.473647 S    
C82   F15   1.358008 S    
C91   O16   1.269550 A    
N16   O34   1.301704 A    
O4    Cr2   1.934987 S    
C29   C30   1.404839 A    
C32   C33   1.404166 A    
C39   H7    1.082400 S    
N17   O36   1.310362 A    
O8    Cr1   1.934487 S    
C9    C10   1.400054 A    
C16   H3    1.085053 S    
C35   C40   1.429132 A    
H1    C12   1.084753 S    
N15   O31   1.301423 A    
N28   O58   1.309417 A    
C74   C75   1.200822 T    
N8    C41   1.357858 A    
N20   O42   1.302589 A    
C68   F13   1.358025 S    
N9    N10   1.332482 A    
C86   N28   1.453459 S    
Cr4   O26   1.969517 S    
C67   C68   1.394181 A    
O18   Cr6   2.049949 S    
C22   H5    1.082676 S    
O21   C94   1.290012 A    
C24   C28   1.462305 S    
C57   C61   1.401942 A    
C69   C70   1.390770 A    
C71   N25   1.443419 S    
C17   C18   1.431125 S    
C6    C63   1.474816 S    
C65   N26   1.441672 S    
C44   F5    1.358332 S    
O25   Cr6   1.932231 S    
C77   C78   1.415948 A    
C65   C66   1.412538 A    
C95   O24   1.266960 A    
N14   O30   1.300556 A    
C30   F2    1.359987 S    
C24   C25   1.415125 A    
N27   O55   1.304735 A    
C72   C73   1.411213 A    
N7    N8    1.333066 A    
C50   H8    1.083075 S    
C9    F17   1.357191 S    
O17   Cr5   1.925492 S    
C51   N22   1.439113 S    
C27   C33   1.472145 S    
C5    C49   1.482027 S    
C21   C26   1.413310 A    
C43   C47   1.397398 A    
O19   Cr6   1.919101 S    
C83   C87   1.393887 A    
N11   N12   1.331460 A    
N6    C42   1.357290 A    
H11   C69   1.086756 S    
O21   Cr4   1.922280 S    
N23   O47   1.303507 A    
C7    C8    1.403797 A    
Cr6   O26   1.974728 S    
C29   N15   1.442881 S    
C59   N23   1.452946 S    
Cr3   O13   1.978369 S    
N25   O51   1.308263 A    
C62   C95   1.485982 S    
C70   F11   1.358824 S    
C59   C60   1.413561 A    
C23   F3    1.358977 S    
C73   C74   1.433225 S    
O16   Cr5   2.043691 S    
N19   O40   1.303421 A    
C11   F9    1.360083 S    
C54   N21   1.440692 S    
C83   F14   1.361457 S    
O19   C93   1.278229 A    
C3    C21   1.478504 S    
C81   C82   1.398062 A    
O1    Cr1   2.052410 S    
C45   C46   1.432421 A    
C13   C17   1.407910 A    
N26   O53   1.301470 A    
C25   C26   1.405669 A    
O10   Cr2   1.918812 S    
C66   C75   1.433728 S    
Cr1   O13   1.969272 S    
O1    C3    1.302773 A    
N28   O57   1.311000 A    
N18   O38   1.303912 A    
N16   O33   1.302030 A    
C29   C33   1.411336 A    
C53   C54   1.397541 A    
O6    C3    1.301182 A    
C59   C62   1.431002 A    
C40   N17   1.449190 S    
C8    C9    1.395949 A    
C52   C53   1.400276 A    
C26   F1    1.358913 S    
C45   C48   1.429733 A    
O12   Cr3   1.925141 S    
C69   C73   1.395097 A    
N5    N6    1.331848 A    
C18   C19   1.198686 T    
O3    Cr2   2.036903 S    
O20   Cr4   2.054089 S    
C46   C47   1.418936 A    
N20   O41   1.300415 A    
C35   C36   1.409703 A    
C8    H2    1.083730 S    
N29   O60   1.303501 A    
C37   F6    1.358219 S    
C84   C90   1.419382 A    
C50   C51   1.400052 A    
O10   C5    1.288918 A    
N11   C56   1.360380 A    
N5    C41   1.356303 A    
O7    Cr1   2.039989 S    
C60   F10   1.364506 S    
N3    C28   1.354821 A    
C2    C7    1.472036 S    
O12   C6    1.276550 A    
C63   C68   1.407317 A    
N4    C27   1.356681 A    
C15   C20   1.407746 A    
C51   C52   1.414170 A    
C53   H9    1.083454 S    
N17   O35   1.310289 A    
C80   C81   1.397594 A    
O15   C91   1.281782 A    
N7    C42   1.357066 A    
C4    C77   1.482030 S    
C84   N27   1.438835 S    
Cr5   O26   1.978589 S    
C38   C39   1.401553 A    
N27   O56   1.303019 A    
C20   C92   1.478670 S    
C21   C22   1.401759 A    
C41   C47   1.477889 S    
C34   C91   1.483034 S    
O23   Cr5   1.924501 S    
C23   C24   1.402106 A    
O24   Cr6   2.035842 S    
N21   O44   1.304616 A    
C1    O3    1.275062 A    
C58   C62   1.407601 A    
C13   N18   1.440411 S    
N29   O59   1.304956 A    
N19   O39   1.307216 A    
C57   H10   1.086220 S    
N26   O54   1.302560 A    
O23   C95   1.290369 A    
C30   C34   1.413250 A    
C1    C35   1.483658 S    
O5    Cr3   2.044625 S    
C76   C94   1.488661 S    
C11   C12   1.391651 A    
C25   N14   1.446971 S    
N22   O46   1.302216 A    
O9    Cr2   2.052459 S    
C32   F4    1.360694 S    
O2    Cr1   1.923457 S    
C79   H14   1.085381 S    
C22   C23   1.389285 A    
Cr2   O13   1.974793 S    
C43   C44   1.382782 A    
O6    Cr3   1.923084 S    
C14   N13   1.428214 S    
C78   C79   1.391396 A    
C71   C72   1.413114 A    
O11   Cr3   2.038765 S    
C55   C61   1.464166 S    
C2    O5    1.266279 A    
C58   F8    1.363088 S    
C10   C19   1.427303 S    
O17   C92   1.305173 A    
O14   C93   1.272712 A    
N24   O49   1.306196 A    
C94   O22   1.261529 A    
C15   C16   1.391776 A    
O20   C96   1.270984 A    
N15   O32   1.303825 A    
O2    C1    1.272733 A    
N12   C55   1.357158 A    
N18   O37   1.303748 A    
C38   C42   1.474065 S    
O25   C96   1.283110 A    
C37   C38   1.398967 A    
N25   O52   1.307824 A    
C13   C14   1.408161 A    
O4    C2    1.282675 A    
C85   C90   1.429434 A    
O7    C6    1.268124 A    
C85   C86   1.421246 A    
O15   Cr4   1.936152 S    
C57   C58   1.391966 A    
C16   C17   1.395625 A    
C39   C40   1.408984 A    
C77   C82   1.415190 A    
C15   H4    1.083504 S    
N9    C55   1.358848 A    
C63   C64   1.406518 A    
C48   C93   1.489437 S    
O22   Cr5   2.041388 S    
C92   O18   1.297178 A    
C70   C76   1.410443 A    
C36   C37   1.386933 A    
N10   C56   1.358057 A    
C14   C20   1.416128 A    
C49   C54   1.424781 A    
C7    C12   1.411757 A    
C45   N19   1.457689 S    
C4    O9    1.268983 A    
N3    N4    1.326532 A    
C31   C34   1.415576 A    
C64   C65   1.399265 A    
C86   C87   1.415150 A    
C44   C48   1.407342 A    
C79   C80   1.396470 A    
C83   C84   1.399637 A    
C90   C96   1.500640 S    
C64   H12   1.082964 S    
C43   F7    1.358333 S    
C49   C50   1.404819 A    
N21   O43   1.303619 A    
N13   O27   1.300039 A    
C71   C76   1.432979 A    
N1    C27   1.360045 A    
C85   N29   1.438481 S    
C5    O11   1.263192 A    
O8    C4    1.277426 A    
N2    C28   1.358313 A    
C67   F12   1.358884 S    
C10   C11   1.398955 A    
C36   H6    1.082937 S    
