data_mof_unit_15677.cif
_audit_creation_date              2012-12-11T16:22:19-0500
_audit_creation_method            fapswitch 2.2
_symmetry_space_group_name_H-M    P1
_symmetry_Int_Tables_number       1
_space_group_crystal_system       triclinic
_cell_length_a                    19.591264
_cell_length_b                    6.931211
_cell_length_c                    17.786512
_cell_angle_alpha                 90.127152
_cell_angle_beta                  108.064237
_cell_angle_gamma                 89.831422
_cell_volume                      2296.19038503

loop_
_atom_site_label
_atom_site_type_symbol
_atom_type_description
_atom_site_fract_x
_atom_site_fract_y
_atom_site_fract_z
_atom_type_partial_charge
O1    O     O_R   0.561700 0.369960 0.440190 -0.541768
O2    O     O_R   0.061700 0.630040 0.940190 -0.543769
O3    O     O_R   0.413790 0.033680 0.407460 -0.544655
O4    O     O_R   0.913790 0.966320 0.907460 -0.541668
O5    O     O_R   0.438300 0.869760 0.559810 -0.535671
O6    O     O_R   0.938300 0.130240 0.059810 -0.533675
C1    C     C_R   0.386661 0.203887 0.384784 0.733939
C2    C     C_R   0.886724 0.796199 0.884710 0.733061
O7    O     O_R   0.559630 0.039830 0.430710 -0.554214
O8    O     O_R   0.059630 0.960170 0.930710 -0.548992
O9    O     O_R   0.585190 0.875950 0.583220 -0.537508
O10   O     O_R   0.085190 0.124050 0.083220 -0.538466
C3    C     C_R   0.579566 0.208346 0.413388 0.666843
C4    C     C_R   0.079476 0.789992 0.913487 0.679818
O11   O     O_R   0.414810 0.363770 0.416780 -0.544573
O12   O     O_R   0.914810 0.636230 0.916780 -0.545819
O13   O     O_3   0.508210 0.205480 0.550010 -0.346620
O14   O     O_3   0.008210 0.794520 0.050010 -0.355529
V1    V     V_3+5 0.498480 0.928140 0.490720 1.418393
V2    V     V_3+5 0.998480 0.071860 0.990720 1.420081
O15   O     O_R   0.586210 0.546600 0.592540 -0.537320
O16   O     O_R   0.086210 0.453400 0.092540 -0.538221
C5    C     C_R   0.613505 0.715938 0.615434 0.756831
C6    C     C_R   0.113466 0.283942 0.115471 0.769786
O17   O     O_R   0.440370 0.540460 0.569290 -0.516632
O18   O     O_R   0.940370 0.459540 0.069290 -0.526736
C7    C     C_R   0.419693 0.709583 0.585305 0.762362
C8    C     C_R   0.919283 0.291256 0.084477 0.773505
V3    V     V_3+5 0.501520 0.428910 0.509280 1.470556
V4    V     V_3+5 0.001520 0.571090 0.009280 1.452616
O19   O     O_3   0.491790 0.701440 0.449990 -0.385240
O20   O     O_3   0.991790 0.298560 0.949990 -0.382976
C9    C     C_R   0.264900 0.880642 0.654619 0.177750
C10   C     C_R   0.745611 0.240158 0.134205 0.170920
C11   C     C_R   0.314372 0.860530 0.612181 -0.190680
C12   C     C_R   0.796244 0.246687 0.092624 -0.249053
H1    H     H_    0.308407 0.950300 0.560681 0.134076
H2    H     H_    0.778818 0.227301 0.028990 0.114498
C13   C     C_R   0.369740 0.722689 0.633213 -0.134359
C14   C     C_R   0.868974 0.282859 0.131389 -0.113846
C15   C     C_R   0.375739 0.602806 0.698970 0.261936
C16   C     C_R   0.892001 0.313302 0.213512 0.262708
C17   C     C_R   0.327385 0.623951 0.742294 -0.198099
C18   C     C_R   0.842686 0.302618 0.256034 -0.186658
H3    H     H_    0.333075 0.531793 0.793025 0.152241
H4    H     H_    0.861795 0.322090 0.319599 0.156758
C19   C     C_R   0.271832 0.761312 0.721185 0.009531
C20   C     C_R   0.769573 0.263908 0.217952 0.018309
C21   C     C_R   0.217360 0.933399 0.813614 -0.135892
C22   C     C_R   0.715888 0.396254 0.318890 -0.167231
H5    H     H_    0.251369 0.056741 0.814404 0.129574
H6    H     H_    0.747647 0.525801 0.323018 0.127802
C23   C     C_R   0.170617 0.937279 0.859267 -0.217982
C24   C     C_R   0.670142 0.380580 0.365304 -0.176353
H7    H     H_    0.170216 0.064501 0.894584 0.123018
H8    H     H_    0.669076 0.497911 0.405220 0.126904
C25   C     C_R   0.126253 0.778527 0.861123 -0.061513
C26   C     C_R   0.626739 0.216560 0.361074 -0.105503
C27   C     C_R   0.128850 0.613688 0.813532 0.132248
C28   C     C_R   0.630046 0.064980 0.307542 0.115428
C29   C     C_R   0.176980 0.612632 0.768912 -0.181255
C30   C     C_R   0.679664 0.080450 0.264518 -0.116810
H9    H     H_    0.179503 0.488327 0.733098 0.114049
H10   H     H_    0.687472 0.962412 0.228359 0.118938
C31   C     C_R   0.221042 0.770630 0.768321 0.068665
C32   C     C_R   0.720534 0.247328 0.267378 0.067623
C33   C     C_2   0.712816 0.896958 0.710497 -0.114302
C34   C     C_2   0.212760 0.102814 0.210735 -0.109739
C35   C     C_2   0.680369 0.726759 0.683454 -0.296605
C36   C     C_2   0.180258 0.273038 0.183549 -0.278516
H11   H     H_    0.688700 0.029870 0.682029 0.142028
H12   H     H_    0.188728 0.969824 0.182340 0.139655
H13   H     H_    0.702254 0.591491 0.710956 0.128675
H14   H     H_    0.202075 0.408410 0.210940 0.128186
C37   C     C_2   0.780138 0.921082 0.778253 -0.137059
C38   C     C_2   0.280142 0.078899 0.278447 -0.134611
C39   C     C_2   0.820540 0.773748 0.816914 -0.306882
C40   C     C_2   0.320294 0.226335 0.317200 -0.303488
H15   H     H_    0.796873 0.067823 0.796239 0.132893
H16   H     H_    0.297171 0.932194 0.296286 0.133588
H17   H     H_    0.805006 0.626588 0.799275 0.133211
H18   H     H_    0.304438 0.373482 0.299795 0.133015
C41   C     C_3   0.204013 0.023580 0.624352 -0.373564
C42   C     C_3   0.231677 0.230499 0.635365 -0.721882
H19   H     H_    0.259524 0.258670 0.698910 0.228067
H20   H     H_    0.269585 0.256767 0.601278 0.238933
H21   H     H_    0.185910 0.332211 0.613887 0.216554
H22   H     H_    0.176869 0.996411 0.560430 0.192572
H23   H     H_    0.162372 0.007578 0.654218 0.188893
C43   C     C_3   0.667098 0.214718 0.086463 -0.350533
C44   C     C_3   0.622627 0.394251 0.089299 -0.723735
H24   H     H_    0.615687 0.410555 0.148428 0.229816
H25   H     H_    0.648719 0.525316 0.075077 0.229043
H26   H     H_    0.568465 0.380070 0.045319 0.227646
H27   H     H_    0.643652 0.087206 0.106472 0.171483
H28   H     H_    0.661639 0.186436 0.023304 0.187617
Br1   Br    Br    0.450413 0.413294 0.734852 -0.555123
Br2   Br    Br    0.990839 0.364140 0.270057 -0.554213
C45   C     C_3   0.080836 0.438326 0.806102 -0.352985
C46   C     C_3   0.002522 0.485179 0.761257 -0.697546
H29   H     H_    0.980968 0.598661 0.791698 0.211567
H30   H     H_    0.997774 0.535264 0.700556 0.216668
H31   H     H_    0.969401 0.353392 0.756856 0.207932
H32   H     H_    0.097735 0.320908 0.772937 0.169441
H33   H     H_    0.086257 0.374940 0.864753 0.197935
C47   C     C_3   0.580027 0.891277 0.295424 -0.317457
C48   C     C_3   0.574329 0.766795 0.222604 -0.805933
H34   H     H_    0.559431 0.856594 0.168243 0.234008
H35   H     H_    0.625729 0.690955 0.229285 0.229724
H36   H     H_    0.532218 0.655601 0.216368 0.226770
H37   H     H_    0.597655 0.797265 0.348450 0.191454
H38   H     H_    0.524772 0.944054 0.288473 0.181321

loop_
_geom_bond_atom_site_label_1
_geom_bond_atom_site_label_2
_ccdc_geom_bond_type
O13   V3    S    
C5    C35   S    
C42   H21   S    
O4    C2    A    
V1    O19   S    
C33   C37   S    
C6    C36   S    
C43   H27   S    
C13   C15   A    
C47   H38   S    
O9    V1    S    
C22   C24   A    
C21   C31   A    
O16   C6    A    
C11   H1    S    
C42   H20   S    
O3    C1    A    
C16   Br2   S    
C24   C26   A    
C25   C27   A    
C47   C48   S    
C8    C14   S    
O12   V4    S    
C9    C41   S    
C27   C45   S    
C28   C30   A    
O9    C5    A    
C37   C39   D    
O7    C3    A    
C30   H10   S    
C9    C11   A    
O5    C7    A    
O7    V1    S    
O6    C8    A    
C41   C42   S    
O8    V2    S    
C21   H5    S    
C36   H14   S    
C22   H6    S    
C48   H34   S    
C35   H13   S    
O14   V4    S    
C17   C19   A    
C33   H11   S    
C14   C16   A    
C41   H22   S    
C2    O12   A    
C15   C17   A    
C16   C18   A    
C45   H33   S    
C46   H30   S    
C18   H4    S    
O11   V3    S    
C47   H37   S    
C23   H7    S    
O17   V3    S    
C41   H23   S    
C24   H8    S    
C27   C29   A    
C30   C32   A    
C12   C14   A    
C42   H19   S    
O8    C4    A    
C7    C13   S    
C44   H24   S    
C23   C25   A    
C3    C26   S    
O15   V3    S    
C46   H31   S    
C33   C35   D    
C11   C13   A    
C10   C43   S    
C44   H25   S    
C17   H3    S    
C40   H18   S    
C45   C46   S    
C39   H17   S    
C34   H12   S    
O10   V2    S    
O1    V3    S    
O3    V1    S    
C22   C32   A    
C1    C40   S    
O18   V4    S    
O15   C5    A    
C2    C39   S    
C9    C19   A    
C48   H36   S    
C15   Br1   S    
O1    C3    A    
C28   C47   S    
V2    O20   S    
C4    C25   S    
O16   V4    S    
C29   H9    S    
C38   H16   S    
C38   C40   D    
C43   H28   S    
O5    V1    S    
C34   C38   S    
O6    V2    S    
O10   C6    A    
O18   C8    A    
O2    V4    S    
C12   H2    S    
V3    O19   S    
C44   H26   S    
V4    O20   S    
C43   C44   S    
C48   H35   S    
C37   H15   S    
C21   C23   A    
C1    O11   A    
C46   H29   S    
O13   V1    S    
C10   C12   A    
C45   H32   S    
O14   V2    S    
O2    C4    A    
O4    V2    S    
C29   C31   A    
C10   C20   A    
C34   C36   D    
C20   C32   S    
C26   C28   A    
C19   C31   S    
C18   C20   A    
O17   C7    A    
