data_mof_unit_23002.cif
_audit_creation_date              2012-12-10T17:36:36-0500
_audit_creation_method            fapswitch 2.2
_symmetry_space_group_name_H-M    P1
_symmetry_Int_Tables_number       1
_space_group_crystal_system       triclinic
_cell_length_a                    12.063061
_cell_length_b                    12.814715
_cell_length_c                    15.724414
_cell_angle_alpha                 90.833772
_cell_angle_beta                  87.05478
_cell_angle_gamma                 94.412178
_cell_volume                      2420.2115731

loop_
_atom_site_label
_atom_site_type_symbol
_atom_type_description
_atom_site_fract_x
_atom_site_fract_y
_atom_site_fract_z
_atom_type_partial_charge
C1    C     C_R   0.522795 0.700028 0.495088 0.950878
C2    C     C_R   0.537103 0.026038 0.469699 0.012688
C3    C     C_R   0.950131 0.412818 0.409955 -0.082662
C4    C     C_R   0.053744 0.614028 0.567255 -0.094129
C5    C     C_R   0.834929 0.420734 0.421287 0.038437
C6    C     C_R   0.167921 0.599376 0.561662 0.035659
C7    C     C_R   0.859941 0.539504 0.537213 0.042106
C8    C     C_R   0.138920 0.452124 0.469943 0.049144
C9    C     C_R   0.978286 0.541339 0.525103 -0.032771
C10   C     C_R   0.022986 0.467302 0.467551 -0.032658
C11   C     C_R   0.500828 0.500176 0.661742 0.916097
C12   C     C_R   0.477171 0.299965 0.504859 0.945591
C13   C     C_R   0.499165 0.499731 0.338261 0.921666
C14   C     C_3   0.537372 0.594717 0.026719 -0.171156
C15   C     C_3   0.462407 0.402427 0.973201 -0.174812
C16   C     C_3   0.602842 0.521559 0.967604 0.406751
C17   C     C_3   0.396968 0.475701 0.032399 0.398953
C18   C     C_1   0.501957 0.499065 0.750334 -0.067744
C19   C     C_1   0.497957 0.500027 0.249664 -0.100426
C20   C     C_3   0.432791 0.570686 0.975462 -0.167272
C21   C     C_3   0.567183 0.426556 0.024623 -0.173485
C22   C     C_3   0.498700 0.497654 0.916328 0.023758
C23   C     C_R   0.611904 0.970839 0.417691 0.421382
C24   C     C_3   0.501142 0.499749 0.083659 0.029858
C25   C     C_1   0.501011 0.498159 0.825495 0.183289
C26   C     C_1   0.498857 0.500089 0.174495 0.169408
C27   C     C_R   0.462793 0.188391 0.513017 -0.141233
C28   C     C_R   0.536971 0.811585 0.486704 -0.154695
C29   C     C_3   0.792394 0.553585 0.984259 0.100225
C30   C     C_3   0.893119 0.618448 0.946013 -0.731656
C31   C     C_3   0.210760 0.423952 0.015847 0.116561
C32   C     C_3   0.095632 0.436190 0.057200 -0.800642
C33   C     C_2   0.579498 0.702253 0.054661 0.393928
C34   C     C_R   0.387385 0.029050 0.581665 0.416354
C35   C     C_2   0.422481 0.294708 0.944161 0.374550
C36   C     C_2   0.640967 0.345222 0.051270 0.364509
C37   C     C_2   0.357626 0.651406 0.949883 0.385573
C38   C     C_2   0.308994 0.194146 0.630402 0.500482
C39   C     C_2   0.690181 0.805712 0.368874 0.431306
C40   C     C_3   0.634574 0.026960 0.280702 0.018291
C41   C     C_3   0.709166 0.095463 0.219786 -0.651350
C42   C     C_3   0.364201 0.972971 0.718651 0.016951
C43   C     C_3   0.289822 0.903839 0.779246 -0.646658
C44   C     C_2   0.185285 0.358067 0.431909 0.418273
C45   C     C_R   0.613025 0.862324 0.426416 -0.135532
C46   C     C_2   0.807639 0.590777 0.611855 0.422119
C47   C     C_2   0.990687 0.359981 0.330865 0.467658
C48   C     C_2   0.019988 0.713500 0.606796 0.481598
C49   C     C_R   0.386401 0.137588 0.573042 -0.132752
C50   C     C_R   0.463660 0.867130 0.537407 -0.267021
C51   C     C_R   0.535966 0.132839 0.462204 -0.258362
C52   C     C_R   0.462311 0.973886 0.529748 0.016394
H1    H     H_    0.593412 0.174322 0.416725 0.209282
H2    H     H_    0.216367 0.340174 0.998457 0.158594
H3    H     H_    0.219436 0.471567 0.956880 0.166779
H4    H     H_    0.087665 0.519123 0.076386 0.248737
H5    H     H_    0.030989 0.412376 0.011448 0.214445
H6    H     H_    0.082110 0.386221 0.114500 0.269928
H7    H     H_    0.603052 0.761600 0.007274 0.080230
H8    H     H_    0.401135 0.234094 0.990888 0.072478
H9    H     H_    0.680735 0.297051 0.003262 0.085882
H10   H     H_    0.316094 0.697340 0.998541 0.086948
H11   H     H_    0.227998 0.156654 0.649550 0.116571
H12   H     H_    0.406310 0.825677 0.582970 0.207181
H13   H     H_    0.770936 0.843330 0.349231 0.106271
H14   H     H_    0.552250 0.060996 0.287852 0.148178
H15   H     H_    0.622906 0.947196 0.252020 0.179505
H16   H     H_    0.791592 0.062853 0.209919 0.257860
H17   H     H_    0.670332 0.098616 0.157442 0.204658
H18   H     H_    0.720930 0.176111 0.246368 0.292379
H19   H     H_    0.375114 0.052692 0.747509 0.176141
H20   H     H_    0.446856 0.939530 0.711692 0.147456
H21   H     H_    0.279052 0.823148 0.752602 0.289766
H22   H     H_    0.328260 0.901006 0.841770 0.202862
H23   H     H_    0.226548 0.653804 0.592541 0.175546
H24   H     H_    0.206972 0.935697 0.788771 0.259916
H25   H     H_    0.258518 0.364837 0.389230 0.089933
H26   H     H_    0.742662 0.642877 0.604286 0.084533
H27   H     H_    0.071883 0.383321 0.301443 0.037316
H28   H     H_    0.947403 0.749128 0.586189 0.032405
H29   H     H_    0.778279 0.380830 0.378155 0.177528
H30   H     H_    0.817739 0.473871 0.996391 0.154175
H31   H     H_    0.767031 0.590732 0.045989 0.159352
H32   H     H_    0.870237 0.698624 0.932409 0.257625
H33   H     H_    0.960824 0.623956 0.991448 0.195019
H34   H     H_    0.923701 0.581362 0.885881 0.287424
N1    N     N_R   0.207800 0.519340 0.515560 -0.149134
N2    N     N_R   0.792200 0.480660 0.484440 -0.150125
O1    O     O_R   0.421700 0.658830 0.504150 -0.637382
O2    O     O_3   0.291555 0.455234 0.074751 -0.620866
O3    O     O_2   0.587681 0.723545 0.130059 -0.555766
O4    O     O_2   0.413797 0.274593 0.868615 -0.551775
O5    O     O_2   0.656799 0.332822 0.126325 -0.583500
O6    O     O_2   0.342570 0.665697 0.874959 -0.586997
O7    O     O_2   0.336808 0.279644 0.660947 -0.542842
O8    O     O_2   0.662376 0.720005 0.338705 -0.540024
O9    O     O_3   0.685485 0.023467 0.359502 -0.616971
O10   O     O_3   0.313627 0.976364 0.639703 -0.614257
O11   O     O_2   0.141670 0.271149 0.448689 -0.557407
O12   O     O_R   0.578300 0.341170 0.495850 -0.625511
O13   O     O_2   0.836701 0.574241 0.683379 -0.541679
O14   O     O_2   0.932443 0.291394 0.296290 -0.556959
O15   O     O_2   0.074735 0.758372 0.661494 -0.549490
O16   O     O_R   0.609310 0.646410 0.494170 -0.627855
O17   O     O_R   0.390690 0.353590 0.505830 -0.603358
O18   O     O_R   0.406210 0.506220 0.628210 -0.575031
O19   O     O_R   0.593790 0.493780 0.371790 -0.583130
O20   O     O_R   0.593830 0.493800 0.618230 -0.629780
O21   O     O_R   0.406170 0.506200 0.381770 -0.660665
O22   O     O_3   0.707395 0.547767 0.925601 -0.592737
Zn1   Zn    Zn3+2 0.374730 0.508290 0.506660 0.982409
Zn2   Zn    Zn3+2 0.625270 0.491710 0.493340 0.984514

loop_
_geom_bond_atom_site_label_1
_geom_bond_atom_site_label_2
_ccdc_geom_bond_type
C43   H21   S    
C11   C18   S    
C16   C21   S    
C23   C45   A    
C50   H12   S    
O19   Zn2   S    
C47   H27   S    
C13   O19   A    
C14   C33   S    
C37   H10   S    
C16   O22   S    
C6    H23   S    
C38   C49   S    
C21   C36   S    
C41   H17   S    
C44   H25   S    
C24   C26   S    
C29   H31   S    
O21   Zn1   S    
C12   O17   A    
C44   O11   D    
N1    Zn1   S    
C17   C20   S    
C15   C17   S    
C14   C24   S    
C19   C26   T    
C13   O21   A    
C5    N2    A    
C28   C50   A    
C36   O5    D    
C15   C22   S    
C31   C32   S    
C40   H15   S    
C38   O7    D    
C1    C28   S    
C50   C52   A    
C32   H6    S    
C30   H34   S    
C9    C10   A    
C39   C45   S    
C35   O4    D    
C43   H22   S    
O17   Zn1   S    
C33   H7    S    
C47   O14   D    
C40   H14   S    
C39   H13   S    
C18   C25   T    
C32   H5    S    
C15   C35   S    
C27   C51   A    
C41   H16   S    
O18   Zn1   S    
C46   O13   D    
C1    O1    A    
C28   C45   A    
C17   C24   S    
C13   C19   S    
C12   C27   S    
C7    C46   S    
C14   C20   S    
C29   O22   S    
C4    C6    A    
C40   O9    S    
C46   H26   S    
C48   O15   D    
C22   C25   S    
C6    N1    A    
O20   Zn2   S    
C35   H8    S    
C51   H1    S    
C29   C30   S    
C5    H29   S    
C7    N2    A    
C31   O2    S    
C11   O18   A    
C42   H20   S    
C30   H33   S    
C1    O16   A    
C2    C52   A    
C40   C41   S    
C23   O9    S    
C20   C22   S    
O12   Zn2   S    
C14   C16   S    
C42   C43   S    
C36   H9    S    
C11   O20   A    
O16   Zn2   S    
C38   H11   S    
C4    C48   S    
C43   H24   S    
C7    C9    A    
C34   C49   A    
C16   C22   S    
C17   O2    S    
C8    C44   S    
C3    C5    A    
O1    Zn1   S    
C34   C52   A    
C8    N1    A    
C48   H28   S    
C42   O10   S    
C29   H30   S    
C3    C10   A    
C20   C37   S    
C3    C47   S    
C42   H19   S    
C34   O10   S    
C37   O6    D    
C31   H2    S    
C30   H32   S    
C39   O8    D    
C12   O12   A    
C2    C51   A    
N2    Zn2   S    
C15   C21   S    
C8    C10   A    
C21   C24   S    
C2    C23   A    
C31   H3    S    
C4    C9    A    
C32   H4    S    
C27   C49   A    
C41   H18   S    
C33   O3    D    
