data_mof_unit_12367.cif
_audit_creation_date              2012-12-10T19:00:45-0500
_audit_creation_method            fapswitch 2.2
_symmetry_space_group_name_H-M    P1
_symmetry_Int_Tables_number       1
_space_group_crystal_system       triclinic
_cell_length_a                    15.067118
_cell_length_b                    10.831921
_cell_length_c                    9.61867
_cell_angle_alpha                 89.407125
_cell_angle_beta                  88.49841
_cell_angle_gamma                 90.381238
_cell_volume                      1569.16228944

loop_
_atom_site_label
_atom_site_type_symbol
_atom_type_description
_atom_site_fract_x
_atom_site_fract_y
_atom_site_fract_z
_atom_type_partial_charge
C1    C     C_R   0.497301 0.262571 0.500300 0.816311
C2    C     C_R   0.905440 0.558071 0.601969 0.117083
C3    C     C_R   0.961305 0.412695 0.262670 -0.024392
C4    C     C_R   0.053653 0.406104 0.269604 -0.250717
C5    C     C_R   0.096649 0.447609 0.387285 0.077914
C6    C     C_R   0.047381 0.499358 0.498279 0.074337
C7    C     C_R   0.091193 0.551530 0.611946 0.107847
C8    C     C_R   0.041708 0.608288 0.718496 -0.172580
C9    C     C_R   0.949391 0.613483 0.712194 -0.192189
C10   C     C_R   0.188791 0.446904 0.390736 -0.211551
C11   C     C_R   0.232424 0.497185 0.503823 -0.065711
C12   C     C_R   0.328984 0.499457 0.501574 0.815409
C13   C     C_R   0.183822 0.548791 0.614779 -0.241077
C14   C     C_R   0.479342 0.062116 0.623174 0.117009
C15   C     C_R   0.486706 0.129469 0.499449 -0.068549
C16   C     C_R   0.480835 0.065464 0.373114 -0.233864
C17   C     C_R   0.482066 0.936473 0.372760 -0.208224
C18   C     C_R   0.489138 0.870350 0.498660 -0.066502
C19   C     C_R   0.482604 0.935560 0.622999 0.041731
C20   C     C_3   0.529814 0.930532 0.759384 0.061031
C21   C     C_3   0.527041 0.071964 0.756406 -0.505430
C22   C     C_R   0.560323 0.569769 0.070179 0.196551
C23   C     C_R   0.498036 0.737346 0.499496 0.853663
C24   C     C_R   0.433511 0.445750 0.079296 -0.123073
C25   C     C_R   0.432172 0.446557 0.931488 0.024667
C26   C     C_R   0.564650 0.559686 0.924391 0.207019
C27   C     C_3   0.662930 0.536710 0.925771 -0.143271
C28   C     C_3   0.658793 0.566901 0.079569 -0.438578
C29   C     C_R   0.671285 0.497334 0.498347 0.816324
C30   C     C_R   0.813438 0.561902 0.595493 -0.287699
C31   C     C_R   0.768699 0.495036 0.494795 -0.081313
C32   C     C_R   0.817521 0.425710 0.395130 0.077851
C33   C     C_R   0.910437 0.445768 0.382396 0.024108
C34   C     C_R   0.954345 0.500397 0.494621 0.028021
Cu1   Cu    Cu3+1 0.500000 0.499980 0.640670 0.968740
Cu2   Cu    Cu3+1 0.500000 0.500020 0.359330 0.939600
H1    H     H_    0.776392 0.614809 0.671025 0.148742
H2    H     H_    0.482162 0.889530 0.273898 0.163060
H3    H     H_    0.485497 0.113453 0.840380 0.215898
H4    H     H_    0.592506 0.117829 0.738271 0.183163
H5    H     H_    0.381748 0.397792 0.138903 0.158952
H6    H     H_    0.701197 0.608008 0.866467 0.166260
H7    H     H_    0.684941 0.494104 0.146682 0.230795
H8    H     H_    0.686155 0.659921 0.102390 0.207190
H9    H     H_    0.092577 0.379163 0.178487 0.183149
H10   H     H_    0.226716 0.408038 0.304504 0.157550
H11   H     H_    0.218096 0.589912 0.700767 0.173897
H12   H     H_    0.074438 0.650179 0.805406 0.156407
H13   H     H_    0.912308 0.660104 0.793850 0.147837
H14   H     H_    0.480584 0.114293 0.274275 0.165467
N1    N     N_R   0.500570 0.500930 0.147930 -0.198114
N2    N     N_R   0.500570 0.500890 0.852020 -0.234859
O1    O     O_R   0.500000 0.319640 0.618810 -0.545678
O2    O     O_R   0.500010 0.319680 0.381230 -0.601757
O3    O     O_R   0.370250 0.499950 0.618800 -0.570650
O4    O     O_R   0.370260 0.499990 0.381220 -0.592498
O5    O     O_R   0.499990 0.680320 0.618770 -0.586644
O6    O     O_R   0.500000 0.680360 0.381190 -0.581237
O7    O     O_R   0.629740 0.500010 0.618780 -0.594584
O8    O     O_R   0.629750 0.500050 0.381200 -0.586899
C35   C     C_3   0.474636 0.869462 0.880627 -0.395231
C36   C     C_3   0.373995 0.893626 0.880567 -0.356479
C37   C     C_3   0.327061 0.828013 0.003308 -0.814860
H15   H     H_    0.338014 0.726781 0.997989 0.264699
H16   H     H_    0.352302 0.863015 0.103052 0.249406
H17   H     H_    0.254609 0.845555 0.000347 0.248507
H18   H     H_    0.360553 0.994032 0.887485 0.237861
H19   H     H_    0.345426 0.858457 0.783133 0.225835
H20   H     H_    0.484061 0.768464 0.875469 0.206495
H21   H     H_    0.501632 0.901026 0.980883 0.203710
C38   C     C_2   0.624751 0.884264 0.751936 0.823504
O9    O     O_2   0.668727 0.883820 0.857020 -0.631355
O10   O     O_R   0.663075 0.845055 0.626234 -0.791133
H22   H     H_    0.727806 0.822266 0.634922 0.324427
C39   C     C_2   0.356071 0.383016 0.870489 0.860917
O11   O     O_2   0.367439 0.294794 0.794428 -0.599758
O12   O     O_R   0.270008 0.418943 0.908934 -0.798321
H23   H     H_    0.222778 0.367296 0.863313 0.338055
C40   C     C_3   0.695264 0.401914 0.899633 -0.325976
C41   C     C_3   0.638484 0.297791 0.967884 -0.382432
C42   C     C_3   0.690289 0.177245 0.974842 -0.813771
H24   H     H_    0.717524 0.152564 0.870503 0.268489
H25   H     H_    0.746265 0.186611 0.046788 0.263222
H26   H     H_    0.645811 0.101801 0.014178 0.262360
H27   H     H_    0.616713 0.320472 0.075336 0.229383
H28   H     H_    0.578271 0.283538 0.906435 0.236588
H29   H     H_    0.701981 0.383465 0.787221 0.213436
H30   H     H_    0.763377 0.394248 0.938528 0.224001
C43   C     C_3   0.775871 0.312234 0.329218 -0.420078
C44   C     C_3   0.751216 0.213383 0.439402 -0.376361
C45   C     C_3   0.716302 0.096601 0.371576 -0.795128
H31   H     H_    0.660297 0.119069 0.303243 0.256275
H32   H     H_    0.769837 0.052342 0.308554 0.260684
H33   H     H_    0.692393 0.030512 0.453192 0.279335
H34   H     H_    0.810595 0.189713 0.500271 0.235125
H35   H     H_    0.699138 0.248307 0.512451 0.203179
H36   H     H_    0.716071 0.336159 0.271751 0.213184
H37   H     H_    0.822231 0.268592 0.253622 0.206381
C46   C     C_2   0.923926 0.422641 0.122784 0.810207
O13   O     O_2   0.945711 0.350232 0.031565 -0.605588
O14   O     O_R   0.869880 0.523240 0.092895 -0.772675
H38   H     H_    0.861967 0.535821 0.989640 0.317938

loop_
_geom_bond_atom_site_label_1
_geom_bond_atom_site_label_2
_ccdc_geom_bond_type
C35   H21   S    
C8    C9    A    
C23   O6    A    
C37   H16   S    
O14   H38   S    
Cu1   O1    S    
O10   H22   S    
C19   C20   S    
C1    O2    A    
C40   H29   S    
C42   H24   S    
C7    C8    A    
O12   H23   S    
C26   C27   S    
C36   C37   S    
C36   H18   S    
C14   C21   S    
C16   H14   S    
Cu2   O6    S    
C5    C6    A    
C3    C33   A    
C15   C16   A    
Cu1   O7    S    
C18   C19   A    
C20   C35   S    
C1    O1    A    
C41   H28   S    
C46   O13   D    
C16   C17   A    
C10   H10   S    
C20   C38   S    
C1    C15   S    
C2    C34   A    
C24   N1    A    
C37   H17   S    
C22   C28   S    
C24   H5    S    
C40   H30   S    
C42   H25   S    
C17   C18   A    
C4    H9    S    
Cu1   O3    S    
C18   C23   S    
C29   O7    A    
C44   H34   S    
C9    H13   S    
C24   C25   A    
C45   H31   S    
C38   O10   S    
C41   C42   S    
C37   H15   S    
C28   H8    S    
C6    C34   A    
C30   H1    S    
C43   H36   S    
C25   C39   S    
Cu1   Cu2   S    
C39   O11   D    
C8    H12   S    
C41   H27   S    
Cu2   O4    S    
C26   N2    A    
C45   H32   S    
C32   C43   S    
C21   H3    S    
C29   O8    A    
C33   C34   A    
C39   O12   S    
C12   O4    A    
Cu2   N1    S    
C46   O14   S    
C3    C4    A    
Cu1   N2    S    
C42   H26   S    
C13   H11   S    
C35   H20   S    
C23   O5    A    
C14   C19   A    
C31   C32   A    
C4    C5    A    
Cu2   O8    S    
C11   C12   S    
C44   H35   S    
C6    C7    A    
C28   H7    S    
C27   C40   S    
C36   H19   S    
C43   H37   S    
C2    C30   A    
C32   C33   A    
C25   N2    A    
C5    C10   A    
C29   C31   S    
C45   H33   S    
C11   C13   A    
C27   H6    S    
C44   C45   S    
C30   C31   A    
C21   H4    S    
C17   H2    S    
C35   C36   S    
C12   O3    A    
Cu2   O2    S    
C10   C11   A    
C40   C41   S    
C3    C46   S    
C7    C13   A    
C38   O9    D    
C20   C21   S    
Cu1   O5    S    
C22   C26   A    
C27   C28   S    
C14   C15   A    
C43   C44   S    
C2    C9    A    
C22   N1    A    
