data_mof_unit_53035.cif
_audit_creation_date              2013-03-05T16:40:05-0500
_audit_creation_method            fapswitch 2.2
_symmetry_space_group_name_H-M    P1
_symmetry_Int_Tables_number       1
_space_group_crystal_system       triclinic
_cell_length_a                    19.205008
_cell_length_b                    18.500143
_cell_length_c                    10.658116
_cell_angle_alpha                 89.468487
_cell_angle_beta                  90.755979
_cell_angle_gamma                 90.021164
_cell_volume                      3786.28687294

loop_
_atom_site_label
_atom_site_type_symbol
_atom_site_description
_atom_site_fract_x
_atom_site_fract_y
_atom_site_fract_z
_atom_type_partial_charge
O1    O     O_R   0.398180 0.560840 0.499970 -0.630460
O2    O     O_R   0.601820 0.560840 0.500030 -0.624858
O3    O     O_R   0.398180 0.439210 0.499910 -0.583757
O4    O     O_R   0.601820 0.439210 0.500090 -0.591587
C1    C     C_R   0.365464 0.500080 0.502512 0.900742
C2    C     C_R   0.634555 0.500081 0.502499 0.890414
O5    O     O_R   0.499990 0.560820 0.316770 -0.628039
O6    O     O_R   0.500010 0.560820 0.683230 -0.628763
O7    O     O_R   0.499990 0.439200 0.316710 -0.579971
O8    O     O_R   0.500010 0.439200 0.683290 -0.578155
C3    C     C_R   0.500793 0.500436 0.260030 0.899729
C4    C     C_R   0.501280 0.500022 0.740142 0.891745
Zn1   Zn    Zn3+2 0.500000 0.581210 0.500000 0.962443
Zn2   Zn    Zn3+2 0.500000 0.418790 0.500000 1.045202
C5    C     C_R   0.480458 0.561427 0.062470 0.120391
C6    C     C_R   0.480210 0.560913 0.934702 0.131085
C7    C     C_R   0.507568 0.502625 0.128740 -0.093575
C8    C     C_R   0.507624 0.502024 0.872075 -0.118764
C9    C     C_R   0.545892 0.449483 0.067505 -0.155888
C10   C     C_R   0.546758 0.449974 0.937622 -0.142742
H1    H     H_    0.572810 0.406992 0.119274 0.182813
H2    H     H_    0.576126 0.409476 0.889288 0.237119
C11   C     C_3   0.409378 0.593993 0.924979 -0.444142
C12   C     C_3   0.409609 0.594616 0.067366 -0.445888
H3    H     H_    0.410723 0.649007 0.882212 0.226831
H4    H     H_    0.370274 0.557810 0.109344 0.211494
H5    H     H_    0.369955 0.556774 0.883681 0.203779
H6    H     H_    0.411050 0.650008 0.106879 0.230379
C13   C     C_R   0.747475 0.435893 0.514764 -0.127988
C14   C     C_R   0.253100 0.435732 0.523321 -0.136058
H7    H     H_    0.722060 0.385119 0.493399 0.181302
H8    H     H_    0.278500 0.384299 0.508951 0.196126
C15   C     C_R   0.818701 0.436376 0.536736 -0.223770
C16   C     C_R   0.182164 0.436646 0.544906 -0.226901
H9    H     H_    0.847686 0.386391 0.529021 0.155241
H10   H     H_    0.153403 0.386245 0.542897 0.157070
C17   C     C_R   0.852846 0.501357 0.563395 -0.021395
C18   C     C_R   0.147993 0.502328 0.564070 -0.017420
C19   C     C_R   0.815314 0.566702 0.571666 0.315560
C20   C     C_R   0.185418 0.568033 0.565479 0.316308
C21   C     C_R   0.743849 0.565574 0.547644 -0.243378
C22   C     C_R   0.256466 0.566456 0.541021 -0.253435
H11   H     H_    0.714522 0.615351 0.554620 0.206013
H12   H     H_    0.285556 0.616625 0.542162 0.205278
C23   C     C_R   0.709856 0.500570 0.519003 -0.094947
C24   C     C_R   0.290397 0.500695 0.519502 -0.101413
C25   C     C_R   0.963634 0.540569 0.473849 -0.104963
C26   C     C_R   0.035614 0.540801 0.473973 -0.096309
H13   H     H_    0.935326 0.570854 0.402174 0.151090
H14   H     H_    0.062724 0.571162 0.402187 0.152970
C27   C     C_R   0.072448 0.501828 0.566300 0.139082
C28   C     C_R   0.928323 0.501143 0.565741 0.137278
C29   C     C_R   0.037235 0.461048 0.656816 -0.151539
C30   C     C_R   0.964895 0.460650 0.656454 -0.143944
H15   H     H_    0.065731 0.430239 0.727515 0.144918
H16   H     H_    0.937454 0.429556 0.726836 0.146371
C31   C     C_R   0.539270 0.726031 0.585285 -0.064689
C32   C     C_R   0.460711 0.725420 0.412811 -0.059887
H17   H     H_    0.569398 0.695545 0.654014 0.180690
H18   H     H_    0.430768 0.694412 0.345527 0.172402
C33   C     C_R   0.539679 0.802257 0.587242 0.211280
C34   C     C_R   0.460259 0.801567 0.406570 0.211047
C35   C     C_R   0.499969 0.841314 0.495781 -0.168480
N1    N     N_R   0.500000 0.689440 0.500000 -0.137315
C36   C     C_R   0.438085 0.961260 0.513025 -0.076231
C37   C     C_R   0.561651 0.961289 0.472046 -0.074035
H19   H     H_    0.389864 0.932665 0.530046 0.153309
H20   H     H_    0.609912 0.932715 0.456331 0.152533
C38   C     C_R   0.438087 0.037188 0.511738 -0.183345
C39   C     C_R   0.561637 0.037227 0.470829 -0.183040
H21   H     H_    0.389934 0.065773 0.528329 0.143304
H22   H     H_    0.609902 0.065860 0.454413 0.142548
C40   C     C_R   0.499896 0.076047 0.491036 0.140450
C41   C     C_R   0.499905 0.922410 0.493522 0.223058
C42   C     C_R   0.536202 0.194699 0.589136 -0.173986
C43   C     C_R   0.463805 0.198112 0.401634 -0.178128
C44   C     C_R   0.534435 0.271426 0.591736 0.352615
C45   C     C_R   0.464840 0.274774 0.405981 0.337142
N2    N     N_R   0.500000 0.310560 0.500000 -0.210024
C46   C     C_R   0.500203 0.157318 0.493578 -0.087431
N3    N     N_R   0.579097 0.838403 0.683894 0.213126
O9    O     O_R   0.554961 0.896357 0.736199 -0.394062
O10   O     O_R   0.634930 0.808386 0.731236 -0.357020
N4    N     N_R   0.420937 0.836883 0.307698 0.211992
O11   O     O_R   0.444931 0.894631 0.252601 -0.385690
O12   O     O_R   0.365437 0.806200 0.261288 -0.374860
C47   C     C_R   0.576373 0.154025 0.686616 0.181319
C48   C     C_R   0.649174 0.160672 0.693429 -0.108288
C49   C     C_R   0.687376 0.121352 0.783319 -0.130135
C50   C     C_R   0.653243 0.075061 0.866650 -0.072295
C51   C     C_R   0.580825 0.068207 0.860537 -0.080828
C52   C     C_R   0.542339 0.107732 0.771263 -0.083578
H23   H     H_    0.676273 0.195767 0.628439 0.142241
H24   H     H_    0.743483 0.126518 0.787998 0.146672
H25   H     H_    0.682915 0.044410 0.935833 0.150403
H26   H     H_    0.554637 0.032013 0.924720 0.152456
H27   H     H_    0.486218 0.102075 0.767625 0.132200
C53   C     C_R   0.424729 0.161038 0.299967 0.172774
C54   C     C_R   0.351687 0.164134 0.295355 -0.102446
C55   C     C_R   0.314730 0.128150 0.200867 -0.123610
C56   C     C_R   0.350391 0.088765 0.110752 -0.072235
C57   C     C_R   0.423070 0.085346 0.114931 -0.078730
C58   C     C_R   0.460273 0.121395 0.209068 -0.082946
H28   H     H_    0.323473 0.193820 0.365513 0.145875
H29   H     H_    0.258429 0.130577 0.197774 0.146867
H30   H     H_    0.321710 0.060789 0.037823 0.146654
H31   H     H_    0.450470 0.054614 0.045335 0.137328
H32   H     H_    0.516597 0.118341 0.211421 0.131567
N5    N     N_R   0.565623 0.307541 0.696030 0.214252
O13   O     O_R   0.545005 0.291122 0.808563 -0.413657
O14   O     O_R   0.624858 0.340465 0.682330 -0.432267
N6    N     N_R   0.429634 0.314819 0.308903 0.233056
O15   O     O_R   0.452145 0.311329 0.194501 -0.383855
O16   O     O_R   0.366883 0.338284 0.327578 -0.420917
N7    N     N_R   0.848581 0.633762 0.605307 0.208328
O17   O     O_R   0.821644 0.695147 0.569005 -0.346912
O18   O     O_R   0.901413 0.634335 0.683037 -0.320863
N8    N     N_R   0.152491 0.635938 0.593016 0.203577
O19   O     O_R   0.101700 0.638824 0.672459 -0.323277
O20   O     O_R   0.178081 0.696163 0.549501 -0.354727

loop_
_geom_bond_atom_site_label_1
_geom_bond_atom_site_label_2
_geom_bond_distance
_ccdc_geom_bond_type
C32   C34   1.409710 A    
C20   N8    1.441016 S    
C47   C48   1.404475 A    
C56   C57   1.397361 A    
C2    C23   1.454541 S    
C37   H20   1.082886 S    
C9    C10   1.384566 A    
N6    O16   1.299511 A    
N3    O9    1.301329 A    
C50   H25   1.082295 S    
C19   C21   1.393031 A    
C29   C30   1.389258 A    
O5    C3    1.275412 A    
C55   H29   1.082271 S    
O6    Zn1   1.985543 S    
O1    C1    1.287789 A    
C9    H1    1.083671 S    
C43   C45   1.419560 A    
N5    O14   1.299491 A    
C31   H17   1.082060 S    
C43   C53   1.483141 S    
C53   C58   1.404798 A    
C37   C41   1.406914 A    
C13   C15   1.384788 A    
C33   C35   1.421846 A    
C22   C24   1.402525 A    
C49   H24   1.082272 S    
C38   H21   1.082849 S    
O2    Zn1   1.991565 S    
N8    O19   1.301504 A    
C15   H9    1.083852 S    
C51   H26   1.081489 S    
C26   C27   1.399085 A    
C25   C26   1.382357 A    
N7    O18   1.301496 A    
C11   C12   1.517680 S    
C38   C40   1.406376 A    
C58   H32   1.083155 S    
C11   H5    1.112437 S    
C14   H8    1.082502 S    
C42   C46   1.409837 A    
C8    C10   1.397985 A    
C20   C22   1.392895 A    
C54   H28   1.083000 S    
C47   C52   1.405484 A    
C13   H7    1.083117 S    
C21   H11   1.083285 S    
O2    C2    1.287996 A    
C22   H12   1.083209 S    
N6    O15   1.301233 A    
N3    O10   1.301437 A    
C28   C30   1.399400 A    
C52   H27   1.083058 S    
C29   H15   1.083296 S    
C32   N1    1.358805 A    
C30   H16   1.083307 S    
C5    C6    1.361824 A    
C14   C16   1.384741 A    
C12   H6    1.111734 S    
N4    O11   1.301411 A    
C25   H13   1.083685 S    
O8    Zn2   1.993117 S    
C51   C52   1.398297 A    
C17   C28   1.449411 S    
C45   N2    1.375687 A    
C18   C27   1.451366 S    
C36   H19   1.082898 S    
C15   C17   1.398842 A    
C36   C41   1.406864 A    
C13   C23   1.399354 A    
C27   C29   1.400202 A    
O7    Zn2   1.986238 S    
C34   C35   1.421190 A    
C42   C44   1.420414 A    
C54   C55   1.397976 A    
O6    C4    1.273032 A    
C39   C40   1.406552 A    
C44   N2    1.373914 A    
C57   H31   1.081065 S    
Zn2   N2    2.002269 S    
C44   N5    1.427128 S    
O7    C3    1.279106 A    
O3    Zn2   1.991736 S    
O8    C4    1.283008 A    
C42   C47   1.485131 S    
C5    C12   1.494716 S    
C10   H2    1.077020 S    
C6    C11   1.493826 S    
C19   N7    1.441353 S    
O4    C2    1.289827 A    
O1    Zn1   1.991297 S    
C31   N1    1.358761 A    
C56   H30   1.082306 S    
C5    C7    1.389190 A    
C34   N4    1.440211 S    
C48   H23   1.083094 S    
C3    C7    1.407259 S    
C16   C18   1.399175 A    
C14   C24   1.399406 A    
C43   C46   1.409647 A    
N4    O12   1.301471 A    
O3    C1    1.290425 A    
C45   N6    1.429770 S    
C31   C33   1.410559 A    
C25   C28   1.398227 A    
C35   C41   1.500264 S    
C1    C24   1.455425 S    
C17   C19   1.411766 A    
C33   N3    1.439864 S    
N5    O13   1.301270 A    
C18   C20   1.412008 A    
C12   H4    1.112381 S    
C50   C51   1.397228 A    
C37   C39   1.404798 A    
Zn1   N1    2.002269 S    
C36   C38   1.404622 A    
C26   H14   1.083639 S    
C55   C56   1.397538 A    
C7    C9    1.399761 A    
C40   C46   1.504028 S    
C16   H10   1.083814 S    
C11   H3    1.111732 S    
O4    Zn2   1.991461 S    
C57   C58   1.398234 A    
N8    O20   1.301536 A    
O5    Zn1   1.992416 S    
C48   C49   1.397924 A    
C6    C8    1.390261 A    
C53   C54   1.404156 A    
C4    C8    1.410649 S    
C21   C23   1.402346 A    
C39   H22   1.082857 S    
C49   C50   1.397420 A    
C32   H18   1.081917 S    
N7    O17   1.301540 A    
