data_mof_unit_59197.cif
_audit_creation_date              2013-03-05T16:33:21-0500
_audit_creation_method            fapswitch 2.2
_symmetry_space_group_name_H-M    P1
_symmetry_Int_Tables_number       1
_space_group_crystal_system       triclinic
_cell_length_a                    15.851691
_cell_length_b                    15.863328
_cell_length_c                    60.18699
_cell_angle_alpha                 90.015283
_cell_angle_beta                  89.999846
_cell_angle_gamma                 90.032005
_cell_volume                      15134.6521343

loop_
_atom_site_label
_atom_site_type_symbol
_atom_site_description
_atom_site_fract_x
_atom_site_fract_y
_atom_site_fract_z
_atom_type_partial_charge
Zn1   Zn    Zn3+2 0.599000 1.000000 0.730930 0.969464
Zn2   Zn    Zn3+2 0.401000 1.000000 0.269070 0.969077
Zn3   Zn    Zn3+2 0.000000 0.599000 0.730930 0.969491
Zn4   Zn    Zn3+2 0.000000 0.401000 0.269070 0.969867
Zn5   Zn    Zn3+2 0.401000 1.000000 0.730930 0.969316
Zn6   Zn    Zn3+2 0.599000 1.000000 0.269070 0.969181
Zn7   Zn    Zn3+2 0.000000 0.401000 0.730930 0.969168
Zn8   Zn    Zn3+2 0.000000 0.599000 0.269070 0.969698
Zn9   Zn    Zn3+2 0.099000 0.500000 0.230930 0.969287
Zn10  Zn    Zn3+2 0.901000 0.500000 0.769070 0.969506
Zn11  Zn    Zn3+2 0.500000 0.099000 0.230930 0.969351
Zn12  Zn    Zn3+2 0.500000 0.901000 0.769070 0.969410
Zn13  Zn    Zn3+2 0.901000 0.500000 0.230930 0.969525
Zn14  Zn    Zn3+2 0.099000 0.500000 0.769070 0.969478
Zn15  Zn    Zn3+2 0.500000 0.901000 0.230930 0.969348
Zn16  Zn    Zn3+2 0.500000 0.099000 0.769070 0.969390
O1    O     O_3   0.500000 1.000000 0.750000 -0.485000
O2    O     O_3   0.500000 1.000000 0.250000 -0.485214
O3    O     O_3   0.000000 0.500000 0.750000 -0.485303
O4    O     O_3   0.000000 0.500000 0.250000 -0.485099
O5    O     O_R   0.500000 0.069020 0.799580 -0.617421
O6    O     O_R   0.500000 0.930980 0.200420 -0.616177
O7    O     O_R   0.930980 0.500000 0.799580 -0.616197
O8    O     O_R   0.069020 0.500000 0.200420 -0.617499
O9    O     O_R   0.500000 0.930980 0.799580 -0.617340
O10   O     O_R   0.500000 0.069020 0.200420 -0.616128
O11   O     O_R   0.069020 0.500000 0.799580 -0.616202
O12   O     O_R   0.930980 0.500000 0.200420 -0.617513
O13   O     O_R   0.000000 0.569020 0.299580 -0.617410
O14   O     O_R   0.000000 0.430980 0.700420 -0.617402
O15   O     O_R   0.430980 1.000000 0.299580 -0.617063
O16   O     O_R   0.569020 1.000000 0.700420 -0.617316
O17   O     O_R   0.000000 0.430980 0.299580 -0.617318
O18   O     O_R   0.000000 0.569020 0.700420 -0.617268
O19   O     O_R   0.569020 1.000000 0.299580 -0.617185
O20   O     O_R   0.430980 1.000000 0.700420 -0.617139
O21   O     O_R   0.597490 0.833170 0.762730 -0.640247
O22   O     O_R   0.402510 0.166830 0.237270 -0.650491
O23   O     O_R   0.166830 0.597490 0.762730 -0.639109
O24   O     O_R   0.833170 0.402510 0.237270 -0.649292
O25   O     O_R   0.402510 0.166830 0.762730 -0.640276
O26   O     O_R   0.597490 0.833170 0.237270 -0.650605
O27   O     O_R   0.833170 0.402510 0.762730 -0.639029
O28   O     O_R   0.166830 0.597490 0.237270 -0.649416
O29   O     O_R   0.597490 0.166830 0.237270 -0.639000
O30   O     O_R   0.402510 0.833170 0.762730 -0.648997
O31   O     O_R   0.166830 0.402510 0.237270 -0.640478
O32   O     O_R   0.833170 0.597490 0.762730 -0.650767
O33   O     O_R   0.402510 0.833170 0.237270 -0.639028
O34   O     O_R   0.597490 0.166830 0.762730 -0.649080
O35   O     O_R   0.833170 0.597490 0.237270 -0.640324
O36   O     O_R   0.166830 0.402510 0.762730 -0.650614
O37   O     O_R   0.097490 0.333170 0.262730 -0.639657
O38   O     O_R   0.902510 0.666830 0.737270 -0.649206
O39   O     O_R   0.666830 0.097490 0.262730 -0.639840
O40   O     O_R   0.333170 0.902510 0.737270 -0.650315
O41   O     O_R   0.902510 0.666830 0.262730 -0.639827
O42   O     O_R   0.097490 0.333170 0.737270 -0.649415
O43   O     O_R   0.333170 0.902510 0.262730 -0.639879
O44   O     O_R   0.666830 0.097490 0.737270 -0.650014
O45   O     O_R   0.097490 0.666830 0.737270 -0.639951
O46   O     O_R   0.902510 0.333170 0.262730 -0.649298
O47   O     O_R   0.666830 0.902510 0.737270 -0.639613
O48   O     O_R   0.333170 0.097490 0.262730 -0.650025
O49   O     O_R   0.902510 0.333170 0.737270 -0.640185
O50   O     O_R   0.097490 0.666830 0.262730 -0.649410
O51   O     O_R   0.333170 0.097490 0.737270 -0.639655
O52   O     O_R   0.666830 0.902510 0.262730 -0.649867
C1    C     C_R   0.500004 0.000012 0.810505 0.907248
C2    C     C_R   0.499998 0.999990 0.189509 0.902893
C3    C     C_R   0.999999 0.499995 0.810495 0.903242
C4    C     C_R   0.999999 0.499986 0.189490 0.907941
C5    C     C_R   0.000144 0.500035 0.310489 0.906956
C6    C     C_R   0.000141 0.499965 0.689511 0.907503
C7    C     C_R   0.499961 0.999974 0.310514 0.905888
C8    C     C_R   0.499961 0.000032 0.689486 0.905629
C9    C     C_R   0.660321 0.839707 0.750000 0.861877
C10   C     C_R   0.339684 0.160290 0.250001 0.853198
C11   C     C_R   0.160311 0.660287 0.750001 0.861390
C12   C     C_R   0.839695 0.339714 0.249997 0.853144
C13   C     C_R   0.339681 0.160300 0.750000 0.862151
C14   C     C_R   0.660315 0.839703 0.250000 0.853289
C15   C     C_R   0.839691 0.339706 0.750000 0.861515
C16   C     C_R   0.160304 0.660291 0.249999 0.853271
C17   C     C_R   0.660307 0.160290 0.250004 0.861065
C18   C     C_R   0.339699 0.839709 0.749994 0.853240
C19   C     C_R   0.160313 0.339699 0.249995 0.862264
C20   C     C_R   0.839695 0.660301 0.750007 0.853166
C21   C     C_R   0.339695 0.839703 0.250003 0.861302
C22   C     C_R   0.660299 0.160297 0.749996 0.853275
C23   C     C_R   0.839689 0.660308 0.249996 0.862292
C24   C     C_R   0.160304 0.339693 0.750005 0.853226
C25   C     C_1   0.723379 0.223375 0.749993 -0.165727
C26   C     C_1   0.276608 0.776619 0.250005 -0.161151
C27   C     C_1   0.776616 0.723380 0.750012 -0.165680
C28   C     C_1   0.223398 0.276614 0.249992 -0.162090
C29   C     C_1   0.276616 0.776631 0.749991 -0.165725
C30   C     C_1   0.723397 0.223375 0.250005 -0.160852
C31   C     C_1   0.223380 0.276615 0.750009 -0.166327
C32   C     C_1   0.776606 0.723391 0.249993 -0.162220
C33   C     C_1   0.723395 0.776631 0.249999 -0.166160
C34   C     C_1   0.276592 0.223377 0.750004 -0.162063
C35   C     C_1   0.776611 0.276636 0.249997 -0.165181
C36   C     C_1   0.223402 0.723370 0.749999 -0.161209
C37   C     C_1   0.276600 0.223364 0.250001 -0.166368
C38   C     C_1   0.723413 0.776629 0.750003 -0.161730
C39   C     C_1   0.223386 0.723369 0.250000 -0.165668
C40   C     C_1   0.776602 0.276624 0.749998 -0.161341
C41   C     C_R   0.489117 0.075049 0.582425 0.653911
C42   C     C_R   0.489143 0.925039 0.417574 0.653822
C43   C     C_R   0.927890 0.498649 0.582642 0.666961
C44   C     C_R   0.078320 0.500528 0.417363 0.668415
C45   C     C_R   0.506917 0.925775 0.582437 0.655896
C46   C     C_R   0.506933 0.074335 0.417563 0.655910
C47   C     C_R   0.078307 0.499430 0.582638 0.668438
C48   C     C_R   0.927905 0.501400 0.417359 0.666896
C49   C     C_R   0.998693 0.574938 0.082508 0.667183
C50   C     C_R   0.985831 0.426049 0.917413 0.656865
C51   C     C_R   0.426174 0.985862 0.082574 0.656949
C52   C     C_R   0.575315 0.998829 0.917501 0.667251
C53   C     C_R   0.001265 0.424595 0.082490 0.667373
C54   C     C_R   0.014050 0.573705 0.917430 0.656964
C55   C     C_R   0.573936 0.014072 0.082582 0.656747
C56   C     C_R   0.424862 0.001447 0.917500 0.667294
O53   O     O_2   0.484454 0.147414 0.594131 -0.514193
O54   O     O_2   0.484496 0.852669 0.405868 -0.514265
O55   O     O_2   0.855550 0.498016 0.594452 -0.499350
O56   O     O_2   0.150660 0.499769 0.405556 -0.498733
O57   O     O_2   0.512430 0.853577 0.594178 -0.513551
O58   O     O_2   0.512432 0.146541 0.405823 -0.513561
O59   O     O_2   0.150645 0.500139 0.594446 -0.498750
O60   O     O_2   0.855568 0.502076 0.405548 -0.499333
O61   O     O_2   0.997416 0.647202 0.094325 -0.495154
O62   O     O_2   0.975559 0.354358 0.905663 -0.511912
O63   O     O_2   0.354421 0.975561 0.094313 -0.511846
O64   O     O_2   0.647640 0.997509 0.905693 -0.495168
O65   O     O_2   0.002568 0.352317 0.094291 -0.495085
O66   O     O_2   0.024355 0.645406 0.905696 -0.511922
O67   O     O_2   0.645684 0.024327 0.094327 -0.511996
O68   O     O_2   0.352540 0.002761 0.905691 -0.495084
N1    N     N_R   0.498479 0.000490 0.593539 -0.295941
N2    N     N_R   0.498496 0.999611 0.406461 -0.295909
N3    N     N_R   0.003093 0.499171 0.593707 -0.305139
N4    N     N_R   0.003110 0.500829 0.406293 -0.305145
N5    N     N_R   0.999987 0.499759 0.093578 -0.305192
N6    N     N_R   0.999955 0.499882 0.906330 -0.297606
N7    N     N_R   0.500051 0.999953 0.093671 -0.297568
N8    N     N_R   0.500090 0.000128 0.906421 -0.305189
C57   C     C_R   0.575699 0.991256 0.629125 0.215145
C58   C     C_R   0.575705 0.008937 0.370873 0.214979
C59   C     C_R   0.014205 0.575616 0.629301 0.212697
C60   C     C_R   0.991000 0.576738 0.370676 0.213189
C61   C     C_R   0.422642 0.009776 0.629295 0.215031
C62   C     C_R   0.422652 0.990222 0.370707 0.214962
C63   C     C_R   0.990859 0.423267 0.629324 0.212971
C64   C     C_R   0.014106 0.424379 0.370700 0.212859
C65   C     C_R   0.076138 0.487803 0.129231 0.212548
C66   C     C_R   0.076857 0.505857 0.870703 0.216595
C67   C     C_R   0.505985 0.076783 0.129305 0.216562
C68   C     C_R   0.488154 0.076191 0.870768 0.212659
C69   C     C_R   0.923835 0.511753 0.129230 0.212718
C70   C     C_R   0.923094 0.493967 0.870697 0.216589
C71   C     C_R   0.494054 0.923138 0.129297 0.216559
C72   C     C_R   0.511998 0.923983 0.870769 0.212634
C73   C     C_R   0.576351 0.994124 0.652565 0.295016
C74   C     C_R   0.576355 0.006020 0.347434 0.295012
C75   C     C_R   0.009822 0.576270 0.652706 0.294372
C76   C     C_R   0.993426 0.576947 0.347256 0.294810
C77   C     C_R   0.422686 0.006528 0.652719 0.295373
C78   C     C_R   0.422690 0.993456 0.347282 0.295265
C79   C     C_R   0.993308 0.423054 0.652745 0.294859
C80   C     C_R   0.009740 0.423729 0.347294 0.294391
C81   C     C_R   0.076582 0.491196 0.152662 0.293914
C82   C     C_R   0.077043 0.503148 0.847287 0.295272
C83   C     C_R   0.503221 0.076969 0.152720 0.295329
C84   C     C_R   0.491444 0.076601 0.847336 0.293872
C85   C     C_R   0.923397 0.508509 0.152661 0.293797
C86   C     C_R   0.922929 0.496743 0.847282 0.295288
C87   C     C_R   0.496780 0.922970 0.152714 0.295336
C88   C     C_R   0.508649 0.923513 0.847338 0.293884
C89   C     C_R   0.498973 0.000581 0.617514 -0.028082
C90   C     C_R   0.498984 0.999521 0.382486 -0.027981
C91   C     C_R   0.002957 0.499328 0.617645 -0.032805
C92   C     C_R   0.002977 0.500671 0.382356 -0.032945
C93   C     C_R   0.999986 0.499754 0.117543 -0.032661
C94   C     C_R   0.999970 0.499897 0.882376 -0.030238
C95   C     C_R   0.500036 0.999956 0.117625 -0.030203
C96   C     C_R   0.500088 0.000101 0.882456 -0.032707
C97   C     C_R   0.496804 0.000194 0.547173 -0.163000
C98   C     C_R   0.496822 0.999899 0.452826 -0.162961
C99   C     C_R   0.003064 0.499161 0.547318 -0.173855
C100  C     C_R   0.003072 0.500851 0.452683 -0.173853
C101  C     C_R   0.999940 0.499791 0.047188 -0.176164
C102  C     C_R   0.999906 0.499860 0.952696 -0.163134
C103  C     C_R   0.500064 0.000030 0.047304 -0.163097
C104  C     C_R   0.500084 0.000143 0.952812 -0.176177
C105  C     C_R   0.485534 0.076472 0.558985 -0.137420
C106  C     C_R   0.485551 0.923610 0.441014 -0.137432
C107  C     C_R   0.925888 0.499326 0.559194 -0.111518
C108  C     C_R   0.080300 0.501393 0.440821 -0.113207
C109  C     C_R   0.508652 0.924021 0.558982 -0.137150
C110  C     C_R   0.508679 0.076086 0.441019 -0.137197
C111  C     C_R   0.080288 0.498572 0.559180 -0.113182
C112  C     C_R   0.925898 0.500729 0.440806 -0.111562
C113  C     C_R   0.999103 0.577006 0.059042 -0.113139
C114  C     C_R   0.982944 0.424647 0.940848 -0.133945
C115  C     C_R   0.424789 0.983041 0.059139 -0.133974
C116  C     C_R   0.577366 0.999279 0.940968 -0.113291
C117  C     C_R   0.000804 0.422557 0.059024 -0.113253
C118  C     C_R   0.016877 0.575088 0.940866 -0.133896
C119  C     C_R   0.575333 0.016978 0.059148 -0.133999
C120  C     C_R   0.422805 0.001016 0.940967 -0.113150
C121  C     C_R   0.470566 0.151631 0.546999 0.521825
C122  C     C_R   0.470573 0.848434 0.453000 0.521804
C123  C     C_R   0.849132 0.500308 0.547386 0.503889
C124  C     C_R   0.157043 0.503115 0.452649 0.503660
C125  C     C_R   0.522198 0.848613 0.546980 0.524282
C126  C     C_R   0.522248 0.151505 0.453021 0.524251
C127  C     C_R   0.157029 0.496817 0.547353 0.503671
C128  C     C_R   0.849137 0.499796 0.452614 0.503856
C129  C     C_R   0.997486 0.653802 0.047195 0.506892
C130  C     C_R   0.963294 0.350534 0.952762 0.515619
C131  C     C_R   0.350630 0.963442 0.047211 0.515685
C132  C     C_R   0.654207 0.997679 0.952826 0.506845
C133  C     C_R   0.002387 0.345778 0.047157 0.506850
C134  C     C_R   0.036465 0.649199 0.952798 0.515728
C135  C     C_R   0.649494 0.036637 0.047229 0.515652
C136  C     C_R   0.345960 0.002638 0.952824 0.506926
C137  C     C_R   0.499699 0.000219 0.664614 -0.333735
C138  C     C_R   0.499702 0.999823 0.335386 -0.333633
C139  C     C_R   0.000988 0.499789 0.664677 -0.331256
C140  C     C_R   0.001002 0.500212 0.335323 -0.331404
C141  C     C_R   0.999994 0.499904 0.164627 -0.330128
C142  C     C_R   0.999991 0.499965 0.835331 -0.334102
C143  C     C_R   0.500000 0.999974 0.164672 -0.333952
C144  C     C_R   0.500029 0.000042 0.835370 -0.330091
C145  C     C_R   0.011558 0.576407 0.988143 0.022165
C146  C     C_R   0.994768 0.422592 0.011732 0.030594
C147  C     C_R   0.422795 0.995001 0.988257 0.030637
C148  C     C_R   0.576696 0.011760 0.011869 0.022149
C149  C     C_R   0.988221 0.423267 0.988124 0.022184
C150  C     C_R   0.005034 0.577045 0.011751 0.030639
C151  C     C_R   0.577360 0.005250 0.988260 0.030552
C152  C     C_R   0.423447 0.988427 0.011863 0.022169
C153  C     C_R   0.500073 0.077308 0.488228 0.019978
C154  C     C_R   0.500054 0.922787 0.511772 0.019991
C155  C     C_R   0.925501 0.499181 0.488155 0.031873
C156  C     C_R   0.080462 0.498458 0.511837 0.031158
C157  C     C_R   0.491932 0.922749 0.488236 0.020085
C158  C     C_R   0.491939 0.077338 0.511764 0.020097
C159  C     C_R   0.080466 0.501517 0.488165 0.031151
C160  C     C_R   0.925501 0.500881 0.511845 0.031899
C161  C     C_R   0.999896 0.499845 0.976378 0.077939
C162  C     C_R   0.999915 0.499809 0.023506 0.083351
C163  C     C_R   0.500080 0.000133 0.976494 0.083362
C164  C     C_R   0.500069 0.000072 0.023622 0.077946
C165  C     C_R   0.496258 0.999992 0.476478 0.081852
C166  C     C_R   0.496248 0.000100 0.523522 0.081856
C167  C     C_R   0.003011 0.500499 0.476396 0.080812
C168  C     C_R   0.003007 0.499518 0.523605 0.080825
C169  C     C_R   0.030702 0.649845 0.975882 -0.303508
C170  C     C_R   0.996983 0.346826 0.023957 -0.343131
C171  C     C_R   0.346987 0.997252 0.976023 -0.343287
C172  C     C_R   0.650166 0.030916 0.024142 -0.303550
C173  C     C_R   0.969043 0.349855 0.975847 -0.303532
C174  C     C_R   0.002829 0.652791 0.023994 -0.343154
C175  C     C_R   0.653173 0.003046 0.976028 -0.343123
C176  C     C_R   0.349969 0.969243 0.024127 -0.303568
C177  C     C_R   0.513944 0.152049 0.476087 -0.306949
C178  C     C_R   0.513900 0.848059 0.523914 -0.306969
C179  C     C_R   0.850030 0.495194 0.475772 -0.340026
C180  C     C_R   0.155913 0.492840 0.524174 -0.339002
C181  C     C_R   0.477841 0.848023 0.476089 -0.306728
C182  C     C_R   0.477849 0.152050 0.523909 -0.306767
C183  C     C_R   0.155928 0.507097 0.475828 -0.339043
C184  C     C_R   0.850035 0.504912 0.524227 -0.339993
H1    H     H_    0.045146 0.709075 0.983738 0.153716
H2    H     H_    0.996628 0.286309 0.015938 0.151088
H3    H     H_    0.286420 0.996936 0.984035 0.151127
H4    H     H_    0.709431 0.045421 0.016296 0.153769
H5    H     H_    0.954546 0.290627 0.983689 0.153783
H6    H     H_    0.003153 0.713322 0.015992 0.151102
H7    H     H_    0.713739 0.003380 0.984040 0.151103
H8    H     H_    0.290704 0.954781 0.016273 0.153771
H9    H     H_    0.523366 0.211951 0.484202 0.156007
H10   H     H_    0.523300 0.788163 0.515799 0.155985
H11   H     H_    0.789455 0.486759 0.483453 0.151825
H12   H     H_    0.216115 0.483180 0.516386 0.151532
H13   H     H_    0.467450 0.788286 0.484205 0.156680
H14   H     H_    0.467470 0.211776 0.515793 0.156679
H15   H     H_    0.216143 0.516734 0.483617 0.151531
H16   H     H_    0.789475 0.513378 0.516547 0.151804
O69   O     O_3   0.346880 0.013286 0.664003 -0.573313
C185  C     C_3   0.309674 0.932459 0.665542 0.171375
H17   H     H_    0.353851 0.886571 0.673399 0.120355
H18   H     H_    0.291607 0.908854 0.648775 0.172706
C186  C     C_3   0.230261 0.938485 0.679867 -0.326784
H19   H     H_    0.246955 0.964841 0.696412 0.252008
H20   H     H_    0.184386 0.981754 0.671810 0.237620
C187  C     C_3   0.189050 0.852327 0.683059 -0.896199
H21   H     H_    0.170408 0.825248 0.666755 0.297640
H22   H     H_    0.131714 0.859113 0.693505 0.259468
H23   H     H_    0.233271 0.808547 0.691530 0.266258
O70   O     O_3   0.346880 0.986625 0.336000 -0.573372
C188  C     C_3   0.309671 0.067412 0.334470 0.171452
H24   H     H_    0.353803 0.113326 0.326586 0.120439
H25   H     H_    0.291722 0.091033 0.351243 0.172593
C189  C     C_3   0.230155 0.061285 0.320185 -0.326935
H26   H     H_    0.246736 0.034960 0.303631 0.251832
H27   H     H_    0.184353 0.017951 0.328265 0.237763
C190  C     C_3   0.188893 0.147387 0.317019 -0.896073
H28   H     H_    0.170364 0.174426 0.333333 0.297624
H29   H     H_    0.131476 0.140524 0.306603 0.259438
H30   H     H_    0.233036 0.191235 0.308527 0.266306
O71   O     O_3   0.984304 0.347434 0.663981 -0.573995
C191  C     C_3   0.064062 0.307930 0.665462 0.169601
H31   H     H_    0.111124 0.350460 0.673492 0.121964
H32   H     H_    0.087385 0.289945 0.648661 0.169473
C192  C     C_3   0.055613 0.228141 0.679527 -0.326842
H33   H     H_    0.029860 0.244840 0.696137 0.250482
H34   H     H_    0.010875 0.184018 0.671326 0.238384
C193  C     C_3   0.140515 0.184204 0.682537 -0.896155
H35   H     H_    0.166998 0.165702 0.666156 0.296387
H36   H     H_    0.131958 0.126525 0.692744 0.259453
H37   H     H_    0.185700 0.226570 0.691177 0.266827
O72   O     O_3   0.017880 0.347937 0.336089 -0.574217
C194  C     C_3   0.937982 0.308449 0.335017 0.169534
H38   H     H_    0.890420 0.350903 0.327191 0.122105
H39   H     H_    0.915833 0.290646 0.351940 0.169551
C195  C     C_3   0.945346 0.228521 0.320957 -0.327810
H40   H     H_    0.969912 0.245062 0.304212 0.250339
H41   H     H_    0.990624 0.184486 0.328957 0.238500
C196  C     C_3   0.860206 0.184539 0.318395 -0.895627
H42   H     H_    0.834916 0.166148 0.334913 0.296069
H43   H     H_    0.867975 0.126789 0.308167 0.259475
H44   H     H_    0.814429 0.226827 0.309971 0.266853
O73   O     O_3   0.652419 0.987126 0.663711 -0.573082
C197  C     C_3   0.689708 0.067900 0.665296 0.170621
H45   H     H_    0.645748 0.113685 0.673285 0.120018
H46   H     H_    0.707397 0.091762 0.648528 0.172061
C198  C     C_3   0.769447 0.061582 0.679486 -0.326104
H47   H     H_    0.753075 0.035152 0.696041 0.251377
H48   H     H_    0.815025 0.018260 0.671326 0.237933
C199  C     C_3   0.810950 0.147615 0.682663 -0.896286
H49   H     H_    0.829334 0.174732 0.666348 0.297542
H50   H     H_    0.868486 0.140618 0.693023 0.259509
H51   H     H_    0.767021 0.191465 0.691220 0.265962
O74   O     O_3   0.652420 0.013060 0.336283 -0.573158
C200  C     C_3   0.689781 0.932345 0.334753 0.170640
H52   H     H_    0.645846 0.886381 0.326807 0.119887
H53   H     H_    0.707537 0.908712 0.351536 0.172335
C201  C     C_3   0.769472 0.938663 0.320543 -0.326610
H54   H     H_    0.752972 0.964568 0.303942 0.251331
H55   H     H_    0.814905 0.982413 0.328618 0.238086
C202  C     C_3   0.811295 0.852750 0.317522 -0.896069
H56   H     H_    0.829971 0.826258 0.333883 0.297541
H57   H     H_    0.868694 0.859711 0.307107 0.259467
H58   H     H_    0.767461 0.808396 0.309092 0.266086
O75   O     O_3   0.018018 0.652060 0.663914 -0.574277
C203  C     C_3   0.938182 0.691600 0.664947 0.169475
H59   H     H_    0.890439 0.649120 0.672707 0.121901
H60   H     H_    0.916282 0.709578 0.648016 0.169921
C204  C     C_3   0.945522 0.771384 0.679066 -0.328206
H61   H     H_    0.969571 0.754618 0.695844 0.250446
H62   H     H_    0.991191 0.815344 0.671173 0.238539
C205  C     C_3   0.860512 0.815629 0.681498 -0.895458
H63   H     H_    0.835876 0.834470 0.664948 0.296019
H64   H     H_    0.868204 0.873132 0.691826 0.259496
H65   H     H_    0.814248 0.773340 0.689757 0.266930
O76   O     O_3   0.984467 0.652574 0.336025 -0.573869
C206  C     C_3   0.064283 0.692017 0.334496 0.169596
H66   H     H_    0.111047 0.649609 0.326324 0.122408
H67   H     H_    0.088041 0.709560 0.351289 0.168733
C207  C     C_3   0.055713 0.772168 0.320584 -0.326261
H68   H     H_    0.029213 0.755984 0.304017 0.250043
H69   H     H_    0.011542 0.816281 0.328980 0.238530
C208  C     C_3   0.140731 0.815816 0.317411 -0.896328
H70   H     H_    0.168179 0.833436 0.333751 0.296499
H71   H     H_    0.132021 0.873977 0.307407 0.259391
H72   H     H_    0.185188 0.773598 0.308484 0.266712
O77   O     O_3   0.847729 0.517720 0.163889 -0.574862
C209  C     C_3   0.807378 0.438331 0.165122 0.169198
H73   H     H_    0.849225 0.390745 0.173156 0.122411
H74   H     H_    0.789709 0.415612 0.148240 0.168832
C210  C     C_3   0.727144 0.447084 0.179023 -0.329027
H75   H     H_    0.743611 0.471742 0.195765 0.248874
H76   H     H_    0.683917 0.492776 0.170880 0.239763
C211  C     C_3   0.681878 0.362671 0.181608 -0.892261
H77   H     H_    0.663737 0.337237 0.165083 0.295814
H78   H     H_    0.623805 0.371450 0.191663 0.260306
H79   H     H_    0.723274 0.316575 0.190214 0.266188
O78   O     O_3   0.846777 0.492455 0.836072 -0.572283
C212  C     C_3   0.812688 0.574537 0.834338 0.169777
H80   H     H_    0.858398 0.618354 0.826254 0.118338
H81   H     H_    0.795988 0.599562 0.851059 0.172296
C213  C     C_3   0.732720 0.570798 0.820167 -0.326010
H82   H     H_    0.748079 0.543496 0.803642 0.251682
H83   H     H_    0.685600 0.529240 0.828373 0.238571
C214  C     C_3   0.694379 0.658184 0.816894 -0.894251
H84   H     H_    0.676856 0.686152 0.833177 0.299104
H85   H     H_    0.636709 0.653065 0.806507 0.260794
H86   H     H_    0.739932 0.700346 0.808326 0.263884
O79   O     O_3   0.492430 0.846877 0.163918 -0.572198
C215  C     C_3   0.574541 0.812737 0.165653 0.169723
H87   H     H_    0.618452 0.858395 0.173728 0.118292
H88   H     H_    0.599533 0.795969 0.148933 0.172386
C216  C     C_3   0.570747 0.732881 0.179837 -0.326023
H89   H     H_    0.543552 0.748329 0.196369 0.251790
H90   H     H_    0.529030 0.685840 0.171653 0.238545
C217  C     C_3   0.658149 0.694425 0.183086 -0.894247
H91   H     H_    0.685978 0.676751 0.166797 0.299115
H92   H     H_    0.653000 0.636876 0.193498 0.260793
H93   H     H_    0.700494 0.739919 0.191618 0.263910
O80   O     O_3   0.517763 0.847875 0.836111 -0.574808
C218  C     C_3   0.438283 0.807605 0.834900 0.169231
H94   H     H_    0.390647 0.849447 0.826882 0.122378
H95   H     H_    0.415628 0.789970 0.851788 0.168858
C219  C     C_3   0.446918 0.727419 0.820993 -0.329174
H96   H     H_    0.471489 0.743855 0.804242 0.248964
H97   H     H_    0.492679 0.684209 0.829117 0.239770
C220  C     C_3   0.362409 0.682217 0.818440 -0.892057
H98   H     H_    0.337075 0.664081 0.834974 0.295834
H99   H     H_    0.371097 0.624193 0.808372 0.260373
H100  H     H_    0.316229 0.723606 0.809859 0.266112
O81   O     O_3   0.152247 0.482064 0.163896 -0.574964
C221  C     C_3   0.192673 0.561431 0.165068 0.169226
H101  H     H_    0.150711 0.609311 0.172945 0.121923
H102  H     H_    0.210808 0.583639 0.148176 0.169660
C222  C     C_3   0.272519 0.552945 0.179130 -0.329604
H103  H     H_    0.255509 0.529174 0.195920 0.249342
H104  H     H_    0.315721 0.506662 0.171207 0.239610
C223  C     C_3   0.318152 0.637247 0.181526 -0.892292
H105  H     H_    0.337219 0.661563 0.164960 0.295776
H106  H     H_    0.375701 0.628753 0.191800 0.260285
H107  H     H_    0.276643 0.684097 0.189817 0.266352
O82   O     O_3   0.153204 0.507459 0.836083 -0.572272
C224  C     C_3   0.187279 0.425376 0.834320 0.169748
H108  H     H_    0.141578 0.381607 0.826208 0.118387
H109  H     H_    0.203924 0.400274 0.851033 0.172206
C225  C     C_3   0.267289 0.429153 0.820167 -0.325854
H110  H     H_    0.251998 0.456578 0.803656 0.251642
H111  H     H_    0.314415 0.470623 0.828407 0.238581
C226  C     C_3   0.305575 0.341761 0.816848 -0.894308
H112  H     H_    0.322978 0.313645 0.833118 0.299064
H113  H     H_    0.363311 0.346914 0.806487 0.260809
H114  H     H_    0.260035 0.299709 0.808233 0.263876
O83   O     O_3   0.507503 0.153080 0.163928 -0.572209
C227  C     C_3   0.425349 0.187109 0.165680 0.169807
H115  H     H_    0.381521 0.141402 0.173760 0.118341
H116  H     H_    0.400288 0.203816 0.148965 0.172294
C228  C     C_3   0.429069 0.266993 0.179866 -0.325919
H117  H     H_    0.456471 0.251641 0.196378 0.251864
H118  H     H_    0.470579 0.314136 0.171656 0.238487
C229  C     C_3   0.341594 0.305212 0.183178 -0.894239
H119  H     H_    0.313528 0.322741 0.166909 0.299112
H120  H     H_    0.346698 0.362814 0.193580 0.260862
H121  H     H_    0.299477 0.259629 0.191748 0.263831
O84   O     O_3   0.482293 0.152210 0.836109 -0.574825
C230  C     C_3   0.561765 0.192486 0.834882 0.169261
H122  H     H_    0.609380 0.150634 0.826852 0.122385
H123  H     H_    0.584474 0.210151 0.851766 0.168837
C231  C     C_3   0.553078 0.272650 0.820980 -0.329134
H124  H     H_    0.528438 0.256187 0.804235 0.248949
H125  H     H_    0.507349 0.315875 0.829117 0.239784
C232  C     C_3   0.637578 0.317843 0.818404 -0.892071
H126  H     H_    0.662985 0.335997 0.834931 0.295869
H127  H     H_    0.628847 0.375857 0.808342 0.260344
H128  H     H_    0.683719 0.276442 0.809807 0.266130
N9    N     N_R   0.344468 0.021805 0.617537 0.227926
O85   O     O_R   0.288895 0.075528 0.624789 -0.337248
O86   O     O_R   0.327015 0.977168 0.599988 -0.394369
N10   N     N_R   0.344481 0.978102 0.382466 0.227912
O87   O     O_R   0.288910 0.924311 0.375215 -0.337287
O88   O     O_R   0.327030 0.022720 0.400015 -0.394421
N11   N     N_R   0.976197 0.345731 0.617484 0.233318
O89   O     O_R   0.920749 0.291791 0.624717 -0.325945
O90   O     O_R   0.020232 0.327022 0.599921 -0.397624
N12   N     N_R   0.029520 0.347036 0.382542 0.233845
O91   O     O_R   0.084284 0.292918 0.375068 -0.325641
O92   O     O_R   0.986792 0.328641 0.400351 -0.394983
N13   N     N_R   0.653502 0.979405 0.617183 0.228447
O93   O     O_R   0.709540 0.925963 0.624323 -0.336476
O94   O     O_R   0.670088 0.023809 0.599541 -0.394415
N14   N     N_R   0.653503 0.020935 0.382814 0.228354
O95   O     O_R   0.709514 0.074454 0.375665 -0.336594
O96   O     O_R   0.670116 0.976589 0.400461 -0.394560
N15   N     N_R   0.029767 0.652947 0.617459 0.233761
O97   O     O_R   0.084612 0.707035 0.624937 -0.325698
O98   O     O_R   0.987094 0.671367 0.599646 -0.394986
N16   N     N_R   0.976496 0.654286 0.382517 0.233444
O99   O     O_R   0.921130 0.708262 0.375291 -0.325973
O100  O     O_R   0.020594 0.672969 0.400075 -0.397646
N17   N     N_R   0.846403 0.526971 0.117384 0.234048
O101  O     O_R   0.792602 0.582351 0.124699 -0.325325
O102  O     O_R   0.827642 0.483495 0.099727 -0.399525
N18   N     N_R   0.844646 0.485806 0.882561 0.229064
O103  O     O_R   0.786530 0.434414 0.875488 -0.335508
O104  O     O_R   0.829603 0.531709 0.900035 -0.395056
N19   N     N_R   0.485882 0.844753 0.117425 0.229047
O105  O     O_R   0.434421 0.786694 0.124483 -0.335480
O106  O     O_R   0.531837 0.829714 0.099957 -0.395114
N20   N     N_R   0.527225 0.846613 0.882614 0.234065
O107  O     O_R   0.582583 0.792807 0.875289 -0.325335
O108  O     O_R   0.483774 0.827914 0.900279 -0.399382
N21   N     N_R   0.153559 0.472480 0.117387 0.233963
O109  O     O_R   0.207338 0.417121 0.124717 -0.325310
O110  O     O_R   0.172335 0.515838 0.099717 -0.399332
N22   N     N_R   0.155295 0.513979 0.882575 0.229111
O111  O     O_R   0.213431 0.565369 0.875520 -0.335396
O112  O     O_R   0.170308 0.468046 0.900039 -0.394975
N23   N     N_R   0.514143 0.155165 0.117441 0.229069
O113  O     O_R   0.565577 0.213244 0.124509 -0.335465
O114  O     O_R   0.468191 0.170185 0.099973 -0.395063
N24   N     N_R   0.472957 0.153589 0.882613 0.234069
O115  O     O_R   0.417580 0.207377 0.875297 -0.325237
O116  O     O_R   0.516448 0.172328 0.900272 -0.399507
O117  O     O_3   0.451132 0.226739 0.557543 -0.627166
C233  C     C_3   0.363631 0.229331 0.562392 0.171179
H129  H     H_    0.355520 0.267603 0.577707 0.209227
H130  H     H_    0.336065 0.166057 0.566122 0.150776
C234  C     C_3   0.314585 0.271886 0.543531 -0.461245
H131  H     H_    0.341091 0.335655 0.540425 0.242892
H132  H     H_    0.320569 0.234182 0.528070 0.220789
C235  C     C_3   0.221128 0.279754 0.549263 -0.784341
H133  H     H_    0.193074 0.216366 0.551906 0.267027
H134  H     H_    0.187307 0.310900 0.535359 0.258334
H135  H     H_    0.212642 0.318059 0.564549 0.301788
O118  O     O_3   0.451138 0.773305 0.442455 -0.627129
C236  C     C_3   0.363646 0.770638 0.437594 0.171222
H136  H     H_    0.355551 0.732336 0.422282 0.209232
H137  H     H_    0.336110 0.833885 0.433854 0.150826
C237  C     C_3   0.314544 0.728074 0.456452 -0.461269
H138  H     H_    0.341000 0.664317 0.459563 0.242943
H139  H     H_    0.320534 0.765790 0.471912 0.220790
C238  C     C_3   0.221088 0.720168 0.450712 -0.784194
H140  H     H_    0.193087 0.783543 0.448061 0.267054
H141  H     H_    0.187224 0.689027 0.464615 0.258302
H142  H     H_    0.212595 0.681843 0.435428 0.301786
O119  O     O_3   0.772543 0.504846 0.558484 -0.608176
C239  C     C_3   0.722189 0.432877 0.553990 0.153432
H143  H     H_    0.711347 0.399429 0.569957 0.201557
H144  H     H_    0.751601 0.386129 0.542450 0.116959
C240  C     C_3   0.636925 0.460812 0.544613 -0.414565
H145  H     H_    0.605438 0.503450 0.556700 0.252146
H146  H     H_    0.646650 0.496089 0.528879 0.207506
C241  C     C_3   0.579649 0.385393 0.540051 -0.884466
H147  H     H_    0.609384 0.342265 0.527796 0.256759
H148  H     H_    0.518589 0.407497 0.533160 0.258849
H149  H     H_    0.567301 0.350508 0.555705 0.312540
O120  O     O_3   0.233508 0.509756 0.441546 -0.608982
C242  C     C_3   0.286352 0.439823 0.446217 0.155167
H150  H     H_    0.299368 0.406965 0.430275 0.202727
H151  H     H_    0.258043 0.391832 0.457592 0.116899
C243  C     C_3   0.369997 0.471003 0.455935 -0.414750
H152  H     H_    0.400039 0.515689 0.444107 0.252682
H153  H     H_    0.358252 0.504894 0.471782 0.206691
C244  C     C_3   0.430374 0.397999 0.460343 -0.892508
H154  H     H_    0.401580 0.352054 0.472032 0.260237
H155  H     H_    0.489530 0.422298 0.467857 0.254793
H156  H     H_    0.446042 0.365664 0.444515 0.312373
O121  O     O_3   0.541208 0.773415 0.557513 -0.625851
C245  C     C_3   0.629098 0.769224 0.561750 0.169443
H157  H     H_    0.637946 0.732429 0.577281 0.208114
H158  H     H_    0.658610 0.832168 0.564800 0.148804
C246  C     C_3   0.675001 0.723408 0.542869 -0.461863
H159  H     H_    0.646907 0.659825 0.540525 0.240654
H160  H     H_    0.667934 0.759321 0.527153 0.221119
C247  C     C_3   0.768915 0.714371 0.547896 -0.792712
H161  H     H_    0.798443 0.777464 0.549830 0.266411
H162  H     H_    0.800459 0.681131 0.533957 0.259553
H163  H     H_    0.778485 0.677582 0.563389 0.302526
O122  O     O_3   0.541299 0.226718 0.442489 -0.625876
C248  C     C_3   0.629184 0.230936 0.438239 0.169511
H164  H     H_    0.638034 0.267782 0.422715 0.208140
H165  H     H_    0.658625 0.168006 0.435171 0.148890
C249  C     C_3   0.675176 0.276697 0.457123 -0.461821
H166  H     H_    0.647178 0.340285 0.459479 0.240713
H167  H     H_    0.668077 0.240754 0.472834 0.221112
C250  C     C_3   0.769098 0.285711 0.452089 -0.792573
H168  H     H_    0.798529 0.222612 0.450141 0.266440
H169  H     H_    0.800711 0.318904 0.466030 0.259508
H170  H     H_    0.778703 0.322534 0.436601 0.302514
O123  O     O_3   0.233485 0.490158 0.558456 -0.609005
C251  C     C_3   0.286398 0.560108 0.553794 0.155251
H171  H     H_    0.299457 0.592928 0.569741 0.202751
H172  H     H_    0.258130 0.608123 0.542429 0.116911
C252  C     C_3   0.370004 0.528961 0.544068 -0.414802
H173  H     H_    0.400009 0.484249 0.555886 0.252661
H174  H     H_    0.358216 0.495109 0.528214 0.206697
C253  C     C_3   0.430451 0.601983 0.539670 -0.892529
H175  H     H_    0.401686 0.647971 0.527996 0.260312
H176  H     H_    0.489566 0.577712 0.532141 0.254731
H177  H     H_    0.446185 0.634258 0.555503 0.312377
O124  O     O_3   0.772543 0.495283 0.441514 -0.608145
C254  C     C_3   0.722277 0.567254 0.446013 0.153349
H178  H     H_    0.711496 0.600731 0.430048 0.201526
H179  H     H_    0.751736 0.613978 0.457560 0.116949
C255  C     C_3   0.636965 0.539319 0.455380 -0.414488
H180  H     H_    0.605438 0.496704 0.443286 0.252181
H181  H     H_    0.646629 0.504015 0.471110 0.207472
C256  C     C_3   0.579779 0.614738 0.459946 -0.884430
H182  H     H_    0.609548 0.657833 0.472211 0.256725
H183  H     H_    0.518677 0.592629 0.466826 0.258889
H184  H     H_    0.567502 0.649665 0.444296 0.312462
O125  O     O_3   0.999788 0.730394 0.058380 -0.604305
C257  C     C_3   0.929603 0.781732 0.052847 0.148569
H185  H     H_    0.893423 0.793662 0.068343 0.200475
H186  H     H_    0.884414 0.752573 0.040844 0.117593
C258  C     C_3   0.960842 0.866278 0.043706 -0.401488
H187  H     H_    0.001067 0.897742 0.056369 0.252795
H188  H     H_    0.999723 0.855570 0.028615 0.207399
C259  C     C_3   0.887444 0.924327 0.037759 -0.895789
H189  H     H_    0.847458 0.895056 0.024702 0.259114
H190  H     H_    0.912181 0.985108 0.031330 0.257908
H191  H     H_    0.848382 0.937138 0.052695 0.309845
O126  O     O_3   0.941569 0.276236 0.942108 -0.623373
C260  C     C_3   0.853487 0.274708 0.938024 0.176879
H192  H     H_    0.843455 0.241236 0.922021 0.212033
H193  H     H_    0.825109 0.338705 0.935933 0.143378
C261  C     C_3   0.807296 0.226036 0.956362 -0.460159
H194  H     H_    0.836162 0.162621 0.958309 0.246505
H195  H     H_    0.813083 0.260327 0.972370 0.215162
C262  C     C_3   0.713766 0.215993 0.950949 -0.795243
H196  H     H_    0.683690 0.278739 0.948907 0.267388
H197  H     H_    0.681732 0.182377 0.964750 0.257077
H198  H     H_    0.705506 0.178994 0.935427 0.300198
O127  O     O_3   0.276268 0.941710 0.057850 -0.623319
C263  C     C_3   0.274714 0.853675 0.061902 0.176883
H199  H     H_    0.241225 0.843594 0.077901 0.211998
H200  H     H_    0.338750 0.825288 0.063984 0.143331
C264  C     C_3   0.225979 0.807613 0.043546 -0.460186
H201  H     H_    0.162524 0.836484 0.041610 0.246237
H202  H     H_    0.260281 0.813456 0.027540 0.215222
C265  C     C_3   0.215907 0.714131 0.048923 -0.795862
H203  H     H_    0.278695 0.684045 0.050946 0.267376
H204  H     H_    0.182218 0.682200 0.035112 0.257139
H205  H     H_    0.178921 0.705817 0.064446 0.300226
O128  O     O_3   0.730864 0.999967 0.941651 -0.604341
C266  C     C_3   0.782236 0.929843 0.947194 0.148594
H206  H     H_    0.794202 0.893673 0.931699 0.200493
H207  H     H_    0.753041 0.884697 0.959191 0.117622
C267  C     C_3   0.866828 0.961076 0.956349 -0.401419
H208  H     H_    0.898339 0.001241 0.943688 0.252757
H209  H     H_    0.856086 0.999965 0.971434 0.207410
C268  C     C_3   0.924904 0.887744 0.962314 -0.896357
H210  H     H_    0.895573 0.847801 0.975363 0.259242
H211  H     H_    0.985707 0.912474 0.968760 0.257720
H212  H     H_    0.937775 0.848695 0.947382 0.309926
O129  O     O_3   0.000098 0.269173 0.058325 -0.604358
C269  C     C_3   0.070220 0.217794 0.052755 0.148562
H213  H     H_    0.106469 0.205817 0.068237 0.200505
H214  H     H_    0.115372 0.246938 0.040745 0.117590
C270  C     C_3   0.038876 0.133282 0.043606 -0.401288
H215  H     H_    0.998700 0.101829 0.056278 0.252752
H216  H     H_    0.999918 0.144038 0.028532 0.207384
C271  C     C_3   0.112200 0.075191 0.037616 -0.896554
H217  H     H_    0.152127 0.104447 0.024549 0.259172
H218  H     H_    0.087382 0.014431 0.031186 0.257832
H219  H     H_    0.151341 0.062338 0.052534 0.309895
O130  O     O_3   0.058128 0.723528 0.942160 -0.623312
C272  C     C_3   0.146231 0.725201 0.938111 0.176810
H220  H     H_    0.156289 0.758584 0.922100 0.211997
H221  H     H_    0.174754 0.661249 0.936053 0.143221
C273  C     C_3   0.192213 0.774093 0.956452 -0.460132
H222  H     H_    0.163191 0.837454 0.958369 0.246261
H223  H     H_    0.186423 0.739889 0.972467 0.215180
C274  C     C_3   0.285748 0.784319 0.951070 -0.795904
H224  H     H_    0.315977 0.721631 0.949053 0.267392
H225  H     H_    0.317631 0.818081 0.964876 0.257134
H226  H     H_    0.294005 0.821254 0.935542 0.300210
O131  O     O_3   0.723847 0.058354 0.057878 -0.623365
C275  C     C_3   0.725337 0.146363 0.061983 0.176888
H227  H     H_    0.758900 0.156370 0.077975 0.211993
H228  H     H_    0.661283 0.174669 0.064105 0.143487
C276  C     C_3   0.773928 0.192600 0.043637 -0.460312
H229  H     H_    0.837398 0.163802 0.041658 0.246403
H230  H     H_    0.739542 0.186838 0.027641 0.215204
C277  C     C_3   0.783944 0.286054 0.049070 -0.795131
H231  H     H_    0.721141 0.316066 0.051139 0.267402
H232  H     H_    0.817519 0.318119 0.035266 0.257082
H233  H     H_    0.821018 0.294290 0.064583 0.300219
O132  O     O_3   0.269305 0.000396 0.941646 -0.604254
C278  C     C_3   0.217938 0.070509 0.947212 0.148591
H234  H     H_    0.205953 0.106707 0.931728 0.200451
H235  H     H_    0.247150 0.115635 0.959218 0.117603
C279  C     C_3   0.133356 0.039260 0.956366 -0.401189
H236  H     H_    0.101807 0.999162 0.943691 0.252687
H237  H     H_    0.144115 0.000300 0.971431 0.207455
C280  C     C_3   0.075315 0.112584 0.962372 -0.896676
H238  H     H_    0.104672 0.152441 0.975441 0.259156
H239  H     H_    0.014505 0.087844 0.968808 0.257866
H240  H     H_    0.062452 0.151723 0.947462 0.309953

loop_
_geom_bond_atom_site_label_1
_geom_bond_atom_site_label_2
_geom_bond_distance
_ccdc_geom_bond_type
C84   C144  1.418440 A    
C193  H36   1.110460 S    
C230  H122  1.115523 S    
N4    C92   1.440753 S    
O128  C266  1.418820 S    
C241  H149  1.110142 S    
C118  C134  1.411891 A    
O81   C221  1.414147 S    
C237  H139  1.110145 S    
C41   C105  1.412113 A    
C100  C167  1.427233 A    
Zn5   O51   1.922226 S    
C49   O61   1.349068 S    
C132  C175  1.399077 A    
O73   C197  1.414011 S    
C80   C140  1.418104 A    
C122  O118  1.384659 S    
C244  H154  1.111037 S    
O82   C224  1.413930 S    
C278  H235  1.117321 S    
C134  O130  1.384941 S    
C145  C150  1.424687 A    
C146  C162  1.417285 A    
C50   C114  1.411375 A    
C1    C144  1.496519 S    
C213  H83   1.111786 S    
C271  H219  1.110360 S    
Zn3   O38   1.921780 S    
C231  H125  1.111673 S    
C224  C225  1.528954 S    
C193  H37   1.111023 S    
C42   C106  1.412107 A    
Zn5   O20   1.896802 S    
C232  H128  1.111027 S    
C151  C163  1.417276 A    
Zn6   O19   1.896803 S    
C62   C78   1.410773 A    
C238  H142  1.110678 S    
C21   C26   1.414352 S    
C203  H59   1.115620 S    
C208  H72   1.110922 S    
Zn13  O35   1.922226 S    
O34   C22   1.260762 A    
Zn14  O36   1.922226 S    
C216  H90   1.111785 S    
O118  C236  1.418032 S    
N19   O106  1.301163 A    
C47   C111  1.412278 A    
Zn3   O3    1.945431 S    
O72   C194  1.414119 S    
C45   C109  1.412239 A    
C23   C32   1.415091 S    
C189  C190  1.526711 S    
C264  H202  1.110062 S    
C20   C27   1.414989 S    
C62   N10   1.439854 S    
C103  C164  1.425343 A    
C274  H226  1.110873 S    
C73   C137  1.418355 A    
C46   O58   1.348804 S    
C181  H13   1.078784 S    
C178  H10   1.078631 S    
C102  C114  1.415466 A    
C82   C142  1.418508 A    
O126  C260  1.417922 S    
C48   C112  1.411660 A    
N6    C94   1.441683 S    
C135  C172  1.392478 A    
C242  C243  1.530964 S    
C5    C140  1.494729 S    
N20   O108  1.301095 A    
C126  C177  1.394524 A    
C148  C164  1.417731 A    
C123  C184  1.395821 A    
C12   C35   1.414260 S    
C173  H5    1.076272 S    
C52   C116  1.412792 A    
C275  C276  1.533071 S    
C276  C277  1.526230 S    
C58   C90   1.410573 A    
C270  C271  1.526800 S    
C157  C165  1.416786 A    
Zn2   O43   1.921261 S    
C271  H217  1.111038 S    
C54   N6    1.366394 A    
O22   C10   1.260822 A    
C257  C258  1.531777 S    
C154  C178  1.410033 A    
N9    O85   1.301349 A    
C259  H191  1.110373 S    
C191  H31   1.115596 S    
C243  C244  1.526093 S    
C248  C249  1.532728 S    
C249  C250  1.525988 S    
Zn8   O41   1.921896 S    
C76   C140  1.418365 A    
C57   N13   1.439870 S    
O40   C18   1.261044 A    
O131  C275  1.417927 S    
C235  H135  1.110676 S    
C67   N23   1.439749 S    
C201  H54   1.111758 S    
C245  H157  1.111076 S    
C100  C112  1.416872 A    
N15   O98   1.301036 A    
C99   C168  1.427233 A    
C215  H87   1.115579 S    
C257  H186  1.117324 S    
O17   C5    1.276999 A    
C223  H105  1.111020 S    
N2    C90   1.442962 S    
C52   N8    1.366424 A    
N9    O86   1.301122 A    
Zn7   O3    1.944937 S    
N17   O102  1.301101 A    
C147  C163  1.417264 A    
C268  H210  1.111038 S    
C149  C173  1.412018 A    
C69   N17   1.440007 S    
N16   O99   1.301375 A    
C69   C85   1.411235 A    
C266  H206  1.111166 S    
C106  C122  1.413883 A    
C242  H150  1.111210 S    
O11   C3    1.276174 A    
C187  H21   1.111000 S    
C160  C168  1.418067 A    
C22   C25   1.414212 S    
C194  H39   1.113796 S    
C212  H80   1.115587 S    
C196  H44   1.111002 S    
C97   C105  1.414655 A    
C214  H85   1.110430 S    
Zn13  O4    1.944257 S    
Zn14  O3    1.944253 S    
Zn15  O26   1.921895 S    
C151  C175  1.409820 A    
C251  H171  1.111213 S    
C72   C96   1.410073 A    
C255  C256  1.526328 S    
C85   C141  1.418384 A    
C102  C161  1.425342 A    
C233  H129  1.111081 S    
O44   C22   1.260849 A    
N8    C96   1.442375 S    
C72   N20   1.440019 S    
C260  H192  1.111112 S    
C280  H238  1.111035 S    
C247  H163  1.110609 S    
C97   C109  1.414645 A    
C249  H166  1.111306 S    
C267  H208  1.111781 S    
C272  H220  1.111114 S    
C227  H115  1.115585 S    
O38   C20   1.260870 A    
O117  C233  1.418024 S    
C59   C75   1.410449 A    
O74   C200  1.414018 S    
C262  H198  1.110880 S    
N1    C89   1.442975 S    
C2    C143  1.494888 S    
Zn15  O33   1.920928 S    
C279  H237  1.110724 S    
C226  H113  1.110445 S    
C269  H213  1.111166 S    
C104  C120  1.417424 A    
C254  C255  1.530535 S    
C237  H138  1.111044 S    
C88   C144  1.418430 A    
O124  C254  1.418636 S    
C152  C164  1.417720 A    
O5    C1    1.277161 A    
O75   C203  1.414121 S    
C250  H169  1.109923 S    
C256  H182  1.111029 S    
C44   C108  1.412272 A    
C30   C35   1.193560 T    
O31   C19   1.261094 A    
C210  H76   1.111670 S    
C153  C158  1.422393 A    
Zn15  O2    1.944937 S    
C192  H34   1.111621 S    
Zn11  O2    1.945431 S    
C115  C131  1.411910 A    
Zn16  O5    1.897014 S    
O27   C15   1.260937 A    
C153  C177  1.410039 A    
C276  H229  1.111588 S    
C233  C234  1.532904 S    
C68   N24   1.440009 S    
C258  H187  1.111783 S    
C130  O126  1.384945 S    
C246  H159  1.111300 S    
C247  H161  1.110762 S    
C103  C119  1.415458 A    
C230  H123  1.113792 S    
C104  C163  1.425360 A    
C191  C192  1.528711 S    
C107  C123  1.409168 A    
Zn8   O13   1.897014 S    
C191  H32   1.113778 S    
C9    C38   1.415133 S    
C65   C93   1.410081 A    
O120  C242  1.418693 S    
O14   C6    1.276355 A    
C123  O119  1.387593 S    
C216  C217  1.526735 S    
O24   C12   1.261076 A    
O127  C263  1.417925 S    
C58   C74   1.411555 A    
C201  C202  1.526724 S    
C55   O67   1.348874 S    
C16   C39   1.414213 S    
C263  H199  1.111112 S    
O43   C21   1.260898 A    
C63   C91   1.409605 A    
C53   O65   1.349063 S    
C18   C29   1.414255 S    
C207  H68   1.111867 S    
C48   N4    1.365556 A    
C223  H107  1.111155 S    
C254  H178  1.111229 S    
C211  H77   1.111007 S    
C188  H25   1.113731 S    
C268  H212  1.110362 S    
C218  H95   1.113779 S    
C229  H119  1.110993 S    
C50   O62   1.348869 S    
C187  H23   1.111009 S    
C43   N3    1.365553 A    
C228  C229  1.526731 S    
C127  O123  1.388070 S    
C280  H240  1.110358 S    
C100  C108  1.417174 A    
C266  H207  1.117323 S    
C277  H232  1.110032 S    
C186  H20   1.111683 S    
C147  C171  1.409801 A    
C148  C172  1.412013 A    
C251  C252  1.530954 S    
C259  H190  1.110367 S    
N14   O95   1.301356 A    
C189  H27   1.111671 S    
N13   O93   1.301350 A    
C219  H97   1.111670 S    
C243  H153  1.110548 S    
C212  C213  1.528950 S    
C79   C139  1.418341 A    
C26   C39   1.193533 T    
N21   O110  1.301097 A    
C101  C113  1.417428 A    
O84   C230  1.414145 S    
C145  C169  1.412017 A    
C227  C228  1.528954 S    
C57   C73   1.411524 A    
N10   O87   1.301352 A    
Zn12  O30   1.920816 S    
C272  C273  1.533066 S    
C86   C142  1.418519 A    
C98   C110  1.414644 A    
O125  C257  1.418822 S    
C64   C80   1.410452 A    
N5    C93   1.442351 S    
C207  C208  1.526803 S    
C275  H228  1.117750 S    
C104  C116  1.417417 A    
O69   C185  1.414081 S    
C27   C38   1.193987 T    
C102  C118  1.415476 A    
C219  C220  1.526835 S    
C160  C184  1.410873 A    
C240  H145  1.111732 S    
C48   O60   1.349188 S    
C237  C238  1.526271 S    
C79   O71   1.384548 S    
C206  C207  1.528724 S    
C229  H121  1.111006 S    
N18   O104  1.301158 A    
C236  H136  1.111084 S    
C131  C176  1.392459 A    
C240  C241  1.526311 S    
O37   C19   1.260892 A    
C86   O78   1.384517 S    
C256  H184  1.110154 S    
C182  H14   1.078783 S    
C134  C169  1.392446 A    
C217  H91   1.111004 S    
C208  H70   1.110986 S    
C42   O54   1.348819 S    
C133  O129  1.389346 S    
C202  H57   1.110368 S    
C235  H134  1.110120 S    
O51   C13   1.260934 A    
C200  C201  1.528800 S    
C135  O131  1.384949 S    
C190  H29   1.110432 S    
C83   O83   1.384523 S    
C204  C205  1.526755 S    
C149  C161  1.417737 A    
C265  H204  1.110028 S    
N23   O113  1.301354 A    
C274  H224  1.110746 S    
C258  C259  1.526803 S    
O8    C4    1.276627 A    
C246  C247  1.525981 S    
Zn4   O17   1.896768 S    
O48   C10   1.261081 A    
C155  C160  1.426114 A    
C273  H223  1.110056 S    
C66   C82   1.409997 A    
O16   C8    1.277289 A    
C59   C91   1.409875 A    
C116  C132  1.412003 A    
C197  C198  1.528830 S    
Zn1   O1    1.944252 S    
C263  C264  1.533073 S    
O29   C17   1.260885 A    
C250  H170  1.110605 S    
O52   C14   1.260890 A    
C110  C126  1.413759 A    
C265  H205  1.110874 S    
N24   O115  1.301363 A    
C66   N22   1.439754 S    
C266  C267  1.531765 S    
C78   O70   1.384482 S    
C172  H4    1.076279 S    
C71   C87   1.410034 A    
C231  C232  1.526826 S    
O45   C11   1.260852 A    
C211  H79   1.111027 S    
C78   C138  1.418822 A    
C223  H106  1.110389 S    
C32   C33   1.193959 T    
C108  C124  1.409752 A    
C261  H195  1.110072 S    
C157  C181  1.410227 A    
C150  C174  1.409827 A    
N12   O91   1.301366 A    
C252  C253  1.526084 S    
C208  H71   1.110523 S    
C228  H117  1.111702 S    
C169  H1    1.076243 S    
C199  H49   1.111000 S    
O121  C245  1.417950 S    
C65   C81   1.411271 A    
N15   O97   1.301374 A    
C261  C262  1.526232 S    
C41   N1    1.367110 A    
O42   C24   1.260758 A    
Zn16  O25   1.921896 S    
O6    C2    1.276734 A    
C203  C204  1.528661 S    
C224  H108  1.115583 S    
C24   C31   1.414944 S    
C131  O127  1.384941 S    
N22   O111  1.301348 A    
C154  C157  1.422406 A    
C28   C37   1.193982 T    
C209  H73   1.115522 S    
Zn4   O37   1.921780 S    
C274  H225  1.110024 S    
C70   N18   1.439751 S    
Zn5   O40   1.921424 S    
C215  C216  1.528947 S    
Zn6   O39   1.921422 S    
C190  H28   1.111003 S    
C64   C92   1.409871 A    
C242  H151  1.117813 S    
Zn8   O50   1.920926 S    
C56   N8    1.366423 A    
C146  C149  1.424705 A    
C220  H98   1.111004 S    
C195  H41   1.111607 S    
C97   C166  1.423546 A    
C112  C128  1.409183 A    
C196  H42   1.110993 S    
C145  C161  1.417731 A    
C239  H143  1.111233 S    
C276  H230  1.110072 S    
Zn16  O34   1.920926 S    
C49   C113  1.412741 A    
C270  H216  1.110731 S    
C25   C40   1.193531 T    
C88   O80   1.384524 S    
C185  H17   1.115649 S    
C255  H181  1.110781 S    
C222  C223  1.526839 S    
Zn5   O1    1.944257 S    
C221  H101  1.115568 S    
Zn3   O45   1.920814 S    
C51   N7    1.366402 A    
C125  C178  1.394528 A    
Zn4   O46   1.920816 S    
C114  C130  1.411910 A    
C236  C237  1.532903 S    
C225  H110  1.111721 S    
C49   N5    1.366411 A    
C241  H147  1.111031 S    
Zn12  O21   1.921780 S    
C248  H165  1.117538 S    
C205  H63   1.111008 S    
Zn13  O24   1.921424 S    
C69   C93   1.410071 A    
O35   C23   1.260895 A    
Zn14  O23   1.921422 S    
C156  C168  1.417545 A    
Zn15  O6    1.897014 S    
O79   C215  1.413925 S    
C81   C141  1.418376 A    
Zn16  O1    1.944933 S    
C195  C196  1.526735 S    
C65   N21   1.440013 S    
Zn12  O1    1.945428 S    
C245  H158  1.117542 S    
C204  H61   1.111805 S    
C46   C110  1.412235 A    
Zn13  O12   1.896802 S    
Zn14  O11   1.896803 S    
C153  C165  1.416885 A    
C72   C88   1.411264 A    
C196  H43   1.110476 S    
C193  H35   1.111007 S    
C132  O128  1.389324 S    
O71   C191  1.414215 S    
C74   C138  1.418342 A    
Zn7   O14   1.897014 S    
N17   O101  1.301366 A    
C57   C89   1.410579 A    
C4    C141  1.496429 S    
O12   C4    1.276601 A    
C117  C133  1.412010 A    
C66   C94   1.409918 A    
N14   O96   1.301119 A    
C60   C76   1.410109 A    
C187  H22   1.110423 S    
O76   C206  1.414185 S    
C224  H109  1.113742 S    
C200  H52   1.115654 S    
C278  C279  1.531775 S    
C245  C246  1.532729 S    
O83   C227  1.413935 S    
O7    C3    1.276143 A    
C213  H82   1.111713 S    
C54   O66   1.348869 S    
C185  C186  1.528813 S    
C271  H218  1.110375 S    
C195  H40   1.111865 S    
N13   O94   1.301127 A    
C231  H124  1.111879 S    
C233  H130  1.117334 S    
C56   C120  1.412773 A    
C209  C210  1.528701 S    
N7    C95   1.441713 S    
C222  H103  1.111809 S    
O21   C9    1.260839 A    
C148  C151  1.424708 A    
C51   O63   1.348877 S    
C250  H168  1.110761 S    
O122  C248  1.417958 S    
C52   O64   1.349058 S    
O23   C11   1.261140 A    
O39   C17   1.261101 A    
Zn11  O22   1.921780 S    
C267  H209  1.110731 S    
C252  H173  1.111725 S    
Zn7   O49   1.920928 S    
C212  H81   1.113736 S    
Zn9   O4    1.944252 S    
C128  O124  1.387607 S    
C156  C180  1.410644 A    
C199  H51   1.111014 S    
C175  H7    1.074390 S    
Zn10  O3    1.944248 S    
C99   C107  1.416866 A    
O25   C13   1.260750 A    
Zn6   O52   1.922226 S    
C61   N9    1.439847 S    
C262  H197  1.110029 S    
C75   C139  1.418080 A    
N3    C91   1.440741 S    
C279  C280  1.526797 S    
C269  H214  1.117314 S    
O18   C6    1.276997 A    
C251  H172  1.117816 S    
C254  H179  1.117960 S    
C61   C89   1.410054 A    
Zn9   O31   1.922391 S    
Zn10  O32   1.922391 S    
O80   C218  1.414140 S    
O10   C2    1.276701 A    
C146  C170  1.409834 A    
C267  C268  1.526796 S    
C60   N16   1.440112 S    
C243  H152  1.111729 S    
C3    C142  1.494792 S    
C105  C121  1.413876 A    
C98   C106  1.414656 A    
C64   N12   1.440079 S    
C210  H75   1.111873 S    
O46   C12   1.260836 A    
N20   O107  1.301366 A    
O41   C23   1.260791 A    
C255  H180  1.111732 S    
C56   O68   1.349062 S    
C239  C240  1.530527 S    
C159  C183  1.410646 A    
O78   C212  1.413928 S    
O28   C16   1.260890 A    
C269  C270  1.531774 S    
C77   O69   1.384485 S    
C206  H66   1.115536 S    
C204  H62   1.111589 S    
C205  H65   1.111109 S    
C264  H201  1.111595 S    
C179  H11   1.074003 S    
C249  H167  1.110014 S    
Zn3   O18   1.896768 S    
C225  C226  1.526736 S    
N10   O88   1.301116 A    
C101  C162  1.425348 A    
C244  H156  1.109995 S    
C194  H38   1.115607 S    
C183  H15   1.074256 S    
C253  H177  1.109988 S    
C171  H3    1.074377 S    
C221  H102  1.113724 S    
C124  C183  1.396605 A    
C263  H200  1.117757 S    
C253  H176  1.109938 S    
C71   N19   1.439749 S    
C257  H185  1.111168 S    
Zn1   O44   1.921259 S    
C207  H69   1.111608 S    
C44   O56   1.349088 S    
C29   C36   1.193555 T    
C192  H33   1.111846 S    
C120  C136  1.412003 A    
O123  C251  1.418695 S    
C31   C34   1.193959 T    
C103  C115  1.415469 A    
C211  H78   1.110503 S    
C188  H24   1.115637 S    
C61   C77   1.410763 A    
C8    C137  1.496980 S    
C268  H211  1.110363 S    
C158  C182  1.410219 A    
C229  H120  1.110431 S    
C214  H84   1.110991 S    
C121  O117  1.384645 S    
C228  H118  1.111785 S    
O32   C20   1.261032 A    
C214  H86   1.111007 S    
C278  H234  1.111165 S    
N23   O114  1.301150 A    
C75   O75   1.384494 S    
C7    C138  1.496985 S    
C85   O77   1.384520 S    
C186  H19   1.111780 S    
C262  H196  1.110747 S    
O26   C14   1.260716 A    
C213  C214  1.526733 S    
C203  H60   1.113755 S    
N16   O100  1.301061 A    
C47   O59   1.349086 S    
C198  H47   1.111802 S    
C260  H193  1.117757 S    
O19   C7    1.277281 A    
N21   O109  1.301371 A    
Zn8   O4    1.944933 S    
C45   O57   1.348804 S    
C176  H8    1.076267 S    
C10   C37   1.414983 S    
C46   N2    1.367098 A    
C197  H46   1.113739 S    
C177  H9    1.078637 S    
C194  C195  1.528698 S    
C215  H88   1.113720 S    
C124  O120  1.388086 S    
C272  H221  1.117764 S    
C201  H55   1.111671 S    
O49   C15   1.260750 A    
O13   C5    1.276353 A    
O132  C278  1.418828 S    
C67   C95   1.409891 A    
N19   O105  1.301351 A    
C170  H2    1.074383 S    
C122  C181  1.394497 A    
C82   O82   1.384517 S    
C155  C179  1.410879 A    
C71   C95   1.409913 A    
C127  C180  1.396595 A    
C42   N2    1.367112 A    
C128  C179  1.395830 A    
C279  H236  1.111779 S    
N18   O103  1.301344 A    
C226  H114  1.110987 S    
C129  C174  1.399022 A    
O20   C8    1.276219 A    
C232  H127  1.110508 S    
C198  H48   1.111684 S    
O15   C7    1.276227 A    
C202  H56   1.110995 S    
C247  H162  1.109921 S    
C280  H239  1.110363 S    
C55   C119  1.411378 A    
C238  H140  1.110755 S    
C273  C274  1.526221 S    
C147  C152  1.424680 A    
C17   C30   1.414396 S    
C53   C117  1.412782 A    
C235  H133  1.110756 S    
C60   C92   1.409587 A    
C234  H131  1.111039 S    
Zn7   O42   1.921895 S    
C217  H92   1.110401 S    
C220  H100  1.111046 S    
C156  C159  1.425615 A    
C210  C211  1.526832 S    
C43   C107  1.411659 A    
C238  H141  1.110118 S    
C192  C193  1.526783 S    
C200  H53   1.113710 S    
C119  C135  1.411931 A    
C68   C84   1.411269 A    
C98   C165  1.423541 A    
C133  C170  1.399073 A    
C77   C137  1.418834 A    
Zn1   O47   1.922391 S    
C258  H188  1.110734 S    
Zn2   O48   1.922391 S    
C244  H155  1.109939 S    
C13   C34   1.415092 S    
C222  H104  1.111661 S    
Zn6   O2    1.944253 S    
C230  C231  1.528704 S    
C47   N3    1.365764 A    
C70   C86   1.409980 A    
C261  H194  1.111604 S    
C246  H160  1.110014 S    
C74   O74   1.384417 S    
C50   N6    1.366398 A    
C58   N14   1.439875 S    
O130  C272  1.417920 S    
C217  H93   1.111028 S    
C87   C143  1.418535 A    
N11   O89   1.301367 A    
C70   C94   1.409901 A    
C130  C173  1.392465 A    
C253  H175  1.111030 S    
C129  O125  1.389335 S    
Zn11  O10   1.896768 S    
C206  H67   1.113812 S    
Zn1   O16   1.896805 S    
C76   O76   1.384543 S    
Zn2   O15   1.896805 S    
C152  C176  1.412009 A    
C81   O81   1.384543 S    
N24   O116  1.301102 A    
C159  C167  1.417547 A    
C80   O72   1.384466 S    
C154  C166  1.416882 A    
C63   C79   1.410137 A    
C101  C117  1.417437 A    
C218  H94   1.115521 S    
C216  H89   1.111686 S    
C188  C189  1.528806 S    
C19   C28   1.415134 S    
C240  H146  1.110777 S    
C232  H126  1.111007 S    
C218  C219  1.528695 S    
C121  C182  1.394503 A    
N12   O92   1.301051 A    
C252  H174  1.110552 S    
C73   O73   1.384401 S    
C15   C40   1.414352 S    
C54   C118  1.411370 A    
C41   O53   1.348819 S    
O70   C188  1.414091 S    
C55   N7    1.366410 A    
C99   C111  1.417168 A    
C43   O55   1.349184 S    
C277  H231  1.110747 S    
C150  C162  1.417291 A    
C186  C187  1.526706 S    
C53   N5    1.366418 A    
C11   C36   1.414397 S    
C256  H183  1.110078 S    
C68   C96   1.410062 A    
O119  C239  1.418631 S    
C189  H26   1.111789 S    
N22   O112  1.301153 A    
C219  H96   1.111862 S    
O47   C9    1.261140 A    
C264  C265  1.526219 S    
Zn9   O28   1.921259 S    
C209  H74   1.113790 S    
Zn10  O27   1.921261 S    
C59   N15   1.440094 S    
O33   C21   1.260787 A    
Zn2   O2    1.944248 S    
C227  H116  1.113736 S    
C51   C115  1.411368 A    
C155  C167  1.418069 A    
C136  C171  1.399062 A    
Zn9   O8    1.896805 S    
C63   N11   1.440098 S    
C260  C261  1.533066 S    
Zn4   O4    1.945428 S    
C87   O79   1.384530 S    
Zn10  O7    1.896805 S    
C180  H12   1.074256 S    
O129  C269  1.418828 S    
C83   C143  1.418555 A    
N11   O90   1.301067 A    
C125  O121  1.384383 S    
C111  C127  1.409739 A    
Zn12  O9    1.896768 S    
C6    C139  1.494716 S    
C275  H227  1.111108 S    
C44   N4    1.365762 A    
C239  H144  1.117964 S    
C109  C125  1.413751 A    
C226  H112  1.110993 S    
C234  H132  1.110145 S    
C270  H215  1.111780 S    
C185  H18   1.113722 S    
C174  H6    1.074374 S    
O77   C209  1.414143 S    
C126  O122  1.384397 S    
C62   C90   1.410053 A    
C113  C129  1.411987 A    
C259  H189  1.111036 S    
C236  H137  1.117332 S    
C14   C33   1.414942 S    
C225  H111  1.111783 S    
C241  H148  1.110073 S    
C45   N1    1.367098 A    
C248  H164  1.111080 S    
C234  C235  1.526269 S    
C205  H64   1.110378 S    
Zn11  O29   1.920814 S    
O50   C16   1.260720 A    
C184  H16   1.073998 S    
C84   O84   1.384517 S    
C202  H58   1.111091 S    
O9    C1    1.277178 A    
C273  H222  1.111608 S    
C277  H233  1.110878 S    
C220  H99   1.110491 S    
C197  H45   1.115654 S    
C199  H50   1.110424 S    
C190  H30   1.111013 S    
C67   C83   1.409973 A    
C198  C199  1.526711 S    
C265  H203  1.110747 S    
C136  O132  1.389342 S    
C158  C166  1.416782 A    
O36   C24   1.260846 A    
O30   C18   1.260871 A    
C221  C222  1.528648 S    
