data_mof_unit_31053.cif
_audit_creation_date              2012-12-10T17:31:04-0500
_audit_creation_method            fapswitch 2.2
_symmetry_space_group_name_H-M    P1
_symmetry_Int_Tables_number       1
_space_group_crystal_system       triclinic
_cell_length_a                    12.02049
_cell_length_b                    12.838117
_cell_length_c                    15.480105
_cell_angle_alpha                 86.360538
_cell_angle_beta                  116.869502
_cell_angle_gamma                 93.927319
_cell_volume                      2124.56310595

loop_
_atom_site_label
_atom_site_type_symbol
_atom_type_description
_atom_site_fract_x
_atom_site_fract_y
_atom_site_fract_z
_atom_type_partial_charge
Br1   Br    Br    0.833279 0.331448 0.672751 -0.371142
Br2   Br    Br    0.824354 0.043360 0.575728 -0.322463
Br3   Br    Br    0.166988 0.671283 0.329362 -0.374180
Br4   Br    Br    0.870360 0.656609 0.282008 -0.506690
Br5   Br    Br    0.122507 0.324234 0.705449 -0.466624
Br6   Br    Br    0.927599 0.365847 0.026080 -0.478650
Br7   Br    Br    0.059244 0.630120 0.984709 -0.414009
Br8   Br    Br    0.369063 0.807026 0.599212 -0.431696
Br9   Br    Br    0.637561 0.194966 0.402753 -0.423169
Br10  Br    Br    0.172812 0.959356 0.437345 -0.400171
C1    C     C_R   0.472545 0.300173 0.489685 0.964677
C2    C     C_R   0.659933 0.974742 0.520351 0.259445
C3    C     C_R   0.339237 0.136637 0.464383 0.367816
C4    C     C_R   0.652340 0.866073 0.518968 0.354702
C5    C     C_R   0.544438 0.133756 0.470115 0.276187
C6    C     C_R   0.453315 0.868201 0.525280 0.292082
C7    C     C_R   0.550564 0.028065 0.495821 -0.145535
C8    C     C_R   0.445122 0.974214 0.499096 -0.143654
C9    C     C_R   0.991276 0.583326 0.395178 0.163422
C10   C     C_R   0.006159 0.410391 0.600692 0.155538
C11   C     C_R   0.116306 0.581558 0.410306 0.394489
C12   C     C_R   0.526299 0.700569 0.507756 0.965576
C13   C     C_R   0.882840 0.416789 0.588636 0.384932
C14   C     C_R   0.165908 0.463216 0.544906 -0.043282
C15   C     C_R   0.832987 0.533707 0.453097 -0.046799
C16   C     C_R   0.577810 0.496160 0.681233 0.908107
C17   C     C_R   0.421751 0.503026 0.318992 0.884383
C18   C     C_R   0.043350 0.467218 0.536536 -0.090530
C19   C     C_R   0.954953 0.528339 0.460656 -0.089126
C20   C     C_R   0.624899 0.488986 0.786720 -0.159118
C21   C     C_R   0.369624 0.504561 0.213528 -0.167824
C22   C     C_R   0.764342 0.416571 0.944538 0.353477
C23   C     C_R   0.568542 0.373294 0.077986 0.394047
C24   C     C_R   0.217703 0.566841 0.055563 0.377053
C25   C     C_R   0.740199 0.448774 0.849713 -0.176666
C26   C     C_R   0.252845 0.544100 0.153609 -0.185466
C27   C     C_R   0.543696 0.513397 0.823140 -0.130751
C28   C     C_R   0.442453 0.471645 0.172927 -0.147781
C29   C     C_R   0.566776 0.486188 0.918022 0.014677
C30   C     C_R   0.406975 0.487380 0.074131 -0.006929
C31   C     C_R   0.670047 0.423909 0.975299 -0.120918
C32   C     C_R   0.300777 0.546915 0.016665 -0.102330
C33   C     C_R   0.480628 0.510019 0.952091 -0.140007
C34   C     C_R   0.391613 0.588352 0.906927 0.347866
C35   C     C_R   0.484827 0.455846 0.035108 -0.158807
C36   C     C_3   0.720448 0.195074 0.059224 0.125805
C37   C     C_3   0.818393 0.115951 0.117074 -0.720872
C38   C     C_3   0.118221 0.612072 0.783604 0.117713
C39   C     C_3   0.008526 0.680540 0.724567 -0.642850
C40   C     C_3   0.440766 0.237617 0.088192 0.094029
C41   C     C_3   0.439116 0.138407 0.146794 -0.738186
C42   C     C_3   0.493348 0.744891 0.913361 0.130856
C43   C     C_3   0.517775 0.834522 0.854361 -0.693712
C44   C     C_3   0.776292 0.825043 0.449829 0.096030
C45   C     C_R   0.667192 0.363662 0.054160 0.423397
C46   C     C_3   0.915050 0.818390 0.480349 -0.637777
C47   C     C_3   0.171718 0.218194 0.347374 0.106685
C48   C     C_3   0.054073 0.273567 0.327179 -0.636041
C49   C     C_R   0.289996 0.592226 0.927971 0.388534
C50   C     C_R   0.545589 0.812760 0.518170 -0.300308
C51   C     C_R   0.450441 0.189225 0.473563 -0.342168
C52   C     C_R   0.335127 0.028052 0.474193 0.293053
H1    H     H_    0.532526 0.441033 0.220523 0.230821
H2    H     H_    0.790874 0.039784 0.081150 0.210620
H3    H     H_    0.910398 0.143607 0.121649 0.268942
H4    H     H_    0.080201 0.533867 0.795826 0.166676
H5    H     H_    0.169949 0.603483 0.740392 0.172098
H6    H     H_    0.042719 0.758365 0.708535 0.273831
H7    H     H_    0.946047 0.643148 0.655351 0.190877
H8    H     H_    0.954166 0.690714 0.765158 0.281930
H9    H     H_    0.431552 0.214522 0.016914 0.124387
H10   H     H_    0.357750 0.281556 0.074984 0.177645
H11   H     H_    0.430165 0.158105 0.212043 0.265267
H12   H     H_    0.454848 0.543980 0.773327 0.221995
H13   H     H_    0.357904 0.086454 0.102351 0.215076
H14   H     H_    0.526189 0.096337 0.169041 0.264817
H15   H     H_    0.584735 0.710955 0.962430 0.162607
H16   H     H_    0.453207 0.777274 0.957801 0.157467
H17   H     H_    0.428808 0.871135 0.805017 0.286789
H18   H     H_    0.582290 0.894454 0.903650 0.191867
H19   H     H_    0.561402 0.805237 0.811383 0.271662
H20   H     H_    0.746619 0.901187 0.409202 0.157047
H21   H     H_    0.723952 0.761792 0.399308 0.158292
H22   H     H_    0.932875 0.831359 0.416104 0.264869
H23   H     H_    0.192039 0.563687 0.183833 0.228612
H24   H     H_    0.969171 0.879109 0.533277 0.291747
H25   H     H_    0.947373 0.740522 0.514164 0.228576
H26   H     H_    0.143794 0.147747 0.302453 0.158375
H27   H     H_    0.231066 0.272161 0.324674 0.133242
H28   H     H_    0.078585 0.344742 0.370227 0.240978
H29   H     H_    0.004728 0.296851 0.249159 0.254626
H30   H     H_    0.990943 0.220805 0.346516 0.275143
H31   H     H_    0.808415 0.436983 0.824221 0.217517
H32   H     H_    0.764357 0.581185 0.396817 0.183776
H33   H     H_    0.234445 0.414910 0.600480 0.204605
H34   H     H_    0.712694 0.203524 0.984699 0.149956
H35   H     H_    0.630028 0.163140 0.054821 0.143591
H36   H     H_    0.826738 0.104816 0.191485 0.263303
N1    N     N_R   0.799120 0.480200 0.517090 -0.143779
N2    N     N_R   0.200880 0.519800 0.482910 -0.152193
O1    O     O_R   0.580150 0.341050 0.504560 -0.539495
O2    O     O_3   0.195767 0.658899 0.872736 -0.552654
O3    O     O_3   0.552723 0.297748 0.140285 -0.578011
O4    O     O_3   0.409598 0.669377 0.850464 -0.597194
O5    O     O_3   0.755616 0.812232 0.533081 -0.578183
O6    O     O_3   0.234734 0.190364 0.447302 -0.544303
O7    O     O_R   0.419850 0.658950 0.495440 -0.546547
O8    O     O_R   0.388090 0.353760 0.493600 -0.588609
O9    O     O_R   0.611910 0.646240 0.506400 -0.594814
O10   O     O_R   0.650890 0.490020 0.640860 -0.591440
O11   O     O_R   0.349110 0.509980 0.359140 -0.601030
O12   O     O_R   0.458830 0.502730 0.629890 -0.621511
O13   O     O_R   0.541170 0.497270 0.370110 -0.618764
O14   O     O_3   0.756142 0.291344 0.106241 -0.556945
Zn1   Zn    Zn3+2 0.628240 0.491510 0.507320 1.018508
Zn2   Zn    Zn3+2 0.371760 0.508490 0.492680 1.018990

loop_
_geom_bond_atom_site_label_1
_geom_bond_atom_site_label_2
_ccdc_geom_bond_type
C23   C45   A    
Br6   C22   S    
C27   H12   S    
C39   H6    S    
C23   C35   A    
C13   N1    A    
N2    Zn2   S    
C44   H20   S    
C33   C34   A    
Br2   C2    S    
C34   O4    S    
C29   C31   A    
Br5   C10   S    
C37   H36   S    
C47   H27   S    
C20   C25   A    
C18   C19   A    
C9    C11   A    
C41   H13   S    
C12   C50   S    
C14   N2    A    
C34   C49   A    
C12   O7    A    
C43   H19   S    
C6    C50   A    
C40   H10   S    
C31   C45   A    
Br4   C9    S    
C15   N1    A    
C4    O5    S    
C3    C52   A    
C24   C32   A    
C2    C7    A    
C22   C31   A    
O11   Zn2   S    
C48   H29   S    
C16   O10   A    
C30   C32   A    
C47   O6    S    
C17   O11   A    
C15   H32   S    
Br8   C6    S    
C39   H7    S    
Br10  C52   S    
C42   H16   S    
C44   H21   S    
C46   H22   S    
C25   H31   S    
C15   C19   A    
C30   C35   A    
C44   C46   S    
C36   O14   S    
C17   C21   S    
C22   C25   A    
C14   C18   A    
C43   H18   S    
C41   H14   S    
C14   H33   S    
C37   H2    S    
C11   N2    A    
C8    C52   A    
C46   H25   S    
C29   C33   A    
C10   C18   A    
C40   C41   S    
C20   C27   A    
C40   H9    S    
C48   H28   S    
C46   H24   S    
C10   C13   A    
C12   O9    A    
C38   O2    S    
C7    C8    A    
C5    C51   A    
C3    C51   A    
C1    O1    A    
C33   C35   A    
C17   O13   A    
C38   C39   S    
C36   H35   S    
C2    C4    A    
Br1   C13   S    
C39   H8    S    
O1    Zn1   S    
Br7   C24   S    
Br3   C11   S    
C42   H15   S    
C9    C19   A    
C16   O12   A    
O12   Zn2   S    
C42   C43   S    
C28   H1    S    
C5    C7    A    
C36   C37   S    
C42   O4    S    
C44   O5    S    
C43   H17   S    
C23   O3    S    
C49   O2    S    
C41   H11   S    
C3    O6    S    
C1    C51   S    
C32   C49   A    
C21   C28   A    
C16   C20   S    
C45   O14   S    
C26   H23   S    
C4    C50   A    
C47   H26   S    
O8    Zn2   S    
Br9   C5    S    
C27   C29   A    
C28   C30   A    
C47   C48   S    
N1    Zn1   S    
C24   C26   A    
C38   H5    S    
O7    Zn2   S    
O9    Zn1   S    
C40   O3    S    
C36   H34   S    
C6    C8    A    
C1    O8    A    
C21   C26   A    
C38   H4    S    
C48   H30   S    
O10   Zn1   S    
C37   H3    S    
O13   Zn1   S    
