data_mof_unit_55266.cif
_audit_creation_date              2012-12-11T17:07:34-0500
_audit_creation_method            fapswitch 2.2
_symmetry_space_group_name_H-M    P1
_symmetry_Int_Tables_number       1
_space_group_crystal_system       triclinic
_cell_length_a                    6.974684
_cell_length_b                    14.69099
_cell_length_c                    16.02155
_cell_angle_alpha                 90.149474
_cell_angle_beta                  90.234938
_cell_angle_gamma                 89.850094
_cell_volume                      1641.62336697

loop_
_atom_site_label
_atom_site_type_symbol
_atom_type_description
_atom_site_fract_x
_atom_site_fract_y
_atom_site_fract_z
_atom_type_partial_charge
O1    O     O_R   0.505720 0.583900 0.413310 -0.545560
O2    O     O_R   0.175940 0.594920 0.586080 -0.526142
O3    O     O_R   0.005640 0.416100 0.586690 -0.547246
C1    C     C_R   0.344634 0.618913 0.613182 0.703074
O4    O     O_R   0.176000 0.594930 0.413930 -0.550498
O5    O     O_R   0.005700 0.416110 0.413310 -0.536745
C2    C     C_R   0.344537 0.616826 0.385059 0.712589
O6    O     O_R   0.505660 0.583890 0.586690 -0.530986
O7    O     O_3   0.339200 0.441330 0.500000 -0.357235
V1    V     V_3+5 0.064350 0.510880 0.500000 1.505961
O8    O     O_R   0.675980 0.405080 0.413920 -0.514706
C3    C     C_R   0.845057 0.384146 0.384435 0.790885
O9    O     O_R   0.675920 0.405070 0.586070 -0.505448
C4    C     C_R   0.846631 0.380215 0.612442 0.817357
V2    V     V_3+5 0.564340 0.489120 0.500000 1.570258
O10   O     O_3   0.839360 0.558670 0.500000 -0.379025
H1    H     H_    0.914264 0.058461 0.506925 0.145707
C5    C     C_R   0.978531 0.425687 0.780974 -0.084175
C6    C     C_R   0.987264 0.458849 0.862458 -0.123965
C7    C     C_R   0.910723 0.407813 0.927009 -0.116711
C8    C     C_R   0.848707 0.318922 0.912021 0.351470
C9    C     C_R   0.868996 0.279849 0.831425 0.011170
C10   C     C_R   0.900246 0.339714 0.763556 -0.005772
C11   C     C_R   0.879888 0.184774 0.816355 -0.143561
C12   C     C_R   0.907943 0.154949 0.732916 0.011887
C13   C     C_R   0.867378 0.214767 0.664847 0.013668
C14   C     C_R   0.862898 0.310471 0.680582 -0.156458
C15   C     C_R   0.980956 0.067408 0.715676 -0.062942
C16   C     C_R   0.994897 0.035835 0.633975 -0.095860
C17   C     C_R   0.920903 0.087568 0.569048 -0.115907
C18   C     C_R   0.851651 0.175414 0.583891 0.342231
H2    H     H_    0.041792 0.465546 0.732049 0.179920
H3    H     H_    0.045366 0.525807 0.874892 0.170211
H4    H     H_    0.899904 0.437341 0.988824 0.168421
H5    H     H_    0.029662 0.022938 0.765085 0.128665
H6    H     H_    0.051456 0.968429 0.621674 0.150169
C19   C     C_R   0.726125 0.245490 0.190589 0.170757
C20   C     C_R   0.881382 0.185234 0.183394 -0.103711
C21   C     C_R   0.032957 0.196109 0.240943 -0.183554
H7    H     H_    0.155687 0.151221 0.238282 0.119371
C22   C     C_R   0.021311 0.260758 0.306154 -0.060455
H8    H     H_    0.135853 0.263934 0.351736 0.144228
C23   C     C_R   0.858402 0.316997 0.315336 -0.110714
C24   C     C_R   0.715860 0.310169 0.254094 0.086289
C25   C     C_3   0.505286 0.298210 0.263268 0.197923
C26   C     C_3   0.516316 0.227024 0.194158 -0.398793
H9    H     H_    0.440793 0.246673 0.135685 0.252675
C27   C     C_R   0.512739 0.692852 0.733517 0.085864
C28   C     C_R   0.352404 0.687379 0.681669 -0.120878
C29   C     C_R   0.202347 0.749528 0.696707 -0.085356
H10   H     H_    0.081187 0.752565 0.654564 0.160648
C30   C     C_R   0.211313 0.811290 0.764218 -0.157385
H11   H     H_    0.096299 0.859373 0.772921 0.162185
C31   C     C_R   0.373607 0.815408 0.816611 -0.057134
C32   C     C_R   0.525061 0.756636 0.798459 0.000845
C33   C     C_3   0.721747 0.783726 0.772994 0.142648
C34   C     C_3   0.709716 0.712457 0.705183 0.160273
H12   H     H_    0.830161 0.770850 0.822603 0.135236
H13   H     H_    0.717251 0.738329 0.640050 0.129966
C35   C     C_R   0.506812 0.683180 0.258452 0.174733
C36   C     C_R   0.352321 0.682186 0.314233 -0.104245
C37   C     C_R   0.200989 0.743572 0.298264 -0.181519
H14   H     H_    0.078165 0.745401 0.339085 0.132519
C38   C     C_R   0.212620 0.807735 0.232984 -0.171710
H15   H     H_    0.097562 0.856529 0.225436 0.124696
C39   C     C_R   0.376334 0.812951 0.181669 -0.109405
C40   C     C_R   0.518784 0.746883 0.194148 0.113653
C41   C     C_3   0.729094 0.758350 0.206609 -0.423992
C42   C     C_3   0.716204 0.688574 0.276236 -0.406682
H16   H     H_    0.765625 0.827765 0.229242 0.163772
H17   H     H_    0.746185 0.717289 0.339197 0.160903
H18   H     H_    0.791676 0.623733 0.261694 0.191999
O11   O     O_R   0.229140 0.916090 0.913340 -0.555604
O12   O     O_R   0.558860 0.905090 0.086080 -0.549956
O13   O     O_R   0.729100 0.083920 0.086690 -0.525531
C43   C     C_R   0.390054 0.883124 0.114962 0.667329
O14   O     O_R   0.558860 0.905090 0.913930 -0.522651
O15   O     O_R   0.729100 0.083920 0.913310 -0.497172
C44   C     C_R   0.389081 0.883846 0.884674 0.738876
O16   O     O_R   0.229140 0.916080 0.086720 -0.549559
O17   O     O_3   0.395570 0.058660 0.000020 -0.350295
V3    V     V_3+5 0.670450 0.989140 0.000000 1.509362
O18   O     O_R   0.058810 0.094980 0.913910 -0.546443
C45   C     C_R   0.889590 0.117758 0.886161 0.803928
O19   O     O_R   0.058810 0.094980 0.086060 -0.544286
C46   C     C_R   0.890253 0.115444 0.116108 0.754605
V4    V     V_3+5 0.170450 0.010950 0.999970 1.467801
O20   O     O_3   0.895460 0.941370 0.999990 -0.385006
Cl1   Cl    Cl    0.379290 0.398989 0.233229 -0.644677
H19   H     H_    0.465249 0.270353 0.325166 0.121506
H20   H     H_    0.486545 0.156791 0.216123 0.114737
Cl2   Cl    Cl    0.721844 0.895327 0.729541 -0.747772
Cl3   Cl    Cl    0.854112 0.616929 0.724553 -0.743403
H21   H     H_    0.812904 0.734010 0.152035 0.188827
Cl4   Cl    Cl    0.713412 0.268302 0.990796 -0.682759
Cl5   Cl    Cl    0.718870 0.223746 0.502316 -0.732200

loop_
_geom_bond_atom_site_label_1
_geom_bond_atom_site_label_2
_ccdc_geom_bond_type
C27   C32   A    
O18   V4    S    
V4    O20   S    
C22   H8    S    
C6    C7    A    
C1    O6    A    
O17   V3    S    
C27   C34   S    
C21   C22   A    
O19   C46   A    
C24   C25   S    
C12   C15   A    
C16   H6    S    
C13   C14   A    
C16   C17   A    
O12   C43   A    
C20   C46   S    
C35   C42   S    
C15   C16   A    
C3    C23   S    
O5    C3    A    
C20   C21   A    
C34   H13   S    
C18   Cl5   S    
C33   C34   S    
C5    C6    A    
C42   H17   S    
O11   V4    S    
C37   C38   A    
C31   C32   A    
O8    V2    S    
C2    C36   S    
C37   H14   S    
C35   C40   A    
C41   C42   S    
C29   C30   A    
O1    V2    S    
C10   C14   A    
C4    C14   S    
C25   Cl1   S    
O7    V1    S    
C7    H4    S    
O14   C44   A    
C39   C40   A    
C13   C18   A    
C34   Cl3   S    
C8    C9    A    
H1    C17   S    
C22   C23   A    
O12   V3    S    
C30   C31   A    
O19   V4    S    
C40   C41   S    
C11   C12   A    
C15   H5    S    
C6    H3    S    
C21   H7    S    
O4    C2    A    
C26   H20   S    
C8    Cl4   S    
C12   C13   A    
C25   C26   S    
C41   H21   S    
C5    C10   A    
C35   C36   A    
C38   C39   A    
C42   H18   S    
O2    C1    A    
C23   C24   A    
C19   C20   A    
O15   V3    S    
O13   C46   A    
O18   C45   A    
C39   C43   S    
C32   C33   S    
C29   H10   S    
O11   C44   A    
C25   H19   S    
O17   V4    S    
O3    C4    A    
C27   C28   A    
O6    V2    S    
O9    V2    S    
C9    C11   A    
C5    H2    S    
O2    V1    S    
C30   H11   S    
C31   C44   S    
C26   H9    S    
O1    C2    A    
C43   O16   A    
O5    V1    S    
O8    C3    A    
O13   V3    S    
O16   V4    S    
C1    C28   S    
C38   H15   S    
C19   C24   A    
O7    V2    S    
O4    V1    S    
O3    V1    S    
V1    O10   S    
C17   C18   A    
O14   V3    S    
V3    O20   S    
C33   H12   S    
C11   C45   S    
C36   C37   A    
O15   C45   A    
C33   Cl2   S    
C7    C8    A    
C41   H16   S    
C28   C29   A    
C9    C10   A    
C19   C26   S    
O9    C4    A    
V2    O10   S    
