data_mof_unit_37479.cif
_audit_creation_date              2013-03-05T15:56:02-0500
_audit_creation_method            fapswitch 2.2
_symmetry_space_group_name_H-M    P1
_symmetry_Int_Tables_number       1
_space_group_crystal_system       triclinic
_cell_length_a                    12.475861
_cell_length_b                    13.364765
_cell_length_c                    17.234395
_cell_angle_alpha                 107.32681
_cell_angle_beta                  73.908966
_cell_angle_gamma                 117.116961
_cell_volume                      2407.6171357

loop_
_atom_site_label
_atom_site_type_symbol
_atom_site_description
_atom_site_fract_x
_atom_site_fract_y
_atom_site_fract_z
_atom_type_partial_charge
O1    O     O_R   0.025490 0.682370 0.523640 -0.592411
O2    O     O_R   0.194150 0.640180 0.491890 -0.606043
C1    C     C_R   0.144709 0.712554 0.504448 0.789315
O3    O     O_R   0.905900 0.523560 0.631310 -0.583781
O4    O     O_R   0.074570 0.481370 0.599560 -0.603785
C2    C     C_R   0.986858 0.504384 0.652309 0.816023
Cu1   Cu    Cu3+1 0.900140 0.524980 0.518800 0.990579
Cu2   Cu    Cu3+1 0.099860 0.475020 0.481200 0.940545
O5    O     O_R   0.805850 0.359820 0.508110 -0.529307
O6    O     O_R   0.974510 0.317630 0.476360 -0.591561
O7    O     O_R   0.925430 0.518630 0.400440 -0.553097
O8    O     O_R   0.094100 0.476440 0.368690 -0.593643
C3    C     C_R   0.855744 0.286672 0.492181 0.826886
C4    C     C_R   0.013606 0.496323 0.347656 0.804750
C5    C     C_R   0.983155 0.514772 0.739394 -0.115634
C6    C     C_R   0.092612 0.566657 0.770071 -0.253034
C7    C     C_R   0.092813 0.582910 0.853661 0.350136
C8    C     C_R   0.980299 0.538980 0.906725 -0.010481
C9    C     C_R   0.868868 0.487004 0.875774 -0.012929
C10   C     C_R   0.871727 0.476353 0.792124 -0.257256
C11   C     C_R   0.924671 0.455392 0.146307 -0.191747
C12   C     C_R   0.916619 0.453456 0.227752 -0.192456
C13   C     C_R   0.137701 0.536327 0.211663 -0.233274
C14   C     C_R   0.145832 0.536394 0.129427 -0.140587
C15   C     C_R   0.039369 0.498112 0.097120 0.165912
C16   C     C_2   0.978110 0.541586 0.992967 -0.153096
C17   C     C_2   0.048728 0.504350 0.012199 -0.178587
C18   C     C_R   0.022922 0.494443 0.261070 -0.028864
H1    H     H_    0.178254 0.598004 0.729047 0.211454
H2    H     H_    0.827327 0.421012 0.264590 0.197632
H3    H     H_    0.220703 0.570972 0.237084 0.135821
H4    H     H_    0.116109 0.480188 0.965223 0.160540
H5    H     H_    0.841368 0.423370 0.121754 0.136832
H6    H     H_    0.787058 0.435352 0.767659 0.156520
H7    H     H_    0.910859 0.565553 0.040274 0.150972
H8    H     H_    0.234865 0.569574 0.091807 0.148178
C19   C     C_R   0.738740 0.963802 0.436807 0.026917
H9    H     H_    0.913401 0.101246 0.450859 0.146955
H10   H     H_    0.563867 0.755596 0.385445 0.155199
C20   C     C_R   0.773241 0.164198 0.487460 -0.083780
C21   C     C_R   0.181014 0.917760 0.535031 -0.246956
C22   C     C_R   0.256295 0.032835 0.559476 0.063081
C23   C     C_R   0.381898 0.064825 0.549820 -0.154877
C24   C     C_R   0.435389 0.985860 0.506927 0.084934
C25   C     C_R   0.356878 0.870069 0.480110 0.109282
C26   C     C_R   0.564203 0.018125 0.489399 0.087244
C27   C     C_R   0.611737 0.933520 0.448840 0.150221
C28   C     C_R   0.531994 0.821875 0.419275 -0.229777
C29   C     C_R   0.408633 0.793428 0.429714 -0.197212
C30   C     C_R   0.647576 0.132856 0.507824 -0.181586
C31   C     C_R   0.817344 0.078635 0.458961 -0.248925
C32   C     C_R   0.228517 0.834433 0.503583 -0.114911
H11   H     H_    0.617731 0.200858 0.535682 0.190691
H12   H     H_    0.084330 0.892299 0.544385 0.145597
H13   H     H_    0.435004 0.152359 0.575449 0.157695
H14   H     H_    0.355540 0.710696 0.395803 0.168874
C33   C     C_R   0.648364 0.687970 0.625144 -0.253940
H15   H     H_    0.645488 0.756881 0.677151 0.210048
N1    N     N_R   0.749710 0.562810 0.547300 -0.246706
C34   C     C_R   0.263778 0.362152 0.380157 0.182647
C35   C     C_R   0.373692 0.349914 0.348864 -0.300970
C36   C     C_R   0.469877 0.409856 0.391257 -0.092221
C37   C     C_R   0.457120 0.478187 0.469138 0.033401
C38   C     C_R   0.348001 0.499001 0.496311 0.205745
C39   C     C_R   0.554836 0.534802 0.516505 -0.147011
C40   C     C_R   0.553971 0.630395 0.579039 -0.011038
C41   C     C_R   0.454853 0.662773 0.598194 0.308552
C42   C     C_R   0.349834 0.590830 0.562601 -0.260382
C43   C     C_R   0.651729 0.498076 0.505016 0.477500
C44   C     C_R   0.744774 0.654724 0.609249 0.082436
N2    N     N_R   0.249640 0.437820 0.453210 -0.211779
H16   H     H_    0.555866 0.406110 0.359762 0.186927
H17   H     H_    0.386382 0.295813 0.289156 0.155473
H18   H     H_    0.274343 0.614645 0.584252 0.226716
C45   C     C_R   0.793780 0.879539 0.397742 0.103290
C46   C     C_R   0.854928 0.856851 0.443047 -0.154252
C47   C     C_R   0.914870 0.784011 0.404754 -0.144075
C48   C     C_R   0.914983 0.734263 0.321118 -0.084666
C49   C     C_R   0.852779 0.754957 0.275800 -0.128518
C50   C     C_R   0.792312 0.827451 0.313889 -0.208928
H19   H     H_    0.857033 0.896610 0.507552 0.132030
H20   H     H_    0.962608 0.767238 0.439465 0.155810
H21   H     H_    0.964531 0.680930 0.291243 0.146487
H22   H     H_    0.853049 0.716261 0.210951 0.136395
H23   H     H_    0.746896 0.845309 0.277736 0.132347
C51   C     C_R   0.202408 0.118379 0.599406 0.129033
C52   C     C_R   0.109170 0.117276 0.567753 -0.173847
C53   C     C_R   0.055242 0.194881 0.607307 -0.108225
C54   C     C_R   0.093858 0.274332 0.678401 -0.084452
C55   C     C_R   0.187355 0.277450 0.709787 -0.132630
C56   C     C_R   0.241422 0.199872 0.670701 -0.152423
H24   H     H_    0.078317 0.056608 0.512462 0.119324
H25   H     H_    0.982878 0.193120 0.583338 0.138913
H26   H     H_    0.050587 0.332788 0.709553 0.140915
H27   H     H_    0.216917 0.339113 0.765035 0.146999
H28   H     H_    0.311487 0.201795 0.697402 0.129486
C57   C     C_R   0.831552 0.717652 0.668100 0.180836
C58   C     C_R   0.814619 0.673660 0.737215 -0.101838
C59   C     C_R   0.885991 0.739495 0.799152 -0.142093
C60   C     C_R   0.970366 0.851718 0.794649 -0.090706
C61   C     C_R   0.979972 0.899565 0.729948 -0.123749
C62   C     C_R   0.908272 0.833735 0.668339 -0.164476
H29   H     H_    0.745581 0.588626 0.743236 0.125204
H30   H     H_    0.874578 0.704446 0.851384 0.142318
H31   H     H_    0.025101 0.902808 0.842751 0.142553
H32   H     H_    0.040391 0.988456 0.728766 0.148421
H33   H     H_    0.908698 0.874196 0.622484 0.113421
N3    N     N_R   0.461186 0.770817 0.651260 0.135414
O9    O     O_R   0.363092 0.780257 0.697715 -0.349579
O10   O     O_R   0.558410 0.864146 0.640625 -0.374565
N4    N     N_R   0.633031 0.382795 0.463141 0.108419
O11   O     O_R   0.704156 0.362638 0.395191 -0.397801
O12   O     O_R   0.530853 0.298967 0.483763 -0.421750
C63   C     C_R   0.172123 0.296756 0.325309 0.175375
C64   C     C_R   0.093108 0.183401 0.331281 -0.143641
C65   C     C_R   0.018416 0.113372 0.271892 -0.138015
C66   C     C_R   0.026484 0.154290 0.203887 -0.104836
C67   C     C_R   0.112998 0.263751 0.193518 -0.136273
C68   C     C_R   0.188061 0.333306 0.252748 -0.145154
H34   H     H_    0.094752 0.148118 0.379627 0.118952
H35   H     H_    0.957200 0.026354 0.277119 0.151565
H36   H     H_    0.969085 0.099661 0.157749 0.132128
H37   H     H_    0.123630 0.293752 0.138905 0.142376
H38   H     H_    0.259468 0.415482 0.242125 0.116909
C69   C     C_R   0.748401 0.440703 0.928737 0.118024
C70   C     C_R   0.720334 0.353481 0.970182 -0.151995
C71   C     C_R   0.607121 0.311276 0.020702 -0.128192
C72   C     C_R   0.520631 0.354760 0.029522 -0.109491
C73   C     C_R   0.547005 0.440124 0.987470 -0.131517
C74   C     C_R   0.660232 0.482776 0.937034 -0.154378
H39   H     H_    0.786056 0.318281 0.963401 0.136908
H40   H     H_    0.586399 0.244740 0.052944 0.140818
H41   H     H_    0.433069 0.322080 0.068719 0.126879
H42   H     H_    0.479765 0.473415 0.994077 0.132760
H43   H     H_    0.679511 0.549211 0.905098 0.123733
N5    N     N_R   0.207096 0.647458 0.883901 0.123674
O13   O     O_R   0.307230 0.642209 0.837748 -0.355401
O14   O     O_R   0.214207 0.722527 0.952855 -0.344837

loop_
_geom_bond_atom_site_label_1
_geom_bond_atom_site_label_2
_geom_bond_distance
_ccdc_geom_bond_type
C52   C53   1.397800 A    
C37   C39   1.438048 A    
C61   C62   1.397946 A    
C21   C22   1.393373 A    
C34   C63   1.470007 S    
N4    O11   1.298214 A    
C8    C16   1.469245 S    
C33   C40   1.392392 A    
C45   C46   1.402030 A    
C72   C73   1.397565 A    
C50   H23   1.083408 S    
C63   C64   1.397384 A    
C33   H15   1.083266 S    
C55   H27   1.082587 S    
C47   C48   1.395935 A    
N3    O9    1.300796 A    
Cu1   O7    1.957629 S    
C16   C17   1.339225 D    
C14   H8    1.083428 S    
C38   C42   1.402025 A    
C11   C12   1.386394 A    
C51   C56   1.408556 A    
C49   H22   1.082485 S    
C19   C31   1.396186 A    
O7    C4    1.307399 A    
C39   C43   1.446274 A    
C41   N3    1.441251 S    
C11   H5    1.082949 S    
C42   H18   1.065492 S    
C58   H29   1.082831 S    
C70   H39   1.083071 S    
C65   C66   1.396078 A    
C8    C9    1.417656 A    
C26   C27   1.424621 A    
C38   N2    1.398230 A    
C54   H26   1.078901 S    
O5    C3    1.310999 A    
C67   C68   1.397939 A    
C56   H28   1.082580 S    
C3    C20   1.475304 S    
O1    Cu1   1.961178 S    
C2    C5    1.455090 S    
C71   H40   1.082355 S    
C69   C74   1.405465 A    
C59   C60   1.395839 A    
C6    C7    1.392009 A    
C13   C14   1.392817 A    
C22   C51   1.486005 S    
C33   C44   1.396867 A    
C19   C27   1.414423 A    
C45   C50   1.406134 A    
C21   C32   1.396160 A    
C57   C62   1.402765 A    
C44   C57   1.476036 S    
C10   H6    1.084182 S    
C59   H30   1.081368 S    
C19   C45   1.479898 S    
C12   C18   1.400422 A    
C52   H24   1.082693 S    
O3    Cu1   1.966166 S    
C48   H21   1.077920 S    
Cu1   N1    2.055513 S    
C24   C26   1.427088 A    
C57   C58   1.404842 A    
C5    C10   1.396047 A    
C30   H11   1.069864 S    
C65   H35   1.076326 S    
C41   C42   1.401138 A    
Cu1   Cu2   2.727289 S    
C14   C15   1.398827 A    
N5    O14   1.301456 A    
C48   C49   1.396084 A    
H9    C31   1.072013 S    
C25   C32   1.419642 A    
C35   H17   1.085189 S    
C6    H1    1.080109 S    
C68   H38   1.082021 S    
C9    C69   1.484263 S    
C73   H42   1.082487 S    
C34   C35   1.392828 A    
O1    C1    1.320677 A    
C13   H3    1.082684 S    
C66   H36   1.082293 S    
C36   C37   1.394586 A    
C27   C28   1.396662 A    
C25   C29   1.408040 A    
Cu2   O8    1.966167 S    
C7    N5    1.439271 S    
C7    C8    1.417174 A    
C60   H31   1.082296 S    
C36   H16   1.076098 S    
C62   H33   1.080079 S    
N4    O12   1.300221 A    
C13   C18   1.402224 A    
C46   C47   1.396368 A    
N1    C43   1.388517 A    
C23   H13   1.072618 S    
C28   C29   1.378188 A    
C74   H43   1.082661 S    
O8    C4    1.308790 A    
C39   C40   1.407061 A    
C23   C24   1.417557 A    
C69   C70   1.406013 A    
C49   C50   1.397032 A    
O3    C2    1.307924 A    
C22   C23   1.397526 A    
C71   C72   1.397606 A    
C20   C31   1.393141 A    
C24   C25   1.418073 A    
C73   C74   1.398711 A    
C61   H32   1.081429 S    
Cu1   O5    1.949575 S    
C11   C15   1.401176 A    
C53   H25   1.080655 S    
Cu2   N2    2.043540 S    
C12   H2    1.078728 S    
C17   H4    1.086680 S    
C51   C52   1.407922 A    
O2    Cu2   1.949574 S    
C63   C68   1.406955 A    
N5    O13   1.301578 A    
O6    C3    1.313529 A    
C46   H19   1.081920 S    
O4    Cu2   1.957629 S    
C1    C32   1.483222 S    
C64   H34   1.081359 S    
C15   C17   1.460022 S    
C29   H14   1.079303 S    
C26   C30   1.404650 A    
C34   N2    1.385667 A    
C9    C10   1.397786 A    
O2    C1    1.306940 A    
C72   H41   1.082674 S    
C43   N4    1.432617 S    
C55   C56   1.397650 A    
O4    C2    1.306649 A    
C47   H20   1.077924 S    
C70   C71   1.398490 A    
C20   C30   1.393002 A    
C5    C6    1.394188 A    
C60   C61   1.395533 A    
N3    O10   1.301681 A    
C40   C41   1.414847 A    
C67   H37   1.082294 S    
C35   C36   1.369882 A    
C21   H12   1.071195 S    
N1    C44   1.379855 A    
C37   C38   1.436731 A    
C16   H7    1.086974 S    
C53   C54   1.395269 A    
Cu2   O6    1.961179 S    
C58   C59   1.399888 A    
C4    C18   1.457794 S    
C54   C55   1.395335 A    
C66   C67   1.395138 A    
C64   C65   1.398195 A    
H10   C28   1.080592 S    
