data_mof_unit_33037.cif
_audit_creation_date              2012-12-11T15:18:39-0500
_audit_creation_method            fapswitch 2.2
_symmetry_space_group_name_H-M    P1
_symmetry_Int_Tables_number       1
_space_group_crystal_system       triclinic
_cell_length_a                    6.93973
_cell_length_b                    19.905683
_cell_length_c                    23.801491
_cell_angle_alpha                 93.469398
_cell_angle_beta                  90.997452
_cell_angle_gamma                 88.588437
_cell_volume                      3280.50023118

loop_
_atom_site_label
_atom_site_type_symbol
_atom_type_description
_atom_site_fract_x
_atom_site_fract_y
_atom_site_fract_z
_atom_type_partial_charge
O1    O     O_R   0.620100 0.812200 0.810870 -0.521775
O2    O     O_R   0.379900 0.187800 0.189130 -0.514144
O3    O     O_R   0.296960 0.671650 0.794750 -0.536428
O4    O     O_R   0.703040 0.328350 0.205250 -0.537402
O5    O     O_R   0.120160 0.687800 0.689130 -0.543990
O6    O     O_R   0.879840 0.312200 0.310870 -0.541961
C1    C     C_R   0.468215 0.647077 0.804716 0.762130
C2    C     C_R   0.531785 0.352920 0.195280 0.758483
O7    O     O_R   0.290810 0.810670 0.817290 -0.541628
O8    O     O_R   0.709190 0.189330 0.182710 -0.544920
O9    O     O_R   0.113980 0.827820 0.711840 -0.546663
O10   O     O_R   0.886020 0.172180 0.288160 -0.534264
C3    C     C_R   0.459178 0.831253 0.834471 0.764495
C4    C     C_R   0.541083 0.168351 0.165833 0.776351
O11   O     O_R   0.626290 0.672180 0.788160 -0.532607
O12   O     O_R   0.373710 0.327820 0.211840 -0.533498
O13   O     O_3   0.451520 0.755460 0.715370 -0.380200
O14   O     O_3   0.548480 0.244540 0.284630 -0.375435
V1    V     V_3+5 0.179200 0.748980 0.756420 1.487111
V2    V     V_3+5 0.820800 0.251020 0.243580 1.498728
O15   O     O_R   0.783880 0.828350 0.705250 -0.540710
O16   O     O_R   0.216120 0.171650 0.294750 -0.538166
C5    C     C_R   0.950087 0.852731 0.694935 0.773978
C6    C     C_R   0.050368 0.146698 0.304482 0.767892
O17   O     O_R   0.790030 0.689320 0.682700 -0.545648
O18   O     O_R   0.209970 0.310680 0.317300 -0.550148
C7    C     C_R   0.959329 0.667969 0.665792 0.708897
C8    C     C_R   0.040674 0.332066 0.334186 0.692968
V3    V     V_3+5 0.678400 0.751010 0.743570 1.484511
V4    V     V_3+5 0.321600 0.248990 0.256430 1.495108
O19   O     O_3   0.955950 0.744540 0.784620 -0.350002
O20   O     O_3   0.044050 0.255460 0.215380 -0.351239
C9    C     C_R   0.863161 0.423016 0.391587 -0.197731
C10   C     C_R   0.136865 0.577078 0.608352 -0.200412
C11   C     C_R   0.029399 0.381675 0.383428 -0.084064
C12   C     C_R   0.970630 0.618416 0.616518 -0.085936
C13   C     C_R   0.184003 0.388296 0.422355 -0.209306
C14   C     C_R   0.816087 0.611846 0.577564 -0.200512
C15   C     C_R   0.172453 0.434791 0.469162 0.091717
C16   C     C_R   0.827641 0.565359 0.530750 0.088274
C17   C     C_R   0.005954 0.476373 0.476627 0.059948
C18   C     C_R   0.994126 0.523768 0.523288 0.059446
C19   C     C_R   0.851243 0.470645 0.437517 0.085971
C20   C     C_R   0.148821 0.529482 0.562404 0.087509
C21   C     C_R   0.324331 0.440397 0.508775 -0.163924
C22   C     C_R   0.675774 0.559758 0.491133 -0.163750
C23   C     C_R   0.312710 0.487325 0.554928 -0.171751
C24   C     C_R   0.687371 0.512814 0.444987 -0.173587
H1    H     H_    0.743701 0.418815 0.361702 0.142754
H2    H     H_    0.256295 0.581253 0.638250 0.142879
H3    H     H_    0.312395 0.356645 0.416663 0.131070
H4    H     H_    0.687731 0.643517 0.583252 0.134643
H5    H     H_    0.452927 0.408732 0.503886 0.144309
H6    H     H_    0.547191 0.591430 0.496017 0.145779
H7    H     H_    0.432672 0.490905 0.584640 0.142611
H8    H     H_    0.567401 0.509228 0.415279 0.142816
C25   C     C_R   0.952013 0.914321 0.663037 -0.053464
C26   C     C_R   0.056290 0.084172 0.335378 -0.039357
C27   C     C_R   0.933217 0.035750 0.662463 -0.133203
C28   C     C_R   0.188334 0.971363 0.342979 -0.152841
C29   C     C_R   0.934491 0.977373 0.692228 0.122386
C30   C     C_R   0.159371 0.028117 0.312122 0.124646
C31   C     C_R   0.963551 0.909702 0.603686 0.100885
C32   C     C_R   0.980509 0.082812 0.390036 0.092036
C33   C     C_R   0.983168 0.969691 0.573418 0.023082
C34   C     C_R   0.034931 0.028612 0.425158 0.023181
C35   C     C_R   0.956827 0.033001 0.603814 0.004177
C36   C     C_R   0.130757 0.970968 0.399247 0.015833
C37   C     C_R   0.029054 0.969770 0.514623 0.022620
C38   C     C_R   0.004904 0.029862 0.484970 0.017740
C39   C     C_R   0.978806 0.090751 0.517226 -0.211590
C40   C     C_R   0.122631 0.914371 0.486645 -0.204040
C41   C     C_R   0.957237 0.092914 0.575238 0.280355
C42   C     C_R   0.174159 0.914598 0.430540 0.279797
H9    H     H_    0.914387 0.083521 0.686020 0.186932
H10   H     H_    0.263730 0.928599 0.322686 0.190683
H11   H     H_    0.991400 0.138403 0.498804 0.164197
H12   H     H_    0.173461 0.871979 0.509091 0.164682
C43   C     C_R   0.485079 0.584780 0.835230 -0.061493
C44   C     C_R   0.514929 0.415217 0.164765 -0.060396
C45   C     C_R   0.537802 0.464245 0.835173 -0.123494
C46   C     C_R   0.462261 0.535754 0.164821 -0.125053
C47   C     C_R   0.518597 0.522777 0.805551 0.173995
C48   C     C_R   0.481438 0.477221 0.194444 0.173972
C49   C     C_R   0.472794 0.587801 0.894134 -0.210738
C50   C     C_R   0.527218 0.412194 0.105861 -0.211353
C51   C     C_R   0.495570 0.529068 0.925237 0.063983
C52   C     C_R   0.504479 0.470929 0.074758 0.063981
C53   C     C_R   0.527386 0.466440 0.894367 0.024047
C54   C     C_R   0.472684 0.533558 0.105628 0.024522
C55   C     C_R   0.488419 0.530527 0.985718 0.011440
C56   C     C_R   0.511646 0.469470 0.014277 0.011428
C57   C     C_R   0.540561 0.408806 0.981445 -0.163762
C58   C     C_R   0.459533 0.591192 0.018550 -0.163430
C59   C     C_R   0.548735 0.406933 0.923066 0.266426
C60   C     C_R   0.451367 0.593066 0.076929 0.266150
H13   H     H_    0.552847 0.362874 0.085945 0.139814
H14   H     H_    0.447137 0.637120 0.914049 0.139876
H15   H     H_    0.562530 0.417031 0.811250 0.178536
H16   H     H_    0.437551 0.582969 0.188744 0.177882
H17   H     H_    0.557631 0.360934 0.999765 0.174643
H18   H     H_    0.442497 0.639066 0.000230 0.174717
C61   C     C_R   0.646329 0.059265 0.115521 0.110659
C62   C     C_R   0.354741 0.940101 0.885196 0.096734
C63   C     C_R   0.532503 0.119427 0.116328 -0.166808
C64   C     C_R   0.468368 0.879965 0.884195 -0.171734
C65   C     C_R   0.407997 0.132043 0.070292 0.184382
C66   C     C_R   0.593475 0.867363 0.930131 0.188018
C67   C     C_R   0.393562 0.083970 0.024178 0.048254
C68   C     C_R   0.607930 0.915376 0.976356 0.047586
C69   C     C_R   0.507141 0.023821 0.023554 -0.013487
C70   C     C_R   0.494307 0.975515 0.977058 -0.012139
C71   C     C_R   0.633901 0.011797 0.069154 0.108532
C72   C     C_R   0.367431 0.987544 0.931509 0.111033
C73   C     C_R   0.267903 0.094547 0.978406 -0.122231
C74   C     C_R   0.733546 0.904789 0.022151 -0.121861
C75   C     C_R   0.255050 0.047283 0.933031 -0.131718
C76   C     C_R   0.746257 0.952036 0.067598 -0.131894
H19   H     H_    0.176939 0.139262 0.976951 0.194673
H20   H     H_    0.824463 0.860057 0.023574 0.194573
H21   H     H_    0.155584 0.058091 0.899009 0.179484
H22   H     H_    0.845621 0.941217 0.101638 0.178421
Br1   Br    Br    0.589982 0.319627 0.885108 -0.477716
Br2   Br    Br    0.410183 0.680376 0.114885 -0.480300
N1    N     N_3   0.469813 0.480462 0.254845 -0.682485
H23   H     H_    0.341479 0.458007 0.265122 0.226152
H24   H     H_    0.460145 0.530471 0.270910 0.244698
N2    N     N_3   0.530223 0.519537 0.745150 -0.681915
H25   H     H_    0.658549 0.541999 0.734873 0.225998
H26   H     H_    0.539912 0.469528 0.729084 0.245701
N3    N     N_3   0.771632 0.044821 0.162233 -0.668188
H27   H     H_    0.881675 0.079801 0.165190 0.260120
H28   H     H_    0.692372 0.048644 0.199292 0.226374
N4    N     N_3   0.228824 0.954481 0.838711 -0.650647
H29   H     H_    0.119084 0.919387 0.836090 0.270859
H30   H     H_    0.307474 0.950678 0.801530 0.236629
Br3   Br    Br    0.267017 0.217310 0.069419 -0.552264
Br4   Br    Br    0.735376 0.782292 0.930660 -0.551378
Br5   Br    Br    0.930401 0.181039 0.612800 -0.509517
Br6   Br    Br    0.309891 0.835505 0.399861 -0.520133
N5    N     N_3   0.832535 0.132110 0.405132 -0.667508
H31   H     H_    0.739474 0.114852 0.434838 0.255636
H32   H     H_    0.895586 0.177311 0.419290 0.217838
N6    N     N_3   0.922557 0.845304 0.575946 -0.686633
H33   H     H_    0.857971 0.850214 0.536388 0.266995
H34   H     H_    0.048297 0.815356 0.573705 0.224470
N7    N     N_3   0.232163 0.028360 0.256105 -0.669929
H35   H     H_    0.381398 0.019984 0.258090 0.235958
H36   H     H_    0.172113 0.988178 0.232071 0.252698
N8    N     N_3   0.910672 0.981643 0.752235 -0.669090
H37   H     H_    0.773704 0.964104 0.760338 0.225296
H38   H     H_    0.913462 0.031702 0.768252 0.258792

loop_
_geom_bond_atom_site_label_1
_geom_bond_atom_site_label_2
_ccdc_geom_bond_type
C26   C30   A    
C34   C36   A    
C31   C33   A    
C53   C59   A    
C51   C55   A    
O13   V3    S    
C17   C18   A    
N7    H35   S    
C43   C49   A    
C47   N2    S    
O4    C2    A    
V1    O19   S    
N2    H25   S    
C70   C72   A    
C15   C17   A    
C34   C38   A    
C16   C22   A    
C63   C65   A    
O9    V1    S    
C62   N4    S    
O16   C6    A    
C23   H7    S    
C61   C71   A    
C68   C74   A    
O3    C1    A    
N5    H32   S    
C13   H3    S    
C50   C52   A    
C14   H4    S    
C32   N5    S    
C36   C42   A    
O7    C3    A    
C28   C30   A    
C76   H22   S    
C25   C29   A    
C50   H13   S    
C75   H21   S    
C44   C50   A    
C49   H14   S    
C27   C35   A    
O5    C7    A    
O7    V1    S    
C4    C63   S    
O6    C8    A    
C69   C71   A    
C52   C56   A    
C8    C11   S    
O8    V2    S    
C33   C35   A    
C40   H12   S    
C31   N6    S    
O3    V1    S    
C38   C39   A    
C35   C41   A    
V4    O20   S    
C29   N8    S    
C10   C12   A    
C24   H8    S    
C20   C23   A    
C44   C48   A    
C15   C21   A    
C45   C53   A    
C64   C66   A    
C21   C23   A    
C21   H5    S    
C2    O12   A    
C26   C32   A    
C17   C19   A    
C22   H6    S    
C18   C20   A    
C62   C64   A    
O18   C8    A    
C45   C47   A    
O11   V3    S    
C49   C51   A    
O17   V3    S    
C22   C24   A    
C27   C29   A    
C10   H2    S    
C60   Br2   S    
C3    C64   S    
C9    C19   A    
C6    C26   S    
C10   C20   A    
C40   C42   A    
O8    C4    A    
C57   H17   S    
C55   C56   A    
C39   C41   A    
N6    H33   S    
N4    H30   S    
C1    O11   A    
C45   H15   S    
C73   C75   A    
C42   Br6   S    
C28   H10   S    
C74   H20   S    
C32   C34   A    
C65   Br3   S    
C37   C40   A    
V3    O19   S    
C19   C24   A    
C2    C44   S    
O10   V2    S    
O1    V3    S    
C61   C63   A    
C58   C60   A    
C58   H18   S    
C74   C76   A    
C62   C72   A    
N6    H34   S    
C52   C54   A    
O18   V4    S    
C73   H19   S    
C30   N7    S    
O15   C5    A    
N1    H23   S    
N8    H38   S    
O1    C3    A    
O13   V1    S    
N3    H27   S    
C27   H9    S    
C39   H11   S    
O6    V2    S    
C11   C13   A    
C1    C43   S    
V2    O20   S    
C59   Br1   S    
C48   N1    S    
C5    C25   S    
O16   V4    S    
C69   C70   A    
N7    H36   S    
C46   H16   S    
C61   N3    S    
C25   C31   A    
C16   C18   A    
N3    H28   S    
N2    H26   S    
C54   C60   A    
N4    H29   S    
O5    V1    S    
O4    V2    S    
C7    C12   S    
O17   C7    A    
C41   Br5   S    
O10   C6    A    
C46   C48   A    
C46   C54   A    
O2    V4    S    
C67   C69   A    
C13   C15   A    
N5    H31   S    
C55   C58   A    
C14   C16   A    
C65   C67   A    
O15   V3    S    
C33   C37   A    
O9    C5    A    
C56   C57   A    
C9    C11   A    
C66   C68   A    
O14   V2    S    
C37   C38   A    
O2    C4    A    
C68   C70   A    
C72   C75   A    
C12   C14   A    
C67   C73   A    
O14   V4    S    
C71   C76   A    
C43   C47   A    
C28   C36   A    
C57   C59   A    
C9    H1    S    
N1    H24   S    
C51   C53   A    
N8    H37   S    
O12   V4    S    
C66   Br4   S    
