data_mof_unit_24204.cif
_audit_creation_date              2012-10-26T19:09:59-0400
_audit_creation_method            fapswitch 2.2
_symmetry_space_group_name_H-M    P1
_symmetry_Int_Tables_number       1
_space_group_crystal_system       triclinic
_cell_length_a                    15.120428
_cell_length_b                    15.309418
_cell_length_c                    9.414448
_cell_angle_alpha                 90.633916
_cell_angle_beta                  90.000078
_cell_angle_gamma                 89.999922
_cell_volume                      2179.16966567

loop_
_atom_site_label
_atom_site_type_symbol
_atom_type_description
_atom_site_fract_x
_atom_site_fract_y
_atom_site_fract_z
_atom_type_partial_charge
Br1   Br    Br    0.307919 0.552118 0.637139 -0.523752
Br2   Br    Br    0.291807 0.582805 0.281631 -0.481815
Br3   Br    Br    0.254574 0.348982 0.204437 -0.502745
Br4   Br    Br    0.075910 0.220274 0.275433 -0.532247
Br5   Br    Br    0.575883 0.279749 0.724501 -0.532231
Br6   Br    Br    0.754544 0.151060 0.795595 -0.502815
Br7   Br    Br    0.791783 0.917188 0.718411 -0.481837
Br8   Br    Br    0.807929 0.947889 0.362908 -0.523770
C1    C     C_R   0.120284 0.379458 0.499217 0.614845
C2    C     C_R   0.880875 0.620927 0.500443 0.538643
C3    C     C_R   0.380874 0.879073 0.499557 0.538639
C4    C     C_R   0.380023 0.119689 0.501079 0.556517
C5    C     C_3   0.727512 0.346051 0.573972 -0.190630
C6    C     C_3   0.847726 0.230213 0.572272 -0.209847
C7    C     C_3   0.807322 0.734762 0.650038 -0.205108
C8    C     C_3   0.838134 0.762688 0.392375 -0.200065
C9    C     C_3   0.338130 0.737316 0.607633 -0.200061
C10   C     C_3   0.307325 0.765235 0.349965 -0.205108
C11   C     C_3   0.347730 0.269790 0.427752 -0.209846
C12   C     C_R   0.122166 0.618138 0.500191 0.604172
C13   C     C_3   0.227517 0.153954 0.425999 -0.190637
C14   C     C_3   0.262155 0.670692 0.620574 0.064534
C15   C     C_3   0.238471 0.691427 0.350378 0.059817
C16   C     C_3   0.272683 0.336684 0.408183 0.066796
C17   C     C_3   0.150903 0.219696 0.444533 0.054947
C18   C     C_3   0.650899 0.280309 0.555429 0.054943
C19   C     C_3   0.772675 0.163325 0.591848 0.066787
C20   C     C_3   0.738463 0.808566 0.649629 0.059825
C21   C     C_3   0.762162 0.829315 0.379439 0.064535
C22   C     C_3   0.786666 0.283622 0.342813 -0.259597
C23   C     C_R   0.622166 0.881862 0.499809 0.604172
C24   C     C_3   0.721550 0.652146 0.462280 -0.258176
C25   C     C_3   0.221548 0.847856 0.537710 -0.258178
C26   C     C_3   0.286649 0.216362 0.657186 -0.259597
C27   C     C_3   0.811677 0.311738 0.496676 -0.015839
C28   C     C_3   0.813280 0.691045 0.501075 -0.010387
C29   C     C_3   0.313278 0.808956 0.498926 -0.010386
C30   C     C_3   0.311675 0.188260 0.503323 -0.015843
C31   C     C_3   0.192790 0.685596 0.499821 0.058496
C32   C     C_3   0.189108 0.309397 0.497475 0.041402
C33   C     C_3   0.689109 0.190602 0.502523 0.041405
C34   C     C_R   0.620285 0.120541 0.500783 0.614852
C35   C     C_3   0.692790 0.814404 0.500180 0.058496
C36   C     C_3   0.149630 0.776078 0.530036 -0.303694
C37   C     C_3   0.221870 0.293692 0.652919 -0.294264
C38   C     C_3   0.721888 0.206290 0.347083 -0.294257
C39   C     C_3   0.649632 0.723924 0.469947 -0.303694
C40   C     C_3   0.999500 0.590130 0.085242 -0.108454
C41   C     C_3   0.999503 0.590115 0.917625 -0.106541
C42   C     C_3   0.923042 0.453834 0.082976 -0.106791
C43   C     C_3   0.923138 0.453661 0.915652 -0.102045
C44   C     C_3   0.423093 0.046263 0.084346 -0.102057
C45   C     C_3   0.080621 0.456822 0.082609 -0.085388
C46   C     C_3   0.423000 0.046097 0.917022 -0.106794
C47   C     C_3   0.499591 0.909884 0.082375 -0.106543
C48   C     C_3   0.499579 0.909868 0.914758 -0.108456
C49   C     C_3   0.081003 0.456786 0.915506 -0.099902
C50   C     C_3   0.580959 0.043291 0.084495 -0.099908
C51   C     C_3   0.580582 0.043245 0.917394 -0.085379
C52   C     C_R   0.880025 0.380309 0.498921 0.556513
Cu1   Cu    Cu3+1 0.000100 0.500000 0.642410 0.896356
Cu2   Cu    Cu3+1 0.000100 0.500000 0.357590 0.940276
Cu3   Cu    Cu3+1 0.500100 0.000000 0.642410 0.940283
Cu4   Cu    Cu3+1 0.500100 0.000000 0.357590 0.896357
H1    H     H_    0.707259 0.410389 0.530560 0.099368
H2    H     H_    0.878190 0.248717 0.675881 0.173857
H3    H     H_    0.873508 0.760108 0.681760 0.163073
H4    H     H_    0.900155 0.795710 0.427130 0.166882
H5    H     H_    0.400150 0.704291 0.572882 0.166890
H6    H     H_    0.373513 0.739895 0.318245 0.163073
H7    H     H_    0.378199 0.251294 0.324144 0.173861
H8    H     H_    0.242428 0.143954 0.311211 0.188425
H9    H     H_    0.228788 0.682772 0.724455 0.130445
H10   H     H_    0.187341 0.707644 0.269697 0.119717
H11   H     H_    0.296331 0.401353 0.446584 0.206950
H12   H     H_    0.901704 0.200192 0.507684 0.143317
H13   H     H_    0.105942 0.194520 0.528392 0.127213
H14   H     H_    0.605950 0.305478 0.471548 0.127218
H15   H     H_    0.796324 0.098649 0.553479 0.206951
H16   H     H_    0.687329 0.792338 0.730297 0.119703
H17   H     H_    0.728799 0.817245 0.275552 0.130449
H18   H     H_    0.755568 0.339389 0.286596 0.134494
H19   H     H_    0.846541 0.263799 0.281613 0.181411
H20   H     H_    0.704339 0.598614 0.536421 0.131699
H21   H     H_    0.723547 0.623534 0.353114 0.132728
H22   H     H_    0.223541 0.876469 0.646876 0.132723
H23   H     H_    0.787816 0.685607 0.730594 0.107781
H24   H     H_    0.204339 0.901388 0.463567 0.131694
H25   H     H_    0.346519 0.236182 0.718403 0.181416
H26   H     H_    0.255549 0.160589 0.713384 0.134486
H27   H     H_    0.112207 0.775232 0.631884 0.124654
H28   H     H_    0.101279 0.791901 0.444889 0.123226
H29   H     H_    0.255013 0.353464 0.695257 0.185418
H30   H     H_    0.165420 0.279073 0.724751 0.139802
H31   H     H_    0.665447 0.220900 0.275230 0.139806
H32   H     H_    0.755037 0.146515 0.304773 0.185428
H33   H     H_    0.601274 0.708097 0.555082 0.123228
H34   H     H_    0.851018 0.733467 0.285638 0.111957
H35   H     H_    0.612218 0.724774 0.368091 0.124655
H36   H     H_    0.057559 0.627846 0.124340 0.126785
H37   H     H_    0.057606 0.627726 0.879625 0.124094
H38   H     H_    0.922161 0.384983 0.119358 0.146832
H39   H     H_    0.922579 0.384655 0.877468 0.139533
H40   H     H_    0.422462 0.115267 0.122532 0.139536
H41   H     H_    0.422061 0.114949 0.880651 0.146777
H42   H     H_    0.557735 0.872332 0.120363 0.124121
H43   H     H_    0.557670 0.872201 0.875661 0.126835
H44   H     H_    0.939926 0.625524 0.124031 0.118127
H45   H     H_    0.351015 0.766540 0.714369 0.111966
H46   H     H_    0.939938 0.625453 0.879752 0.119181
H47   H     H_    0.861187 0.484742 0.123217 0.115993
H48   H     H_    0.861188 0.484251 0.876239 0.121357
H49   H     H_    0.361173 0.015611 0.123752 0.121334
H50   H     H_    0.361173 0.015140 0.876770 0.115994
H51   H     H_    0.440066 0.874486 0.120260 0.119181
H52   H     H_    0.440035 0.874424 0.875969 0.118113
H53   H     H_    0.141004 0.490092 0.122917 0.203874
H54   H     H_    0.141762 0.489712 0.876305 0.167073
H55   H     H_    0.082463 0.388007 0.117695 0.209000
H56   H     H_    0.287815 0.814388 0.269406 0.107785
H57   H     H_    0.084224 0.387886 0.877490 0.138281
H58   H     H_    0.584106 0.112195 0.122505 0.138252
H59   H     H_    0.582376 0.112058 0.882291 0.208983
H60   H     H_    0.641750 0.010429 0.123705 0.167075
H61   H     H_    0.640992 0.010013 0.877104 0.203904
H62   H     H_    0.401706 0.299803 0.492355 0.143352
H63   H     H_    0.207258 0.089613 0.469394 0.099365
H64   H     H_    0.742412 0.356058 0.688763 0.188434
N1    N     N_3   0.001260 0.500000 0.143650 -0.251475
N2    N     N_3   0.001260 0.500000 0.856350 -0.243483
N3    N     N_3   0.501260 0.000000 0.143650 -0.243478
N4    N     N_3   0.501260 0.000000 0.856350 -0.251471
O1    O     O_R   0.091250 0.408820 0.620260 -0.522181
O2    O     O_R   0.908940 0.408800 0.379740 -0.506043
O3    O     O_R   0.908940 0.591200 0.620260 -0.520818
O4    O     O_R   0.908940 0.591200 0.379740 -0.523900
O5    O     O_R   0.408940 0.908800 0.620260 -0.523900
O6    O     O_R   0.408940 0.908800 0.379740 -0.520817
O7    O     O_R   0.408940 0.091200 0.620260 -0.506036
O8    O     O_R   0.408940 0.091200 0.379740 -0.524667
O9    O     O_R   0.091250 0.408820 0.379740 -0.429193
O10   O     O_R   0.091250 0.591180 0.620260 -0.504653
O11   O     O_R   0.091250 0.591180 0.379740 -0.495617
O12   O     O_R   0.591250 0.908820 0.620260 -0.495606
O13   O     O_R   0.591250 0.908820 0.379740 -0.504661
O14   O     O_R   0.591250 0.091180 0.620260 -0.429202
O15   O     O_R   0.591250 0.091180 0.379740 -0.522183
O16   O     O_R   0.908940 0.408800 0.620260 -0.524669

loop_
_geom_bond_atom_site_label_1
_geom_bond_atom_site_label_2
_ccdc_geom_bond_type
C10   H6    S    
C47   C48   S    
C9    H5    S    
C43   H48   S    
C52   O2    A    
Cu4   O13   S    
C33   C34   S    
C11   H7    S    
C12   O11   A    
Cu2   O11   S    
C37   H29   S    
Br4   C17   S    
Cu1   O1    S    
Cu4   O6    S    
C44   H49   S    
C18   H14   S    
C23   C35   S    
C22   C27   S    
C17   H13   S    
Br8   C21   S    
C24   C28   S    
C42   N1    S    
Cu1   O16   S    
C2    O4    A    
C5    C27   S    
C19   H15   S    
C17   C32   S    
C41   H37   S    
C45   H53   S    
C34   O15   A    
C43   H39   S    
C22   H19   S    
C39   H35   S    
Cu2   O4    S    
C23   O12   A    
C3    C29   S    
C5    C18   S    
C5    H64   S    
C38   H31   S    
C33   C38   S    
C4    O8    A    
C8    H4    S    
C6    C19   S    
C13   H63   S    
Cu3   O14   S    
C36   H28   S    
Br1   C14   S    
C21   C35   S    
Cu3   O5    S    
Cu2   N1    S    
Br3   C16   S    
C24   H20   S    
C37   H30   S    
C43   N2    S    
C44   C46   S    
C51   H59   S    
C32   C37   S    
C40   H36   S    
C51   N4    S    
C50   H58   S    
C13   C30   S    
C13   H8    S    
C10   C15   S    
C12   O10   A    
C49   N2    S    
C2    O3    A    
C6    C27   S    
C12   C31   S    
C1    O9    A    
C48   H52   S    
C5    H1    S    
C47   H42   S    
C14   C31   S    
C50   C51   S    
C1    C32   S    
C25   C29   S    
Br7   C20   S    
Br5   C18   S    
C27   C52   S    
C6    H12   S    
C22   H18   S    
C25   H22   S    
C26   H26   S    
C48   H43   S    
C21   H17   S    
C11   C30   S    
C19   C33   S    
Br6   C19   S    
Cu4   N3    S    
C50   N3    S    
Cu3   O12   S    
C7    H3    S    
C42   C43   S    
C6    H2    S    
C4    O7    A    
C26   C37   S    
C9    C29   S    
Cu3   N4    S    
C48   N4    S    
C36   H27   S    
Cu1   N2    S    
C40   C41   S    
C42   H38   S    
C47   N3    S    
Cu4   O15   S    
C24   C39   S    
C40   N1    S    
C44   N3    S    
C45   N1    S    
C15   H10   S    
C34   O14   A    
C10   H56   S    
C7    C28   S    
Cu1   O3    S    
C7    H23   S    
Cu4   O8    S    
C13   C17   S    
C44   H40   S    
C45   C49   S    
C11   H62   S    
C46   H41   S    
C26   C30   S    
C25   C36   S    
Cu3   O7    S    
C25   H24   S    
C10   C29   S    
C9    H45   S    
C45   H55   S    
C16   H11   S    
C31   C36   S    
C52   O16   A    
C51   H61   S    
C46   N4    S    
C41   N2    S    
C20   C35   S    
C50   H60   S    
C9    C14   S    
C39   H33   S    
C22   C38   S    
C3    O6    A    
Cu2   O2    S    
C11   C16   S    
C3    O5    A    
C26   H25   S    
C8    C28   S    
C8    H34   S    
C7    C20   S    
C40   H44   S    
C47   H51   S    
C15   C31   S    
C24   H21   S    
C46   H50   S    
C42   H47   S    
C16   C32   S    
C4    C30   S    
Cu1   Cu2   S    
C20   H16   S    
C49   H57   S    
Cu3   Cu4   S    
C23   O13   A    
Cu1   O10   S    
C38   H32   S    
C8    C21   S    
Br2   C15   S    
C49   H54   S    
C2    C28   S    
Cu2   O9    S    
C14   H9    S    
C35   C39   S    
C18   C33   S    
C41   H46   S    
C1    O1    A    
