data_mof_unit_16104.cif
_audit_creation_date              2013-03-05T15:47:26-0500
_audit_creation_method            fapswitch 2.2
_symmetry_space_group_name_H-M    P1
_symmetry_Int_Tables_number       1
_space_group_crystal_system       triclinic
_cell_length_a                    17.958315
_cell_length_b                    18.909836
_cell_length_c                    11.751488
_cell_angle_alpha                 90.000412
_cell_angle_beta                  76.070061
_cell_angle_gamma                 90.00232
_cell_volume                      3873.31117326

loop_
_atom_site_label
_atom_site_type_symbol
_atom_site_description
_atom_site_fract_x
_atom_site_fract_y
_atom_site_fract_z
_atom_type_partial_charge
O1    O     O_R   0.430030 0.075530 0.417420 -0.559301
O2    O     O_R   0.569970 0.924470 0.582580 -0.595562
O3    O     O_R   0.569970 0.075530 0.582580 -0.559260
O4    O     O_R   0.430030 0.924470 0.417420 -0.595554
O5    O     O_R   0.930030 0.575530 0.417420 -0.559326
O6    O     O_R   0.069970 0.424470 0.582580 -0.595544
O7    O     O_R   0.069970 0.575530 0.582580 -0.559284
O8    O     O_R   0.930030 0.424470 0.417420 -0.595518
O9    O     O_R   0.416860 0.075510 0.614610 -0.534011
O10   O     O_R   0.583140 0.924490 0.385390 -0.559275
O11   O     O_R   0.583140 0.075510 0.385390 -0.534066
O12   O     O_R   0.416860 0.924490 0.614610 -0.559372
O13   O     O_R   0.916860 0.575510 0.614610 -0.533975
O14   O     O_R   0.083140 0.424490 0.385390 -0.559189
O15   O     O_R   0.083140 0.575510 0.385390 -0.534049
O16   O     O_R   0.916860 0.424490 0.614610 -0.559395
C1    C     C_R   0.399959 0.100837 0.521852 0.916426
C2    C     C_R   0.601043 0.900640 0.478796 0.906097
C3    C     C_R   0.600047 0.100833 0.478145 0.916133
C4    C     C_R   0.398955 0.900643 0.521206 0.906351
C5    C     C_R   0.899954 0.600834 0.521854 0.916416
C6    C     C_R   0.101047 0.400643 0.478796 0.905679
C7    C     C_R   0.100048 0.600834 0.478144 0.915878
C8    C     C_R   0.898956 0.400641 0.521205 0.906138
C9    C     C_R   0.409401 0.994285 0.864145 0.031371
C10   C     C_R   0.590603 0.994337 0.135851 0.031472
C11   C     C_R   0.909401 0.494286 0.864146 0.031425
C12   C     C_R   0.090604 0.494355 0.135850 0.031595
Cu1   Cu    Cu3+1 0.507800 1.000000 0.383250 1.093959
Cu2   Cu    Cu3+1 0.492200 1.000000 0.616750 1.093947
Cu3   Cu    Cu3+1 0.007800 0.500000 0.383250 1.093960
Cu4   Cu    Cu3+1 0.992200 0.500000 0.616750 1.093919
C13   C     C_R   0.398416 0.993076 0.986743 0.291706
C14   C     C_R   0.601590 0.993145 0.013252 0.291654
C15   C     C_R   0.898417 0.493075 0.986743 0.291701
C16   C     C_R   0.101591 0.493164 0.013250 0.291663
H1    H     H_    0.639424 0.989926 0.174186 0.217609
H2    H     H_    0.360582 0.989839 0.825808 0.217488
H3    H     H_    0.139425 0.489964 0.174184 0.217764
H4    H     H_    0.860583 0.489842 0.825809 0.217532
C17   C     C_R   0.544187 0.003482 0.839508 0.641361
C18   C     C_R   0.455812 0.003449 0.160488 0.641314
C19   C     C_R   0.044187 0.503486 0.839507 0.641511
C20   C     C_R   0.955811 0.503445 0.160488 0.641315
C21   C     C_R   0.655588 0.159423 0.463125 -0.307239
C22   C     C_R   0.335771 0.850747 0.532947 -0.314694
C23   C     C_R   0.344433 0.159435 0.536870 -0.307215
C24   C     C_R   0.664213 0.850729 0.467062 -0.314780
C25   C     C_R   0.155586 0.659428 0.463122 -0.307247
C26   C     C_R   0.835779 0.350737 0.532942 -0.314774
C27   C     C_R   0.844412 0.659421 0.536872 -0.307194
C28   C     C_R   0.164207 0.350720 0.467066 -0.314933
C29   C     C_R   0.204282 0.817393 0.624267 0.433614
C30   C     C_R   0.773350 0.213508 0.351130 0.429631
C31   C     C_R   0.795655 0.817309 0.375610 0.433578
C32   C     C_R   0.226798 0.213648 0.649018 0.429493
C33   C     C_R   0.704312 0.317354 0.624320 0.433590
C34   C     C_R   0.273368 0.713496 0.351156 0.429678
C35   C     C_R   0.295582 0.317202 0.375416 0.433521
C36   C     C_R   0.726680 0.713533 0.648904 0.429580
C37   C     C_R   0.266606 0.862784 0.617280 0.259692
C38   C     C_R   0.712641 0.166806 0.356956 0.288570
C39   C     C_R   0.733331 0.862688 0.382593 0.259859
C40   C     C_R   0.287455 0.166885 0.643104 0.288752
C41   C     C_R   0.766637 0.362738 0.617337 0.259783
C42   C     C_R   0.212645 0.666812 0.356958 0.288379
C43   C     C_R   0.233254 0.362568 0.382392 0.260076
C44   C     C_R   0.787375 0.666817 0.643054 0.288659
C45   C     C_R   0.341626 0.795312 0.451899 0.269351
C46   C     C_R   0.652700 0.208088 0.555333 0.273180
C47   C     C_R   0.658396 0.795358 0.548221 0.269522
C48   C     C_R   0.347267 0.208044 0.444602 0.273228
C49   C     C_R   0.841617 0.295333 0.451842 0.269433
C50   C     C_R   0.152690 0.708099 0.555326 0.273247
C51   C     C_R   0.158455 0.295449 0.548393 0.269727
C52   C     C_R   0.847286 0.708072 0.444649 0.273194
C53   C     C_R   0.275891 0.755768 0.449134 -0.184315
C54   C     C_R   0.710244 0.260326 0.544128 -0.190976
C55   C     C_R   0.724128 0.755793 0.550927 -0.184345
C56   C     C_R   0.289737 0.260294 0.455814 -0.191038
C57   C     C_R   0.775884 0.255779 0.449104 -0.184317
C58   C     C_R   0.210234 0.760339 0.544121 -0.190962
C59   C     C_R   0.224188 0.255864 0.551019 -0.184401
C60   C     C_R   0.789744 0.760312 0.455856 -0.190979
N1    N     N_R   0.519530 1.000000 0.207810 -0.268047
N2    N     N_R   0.480470 1.000000 0.792190 -0.267966
N3    N     N_R   0.019530 0.500000 0.207810 -0.268062
N4    N     N_R   0.980470 0.500000 0.792190 -0.267939
C61   C     C_R   0.536983 0.997695 0.962526 -0.174754
C62   C     C_R   0.463021 0.997668 0.037469 -0.174669
C63   C     C_R   0.036984 0.497702 0.962525 -0.174757
C64   C     C_R   0.963022 0.497668 0.037469 -0.174657
O17   O     O_3   0.384413 0.019565 0.229163 -0.637130
H5    H     H_    0.378511 0.996841 0.305538 0.364983
O18   O     O_3   0.615574 0.019629 0.770823 -0.637216
H6    H     H_    0.621502 0.996839 0.694492 0.364926
O19   O     O_3   0.884412 0.519561 0.229163 -0.637236
H7    H     H_    0.878512 0.496840 0.305541 0.364982
O20   O     O_3   0.115572 0.519636 0.770819 -0.637302
H8    H     H_    0.121503 0.496836 0.694495 0.364885
N5    N     N_R   0.593079 0.202679 0.661323 0.161193
O21   O     O_R   0.610447 0.191262 0.761057 -0.208668
O22   O     O_R   0.521473 0.209850 0.658395 -0.311963
N6    N     N_R   0.415781 0.772354 0.385022 0.152434
O23   O     O_R   0.439887 0.709331 0.402446 -0.217577
O24   O     O_R   0.453905 0.809104 0.296395 -0.307193
N7    N     N_R   0.406812 0.202559 0.338537 0.161142
O25   O     O_R   0.389352 0.190969 0.238916 -0.208647
O26   O     O_R   0.478441 0.209801 0.341288 -0.311807
N8    N     N_R   0.584258 0.772471 0.615272 0.152521
O27   O     O_R   0.560023 0.709491 0.597886 -0.217553
O28   O     O_R   0.546282 0.809239 0.703992 -0.307218
N9    N     N_R   0.093060 0.702700 0.661307 0.161198
O29   O     O_R   0.110418 0.691328 0.761060 -0.208726
O30   O     O_R   0.021456 0.709851 0.658354 -0.311909
N10   N     N_R   0.915764 0.272412 0.384883 0.152458
O31   O     O_R   0.939935 0.209413 0.402299 -0.217632
O32   O     O_R   0.953816 0.309168 0.296207 -0.307105
N11   N     N_R   0.906887 0.702647 0.338640 0.161155
O33   O     O_R   0.889496 0.691180 0.238935 -0.208712
O34   O     O_R   0.978498 0.709842 0.341522 -0.311818
N12   N     N_R   0.084348 0.272656 0.615695 0.152645
O35   O     O_R   0.059947 0.209731 0.598368 -0.217681
O36   O     O_R   0.046576 0.309443 0.704545 -0.307125
N13   N     N_R   0.707802 0.130446 0.251623 0.175215
O37   O     O_R   0.766301 0.094289 0.193415 -0.165789
O38   O     O_R   0.655236 0.149359 0.198452 -0.262235
N14   N     N_R   0.256560 0.925216 0.688649 0.157667
O39   O     O_R   0.266009 0.987008 0.638733 -0.359435
O40   O     O_R   0.227285 0.920932 0.801046 -0.195067
N15   N     N_R   0.292303 0.130500 0.748408 0.175263
O41   O     O_R   0.233817 0.094304 0.806566 -0.165933
O42   O     O_R   0.344858 0.149411 0.801603 -0.262057
N16   N     N_R   0.743342 0.925046 0.311064 0.157714
O43   O     O_R   0.734140 0.986888 0.360819 -0.359076
O44   O     O_R   0.772353 0.920631 0.198612 -0.195452
N17   N     N_R   0.207784 0.630488 0.251600 0.175189
O45   O     O_R   0.266292 0.594380 0.193294 -0.165806
O46   O     O_R   0.155177 0.649402 0.198511 -0.262194
N18   N     N_R   0.756607 0.425137 0.688777 0.157691
O47   O     O_R   0.765940 0.486950 0.638929 -0.359292
O48   O     O_R   0.727456 0.420794 0.801199 -0.195260
N19   N     N_R   0.792212 0.630445 0.748377 0.175250
O49   O     O_R   0.733715 0.594270 0.806556 -0.165833
O50   O     O_R   0.844769 0.649356 0.801566 -0.262166
N20   N     N_R   0.243202 0.424806 0.310595 0.157760
O51   O     O_R   0.234267 0.486731 0.360080 -0.358602
O52   O     O_R   0.271898 0.420190 0.198089 -0.195915
O53   O     O_3   0.635987 0.335620 0.700704 -0.570827
H9    H     H_    0.595453 0.332760 0.656635 0.362312
O54   O     O_3   0.325341 0.721488 0.244398 -0.574039
H10   H     H_    0.335604 0.772753 0.231988 0.369494
O55   O     O_3   0.363830 0.335367 0.298741 -0.570766
H11   H     H_    0.404446 0.332637 0.342672 0.362349
O56   O     O_3   0.674756 0.721551 0.755698 -0.574020
H12   H     H_    0.664592 0.772828 0.768139 0.369514
O57   O     O_3   0.135940 0.835681 0.700587 -0.570841
H13   H     H_    0.095423 0.832783 0.656491 0.362305
O58   O     O_3   0.825303 0.221508 0.244357 -0.573995
H14   H     H_    0.835516 0.272779 0.231923 0.369526
O59   O     O_3   0.863959 0.835550 0.299148 -0.570803
H15   H     H_    0.904514 0.832727 0.343181 0.362329
O60   O     O_3   0.174965 0.221742 0.755875 -0.573950
H16   H     H_    0.164932 0.273039 0.768307 0.369608
N21   N     N_R   0.322148 0.980988 0.056468 0.189279
O61   O     O_R   0.264603 0.014766 0.032709 -0.196178
O62   O     O_R   0.308503 0.926559 0.126202 -0.291204
N22   N     N_R   0.677868 0.981123 0.943522 0.189316
O63   O     O_R   0.735380 0.014963 0.967274 -0.196126
O64   O     O_R   0.691565 0.926696 0.873789 -0.291148
N23   N     N_R   0.822149 0.480988 0.056468 0.189292
O65   O     O_R   0.764605 0.514775 0.032719 -0.196213
O66   O     O_R   0.808501 0.426555 0.126192 -0.291168
N24   N     N_R   0.177872 0.481158 0.943520 0.189391
O67   O     O_R   0.235374 0.515020 0.967261 -0.196062
O68   O     O_R   0.191586 0.426727 0.873798 -0.291103

loop_
_geom_bond_atom_site_label_1
_geom_bond_atom_site_label_2
_geom_bond_distance
_ccdc_geom_bond_type
O6    Cu4   1.970242 S    
N23   O65   1.301106 A    
C36   C55   1.411309 A    
C16   N24   1.434970 S    
O57   H13   0.991207 S    
C46   C54   1.412605 A    
C51   N12   1.440685 S    
C15   N23   1.434982 S    
C45   C53   1.404324 A    
O13   Cu4   1.971439 S    
C17   C61   1.424263 A    
O18   H6    0.977593 S    
C54   C57   1.417792 A    
C5    C27   1.472666 S    
O14   Cu3   1.971439 S    
C28   C51   1.403176 A    
N14   O39   1.300108 A    
C52   C60   1.412640 A    
N6    O24   1.301178 A    
O19   H7    0.977567 S    
C35   O55   1.378513 S    
C46   N5    1.437395 S    
N21   O61   1.301102 A    
C17   N2    1.388955 A    
N17   O46   1.301335 A    
C32   O60   1.379844 S    
O11   C3    1.291877 A    
O17   H5    0.977567 S    
C49   N10   1.440717 S    
C19   N4    1.388948 A    
C19   O20   1.374761 S    
N20   O51   1.300081 A    
C55   C60   1.417809 A    
C7    C25   1.472653 S    
O2    C2    1.293926 A    
C48   N7    1.437380 S    
N14   O40   1.301237 A    
N19   O49   1.301175 A    
C18   O17   1.374783 S    
C47   N8    1.440700 S    
C21   C38   1.417882 A    
N10   O31   1.300883 A    
C44   N19   1.436758 S    
N8    O27   1.300886 A    
C22   C45   1.403149 A    
C34   C53   1.411310 A    
C35   C43   1.396922 A    
C30   O58   1.379890 S    
N24   O67   1.301097 A    
C41   N18   1.434128 S    
C29   C37   1.397076 A    
C34   C42   1.391852 A    
O60   H16   0.990993 S    
C33   O53   1.378519 S    
O54   H10   0.990976 S    
C32   C40   1.391754 A    
O3    C3    1.306790 A    
Cu2   N2    2.021338 S    
C20   N3    1.388977 A    
Cu1   N1    2.021337 S    
O4    Cu1   1.970164 S    
C20   C64   1.424255 A    
C15   C64   1.428955 A    
O15   C7    1.291877 A    
O16   C8    1.296720 A    
N7    O26   1.301720 A    
N21   O62   1.301632 A    
C12   N3    1.354972 A    
C56   C59   1.417862 A    
C14   N22   1.434973 S    
C49   C57   1.404341 A    
N6    O23   1.300887 A    
N5    O21   1.301359 A    
C10   C14   1.406511 A    
O59   H15   0.991201 S    
N20   O52   1.301208 A    
N12   O35   1.300884 A    
N11   O34   1.301720 A    
C8    C26   1.456474 S    
C52   N11   1.437388 S    
Cu3   N3    2.021337 S    
C25   C42   1.417903 A    
C22   C37   1.408582 A    
C39   N16   1.434083 S    
N18   O47   1.300094 A    
C31   O59   1.378516 S    
C26   C49   1.403150 A    
C23   C40   1.417861 A    
C24   C39   1.408513 A    
N16   O44   1.301241 A    
C30   C38   1.391816 A    
C12   H3    1.081051 S    
C11   C15   1.406495 A    
C50   N9    1.437399 S    
C19   C63   1.424263 A    
C47   C55   1.404395 A    
C31   C39   1.397005 A    
C29   C58   1.419164 A    
C18   C62   1.424254 A    
O3    Cu2   1.970163 S    
Cu1   Cu2   2.690307 S    
C9    H2    1.081105 S    
N23   O66   1.301628 A    
C20   O19   1.374787 S    
O58   H14   0.990978 S    
C40   N15   1.436732 S    
C11   H4    1.081096 S    
N7    O25   1.301381 A    
O12   C4    1.296712 A    
C43   N20   1.433987 S    
O1    Cu1   1.970241 S    
O13   C5    1.291895 A    
C18   N1    1.388978 A    
C27   C52   1.413027 A    
O11   Cu1   1.971358 S    
C28   C43   1.408461 A    
O9    Cu2   1.971439 S    
C16   C63   1.428944 A    
O9    C1    1.291891 A    
N22   O63   1.301097 A    
N13   O37   1.301191 A    
Cu4   N4    2.021338 S    
C24   C47   1.403169 A    
N12   O36   1.301241 A    
N15   O41   1.301175 A    
C61   C62   1.405921 A    
C63   C64   1.405924 A    
C34   O54   1.379905 S    
C32   C59   1.411289 A    
C6    C28   1.456558 S    
N9    O29   1.301354 A    
C50   C58   1.412612 A    
C45   N6    1.440730 S    
N19   O50   1.301328 A    
O7    Cu4   1.970163 S    
O12   Cu2   1.971361 S    
C21   C46   1.413020 A    
O8    Cu3   1.970164 S    
C29   O57   1.378524 S    
C33   C54   1.419156 A    
Cu3   Cu4   2.690307 S    
C13   N21   1.434983 S    
C1    C23   1.472636 S    
C33   C41   1.397025 A    
N15   O42   1.301325 A    
C2    C24   1.456543 S    
C35   C56   1.419132 A    
C38   N13   1.436763 S    
N11   O33   1.301371 A    
C3    C21   1.472621 S    
C10   H1    1.081082 S    
O15   Cu3   1.971358 S    
N16   O43   1.300067 A    
N18   O48   1.301218 A    
O16   Cu4   1.971361 S    
N17   O45   1.301195 A    
O1    C1    1.306777 A    
O20   H8    0.977597 S    
O2    Cu2   1.970242 S    
C36   C44   1.391819 A    
O14   C6    1.296763 A    
C31   C60   1.419148 A    
C14   C61   1.428952 A    
C48   C56   1.412621 A    
C13   C62   1.428958 A    
O10   Cu1   1.971439 S    
C51   C59   1.404404 A    
C17   O18   1.374762 S    
C42   N17   1.436782 S    
C53   C58   1.417761 A    
O10   C2    1.296751 A    
C10   N1    1.354981 A    
O7    C7    1.306806 A    
N22   O64   1.301637 A    
C9    N2    1.354978 A    
O8    C8    1.293922 A    
N24   O68   1.301637 A    
N10   O32   1.301199 A    
C37   N14   1.434174 S    
C27   C44   1.417876 A    
C11   N4    1.354973 A    
C26   C41   1.408541 A    
N8    O28   1.301224 A    
C23   C48   1.413028 A    
C36   O56   1.379875 S    
O4    C4    1.293928 A    
O5    C5    1.306789 A    
C12   C16   1.406506 A    
N5    O22   1.301728 A    
O56   H12   0.990987 S    
N13   O38   1.301329 A    
C25   C50   1.413033 A    
N9    O30   1.301729 A    
O55   H11   0.991206 S    
O53   H9    0.991207 S    
C30   C57   1.411308 A    
C4    C22   1.456468 S    
C9    C13   1.406502 A    
O5    Cu3   1.970241 S    
O6    C6    1.293921 A    
