data_mof_unit_43715.cif
_audit_creation_date              2012-12-10T21:27:27-0500
_audit_creation_method            fapswitch 2.2
_symmetry_space_group_name_H-M    P1
_symmetry_Int_Tables_number       1
_space_group_crystal_system       triclinic
_cell_length_a                    10.793469
_cell_length_b                    16.126971
_cell_length_c                    16.862939
_cell_angle_alpha                 87.52595
_cell_angle_beta                  91.058201
_cell_angle_gamma                 106.369701
_cell_volume                      2813.59140749

loop_
_atom_site_label
_atom_site_type_symbol
_atom_type_description
_atom_site_fract_x
_atom_site_fract_y
_atom_site_fract_z
_atom_type_partial_charge
C1    C     C_R   0.496679 0.488152 0.652843 0.884377
C2    C     C_R   0.503239 0.511836 0.347156 0.877438
C3    C     C_R   0.500377 0.404178 0.778686 -0.269379
C4    C     C_R   0.498101 0.595518 0.221347 -0.269350
C5    C     C_R   0.482737 0.760129 0.443692 -0.068943
C6    C     C_R   0.515746 0.239562 0.556571 -0.064662
C7    C     C_R   0.471647 0.845177 0.445733 -0.088839
C8    C     C_R   0.526809 0.154499 0.554641 -0.089830
C9    C     C_R   0.496890 0.888990 0.518365 0.273873
C10   C     C_R   0.503063 0.110953 0.481823 0.273406
C11   C     C_R   0.530740 0.844748 0.584998 -0.314079
C12   C     C_R   0.470664 0.155492 0.414931 -0.313885
C13   C     C_R   0.540304 0.760269 0.579601 -0.017075
C14   C     C_R   0.461143 0.239994 0.420222 -0.021116
C15   C     C_R   0.743682 0.535949 0.499120 0.951112
C16   C     C_R   0.256380 0.464528 0.495945 0.951735
C17   C     C_2   0.881465 0.557206 0.490142 -0.376787
C18   C     C_2   0.118828 0.445173 0.485214 -0.377015
C19   C     C_2   0.931860 0.495013 0.469513 -0.151469
C20   C     C_2   0.068853 0.510759 0.470150 -0.152887
C21   C     C_R   0.485181 0.478553 0.738385 -0.042993
C22   C     C_R   0.514174 0.521358 0.261598 -0.039264
C23   C     C_R   0.455535 0.543472 0.779888 -0.237727
C24   C     C_R   0.543845 0.456512 0.220005 -0.238037
C25   C     C_R   0.447325 0.536420 0.861387 -0.178708
C26   C     C_R   0.551241 0.463421 0.138471 -0.178705
C27   C     C_R   0.471298 0.464852 0.902941 0.270466
C28   C     C_R   0.526488 0.534783 0.097003 0.270607
C29   C     C_R   0.492745 0.396289 0.861361 0.001257
C30   C     C_R   0.504946 0.603271 0.138649 0.000938
H1    H     H_    0.128621 0.577518 0.465043 0.188205
H2    H     H_    0.872286 0.429745 0.458730 0.189470
H3    H     H_    0.564755 0.727023 0.631997 0.137775
H4    H     H_    0.437862 0.273444 0.367617 0.138678
H5    H     H_    0.058680 0.378608 0.490600 0.152276
H6    H     H_    0.941412 0.622227 0.501208 0.152425
H7    H     H_    0.560495 0.399978 0.250346 0.160340
H8    H     H_    0.439520 0.600178 0.749509 0.161397
H9    H     H_    0.572787 0.411677 0.107538 0.163586
H10   H     H_    0.425865 0.588245 0.892239 0.163635
H11   H     H_    0.519313 0.352707 0.745951 0.154514
H12   H     H_    0.479055 0.646914 0.254142 0.154254
H13   H     H_    0.537886 0.274252 0.610878 0.138864
H14   H     H_    0.459413 0.725191 0.389572 0.137677
H15   H     H_    0.548943 0.875664 0.641480 0.166390
H16   H     H_    0.453571 0.124785 0.358323 0.166577
N1    N     N_2   0.481747 0.463059 0.986230 -0.203302
N2    N     N_2   0.515773 0.536547 0.013734 -0.203395
N3    N     N_R   0.515370 0.719110 0.509820 -0.089003
N4    N     N_R   0.484630 0.280890 0.490180 -0.089659
N5    N     N_2   0.482959 0.973783 0.529023 -0.174896
N6    N     N_2   0.516978 0.026131 0.471239 -0.174814
O1    O     O_R   0.494500 0.421750 0.612630 -0.630907
O2    O     O_R   0.505500 0.578250 0.387370 -0.633805
O3    O     O_R   0.504370 0.562470 0.618930 -0.630212
O4    O     O_R   0.495630 0.437530 0.381070 -0.633368
O5    O     O_R   0.679100 0.455920 0.498020 -0.613465
O6    O     O_R   0.320900 0.544080 0.501980 -0.613089
O7    O     O_R   0.688960 0.596630 0.504320 -0.609827
O8    O     O_R   0.311040 0.403370 0.495680 -0.609773
Zn1   Zn    Zn3+2 0.493410 0.406040 0.495790 0.939285
Zn2   Zn    Zn3+2 0.506590 0.593960 0.504210 0.939729
C31   C     C_R   0.512684 0.318021 0.903275 0.117548
C32   C     C_R   0.617761 0.287405 0.883878 -0.151212
C33   C     C_R   0.635900 0.213393 0.922899 -0.133582
C34   C     C_R   0.549107 0.168928 0.981159 -0.134010
C35   C     C_R   0.444078 0.198485 0.000604 -0.150052
C36   C     C_R   0.425626 0.272565 0.961848 -0.141455
H17   H     H_    0.686301 0.321191 0.839072 0.129353
H18   H     H_    0.717095 0.190336 0.907755 0.132415
H19   H     H_    0.563043 0.111453 0.011079 0.118722
H20   H     H_    0.376619 0.163788 0.045545 0.124732
H21   H     H_    0.342726 0.293871 0.976944 0.132957
C37   C     C_R   0.484086 0.681301 0.096802 0.117972
C38   C     C_R   0.378741 0.711500 0.116492 -0.151417
C39   C     C_R   0.359702 0.785278 0.077519 -0.134123
C40   C     C_R   0.445859 0.829924 0.019018 -0.133717
C41   C     C_R   0.551155 0.800787 0.999286 -0.150018
C42   C     C_R   0.570505 0.726941 0.037993 -0.141585
H22   H     H_    0.310689 0.677566 0.161490 0.129138
H23   H     H_    0.278309 0.808016 0.092890 0.132464
H24   H     H_    0.431228 0.887218 0.989133 0.118717
H25   H     H_    0.618122 0.835626 0.954159 0.124620
H26   H     H_    0.653598 0.705960 0.022671 0.132940
C43   C     C_R   0.570833 0.116754 0.627748 0.130578
C44   C     C_R   0.499591 0.107652 0.698083 -0.161360
C45   C     C_R   0.541015 0.072328 0.767319 -0.128225
C46   C     C_R   0.654468 0.046832 0.767126 -0.137144
C47   C     C_R   0.726809 0.056727 0.697680 -0.156238
C48   C     C_R   0.685565 0.091822 0.628220 -0.115727
H27   H     H_    0.411516 0.127199 0.699064 0.125906
H28   H     H_    0.485177 0.064780 0.821154 0.138272
H29   H     H_    0.686448 0.019612 0.820833 0.118487
H30   H     H_    0.814871 0.037203 0.697663 0.130467
H31   H     H_    0.742713 0.099463 0.574870 0.130088
C49   C     C_R   0.426091 0.882686 0.373015 0.129685
C50   C     C_R   0.311606 0.907860 0.373566 -0.117005
C51   C     C_R   0.268986 0.942821 0.304493 -0.154701
C52   C     C_R   0.339697 0.952353 0.234420 -0.137244
C53   C     C_R   0.452893 0.926628 0.233216 -0.129548
C54   C     C_R   0.495679 0.891424 0.302061 -0.161030
H32   H     H_    0.255705 0.900506 0.427408 0.130248
H33   H     H_    0.181123 0.962526 0.305292 0.130612
H34   H     H_    0.306662 0.979482 0.181017 0.118674
H35   H     H_    0.507498 0.933930 0.178909 0.138502
H36   H     H_    0.583552 0.871713 0.300295 0.126272

loop_
_geom_bond_atom_site_label_1
_geom_bond_atom_site_label_2
_ccdc_geom_bond_type
O6    Zn2   S    
C45   C46   A    
C29   C31   S    
C1    C21   S    
C27   C29   A    
C19   C20   S    
C9    N5    S    
C10   N6    S    
C50   C51   A    
C48   H31   S    
C40   C41   A    
C7    C49   S    
C53   H35   S    
C24   C26   A    
C8    C43   S    
C44   H27   S    
C25   H10   S    
C42   H26   S    
C30   C37   S    
C26   H9    S    
C51   H33   S    
O3    Zn2   S    
C7    C9    A    
C35   H20   S    
C16   O8    A    
C47   H30   S    
C3    C29   A    
C1    O1    A    
C46   H29   S    
O1    Zn1   S    
C41   H25   S    
C28   N2    S    
C34   H19   S    
C2    C22   S    
C17   H6    S    
C18   H5    S    
C50   H32   S    
C34   C35   A    
C49   C54   A    
C15   O5    A    
C5    N3    A    
C19   H2    S    
C37   C38   A    
N5    N6    D    
N1    N2    D    
C39   C40   A    
C12   H16   S    
C2    O2    A    
C5    C7    A    
C44   C45   A    
C6    C8    A    
O2    Zn2   S    
C36   H21   S    
C43   C44   A    
C35   C36   A    
O8    Zn1   S    
C38   C39   A    
C13   H3    S    
C4    C22   A    
C52   C53   A    
C49   C50   A    
C24   H7    S    
C16   O6    A    
C32   H17   S    
C6    N4    A    
C9    C11   A    
C10   C12   A    
C13   N3    A    
C8    C10   A    
C5    H14   S    
C12   C14   A    
C51   C52   A    
C37   C42   A    
C21   C23   A    
C22   C24   A    
C11   H15   S    
C38   H22   S    
C27   N1    S    
C54   H36   S    
C15   C17   S    
C31   C36   A    
C3    H11   S    
O7    Zn2   S    
N3    Zn2   S    
C41   C42   A    
C15   O7    A    
C39   H23   S    
C14   H4    S    
C43   C48   A    
O5    Zn1   S    
C25   C27   A    
C23   H8    S    
C26   C28   A    
C6    H13   S    
C32   C33   A    
C28   C30   A    
C1    O3    A    
C2    O4    A    
C11   C13   A    
C14   N4    A    
C4    H12   S    
C40   H24   S    
C53   C54   A    
C17   C19   D    
C52   H34   S    
C18   C20   D    
C23   C25   A    
C3    C21   A    
C31   C32   A    
C46   C47   A    
C16   C18   S    
C33   C34   A    
N4    Zn1   S    
O4    Zn1   S    
C47   C48   A    
C45   H28   S    
C4    C30   A    
C33   H18   S    
C20   H1    S    
