data_mof_unit_24310.cif
_audit_creation_date              2012-10-26T19:03:30-0400
_audit_creation_method            fapswitch 2.2
_symmetry_space_group_name_H-M    P1
_symmetry_Int_Tables_number       1
_space_group_crystal_system       triclinic
_cell_length_a                    10.768964
_cell_length_b                    12.995232
_cell_length_c                    11.671741
_cell_angle_alpha                 99.769891
_cell_angle_beta                  93.845198
_cell_angle_gamma                 90.519505
_cell_volume                      1605.74409761

loop_
_atom_site_label
_atom_site_type_symbol
_atom_type_description
_atom_site_fract_x
_atom_site_fract_y
_atom_site_fract_z
_atom_type_partial_charge
C1    C     C_R   0.498260 0.299043 0.478671 0.551981
C2    C     C_R   0.497773 0.123294 0.355547 -0.140149
C3    C     C_R   0.497887 0.139091 0.566118 -0.130579
C4    C     C_R   0.262547 0.503180 0.500560 0.540711
C5    C     C_R   0.498663 0.031044 0.555854 0.049617
C6    C     C_R   0.499270 0.968649 0.444190 0.049342
C7    C     C_R   0.500507 0.860660 0.433918 -0.128352
C8    C     C_R   0.500369 0.876345 0.644479 -0.150649
C9    C     C_R   0.499078 0.984447 0.655493 -0.143976
C10   C     C_R   0.404794 0.388135 0.020350 -0.174895
C11   C     C_R   0.410760 0.399966 0.142440 0.044889
C12   C     C_R   0.072874 0.592135 0.575954 0.011270
C13   C     C_R   0.537354 0.552323 0.158873 0.040993
C14   C     C_R   0.533556 0.544786 0.035293 0.005165
C15   C     C_R   0.466762 0.460114 0.965789 -0.002922
C16   C     C_R   0.501409 0.700894 0.521341 0.533545
C17   C     C_R   0.462572 0.449394 0.842995 0.039037
C18   C     C_R   0.587530 0.602071 0.855521 0.057992
C19   C     C_R   0.593763 0.618685 0.979310 -0.045304
C20   C     C_R   0.737558 0.505243 0.500413 0.543821
C21   C     C_R   0.143895 0.673949 0.646600 -0.093289
C22   C     C_R   0.087244 0.752475 0.721451 0.011937
C23   C     C_R   0.129131 0.511292 0.501397 0.003275
C24   C     C_R   0.957381 0.752661 0.721723 -0.119144
C25   C     C_R   0.885289 0.674694 0.649364 -0.124905
C26   C     C_R   0.941793 0.592705 0.576596 0.021093
C27   C     C_3   0.660963 0.714071 0.052260 -0.278001
C28   C     C_3   0.715008 0.793133 0.983800 -0.310042
C29   C     C_3   0.774959 0.887028 0.065865 -0.448204
C30   C     C_3   0.166155 0.837353 0.797872 -0.261040
C31   C     C_3   0.249225 0.792817 0.889158 -0.291112
C32   C     C_3   0.329749 0.878312 0.965922 -0.459276
C33   C     C_R   0.057389 0.436634 0.424342 -0.152968
C34   C     C_R   0.929470 0.437620 0.423965 -0.151954
C35   C     C_R   0.871446 0.512976 0.501017 0.004747
C36   C     C_R   0.501018 0.814190 0.533706 0.000407
C37   C     C_R   0.497745 0.185594 0.466334 -0.000122
C38   C     C_R   0.498647 0.015169 0.344533 -0.142316
Cu1   Cu    Cu3+1 0.509250 0.507730 0.615930 0.914668
Cu2   Cu    Cu3+1 0.490750 0.492270 0.384070 0.928224
H1    H     H_    0.100893 0.375760 0.366000 0.121187
H2    H     H_    0.243708 0.679199 0.643072 0.138520
H3    H     H_    0.911411 0.814249 0.776674 0.099288
H4    H     H_    0.785317 0.680781 0.649852 0.127658
H5    H     H_    0.875426 0.377374 0.365402 0.128413
H6    H     H_    0.501236 0.813046 0.348107 0.112444
H7    H     H_    0.500452 0.841509 0.722469 0.118802
H8    H     H_    0.498999 0.968091 0.258458 0.094722
H9    H     H_    0.704668 0.928232 0.121359 0.150263
H10   H     H_    0.851730 0.861533 0.122363 0.157172
H11   H     H_    0.813859 0.942281 0.014021 0.138545
H12   H     H_    0.498419 0.031432 0.741560 0.097687
H13   H     H_    0.787204 0.755186 0.928221 0.157501
H14   H     H_    0.639709 0.821630 0.927895 0.150356
H15   H     H_    0.593860 0.755892 0.111180 0.131404
H16   H     H_    0.738241 0.686595 0.106776 0.146481
H17   H     H_    0.391254 0.916356 0.912053 0.142795
H18   H     H_    0.270264 0.938074 0.013638 0.151021
H19   H     H_    0.388938 0.843571 0.030446 0.142595
H20   H     H_    0.189992 0.754949 0.945196 0.170859
H21   H     H_    0.311699 0.733045 0.845574 0.172211
H22   H     H_    0.225070 0.875728 0.741977 0.146349
H23   H     H_    0.497673 0.158011 0.277478 0.124892
H24   H     H_    0.106107 0.898146 0.843383 0.137601
H25   H     H_    0.497454 0.186742 0.651912 0.116422
H26   H     H_    0.409833 0.385427 0.789434 0.119514
H27   H     H_    0.632856 0.655514 0.809689 0.123410
H28   H     H_    0.352282 0.322794 0.968934 0.082995
H29   H     H_    0.362974 0.343762 0.183282 0.120318
H30   H     H_    0.589723 0.614492 0.215303 0.115482
N1    N     N_R   0.523180 0.519350 0.790130 -0.242998
N2    N     N_R   0.476820 0.480650 0.209890 -0.227983
O1    O     O_R   0.506570 0.354460 0.582000 -0.505962
O2    O     O_R   0.490940 0.341410 0.386200 -0.511933
O3    O     O_R   0.327470 0.506530 0.597920 -0.508307
O4    O     O_R   0.311840 0.493480 0.402120 -0.497229
O5    O     O_R   0.509060 0.658590 0.613800 -0.533494
O6    O     O_R   0.493430 0.645540 0.418000 -0.511780
O7    O     O_R   0.688160 0.506520 0.597880 -0.500009
O8    O     O_R   0.672530 0.493470 0.402080 -0.500729

loop_
_geom_bond_atom_site_label_1
_geom_bond_atom_site_label_2
_ccdc_geom_bond_type
C30   H24   S    
C7    C36   A    
C31   H21   S    
C32   H18   S    
C29   H9    S    
C12   C23   A    
C17   H26   S    
C1    O2    A    
Cu1   O5    S    
C28   C29   S    
C16   O5    A    
C10   C15   A    
C30   C31   S    
C27   H15   S    
C13   H30   S    
C34   C35   A    
C8    C36   A    
C4    O3    A    
C20   C35   S    
C8    C9    A    
C23   C33   A    
C6    C38   A    
Cu1   O3    S    
C19   C27   S    
C38   H8    S    
C1    C37   S    
Cu2   N2    S    
C13   C14   A    
C3    H25   S    
C9    H12   S    
C32   H17   S    
C25   H4    S    
C29   H10   S    
C20   O8    A    
C7    H6    S    
C24   C25   A    
Cu1   Cu2   S    
C4    C23   S    
C28   H14   S    
C27   H16   S    
C18   C19   A    
C18   H27   S    
C12   C21   A    
Cu2   O4    S    
C12   C26   A    
Cu1   O7    S    
C31   H20   S    
C5    C9    A    
C2    C38   A    
C31   C32   S    
Cu2   O8    S    
C33   C34   A    
C34   H5    S    
C17   N1    A    
C30   H22   S    
Cu2   O6    S    
C2    H23   S    
C16   O6    A    
C29   H11   S    
C18   N1    A    
C15   C17   A    
C22   C30   S    
C20   O7    A    
C11   N2    A    
C14   C19   A    
C3    C5    A    
C28   H13   S    
C11   H29   S    
C6    C7    A    
C13   N2    A    
C10   H28   S    
C1    O1    A    
C25   C26   A    
C8    H7    S    
C33   H1    S    
C16   C36   S    
C2    C37   A    
C5    C6    A    
Cu2   O2    S    
C22   C24   A    
Cu1   O1    S    
C4    O4    A    
C10   C11   A    
C21   H2    S    
C26   C35   A    
C3    C37   A    
C27   C28   S    
C24   H3    S    
Cu1   N1    S    
C14   C15   A    
C32   H19   S    
C21   C22   A    
