data_mof_unit_61834.cif
_audit_creation_date              2012-12-10T20:05:39-0500
_audit_creation_method            fapswitch 2.2
_symmetry_space_group_name_H-M    P1
_symmetry_Int_Tables_number       1
_space_group_crystal_system       triclinic
_cell_length_a                    27.741068
_cell_length_b                    27.664226
_cell_length_c                    27.782758
_cell_angle_alpha                 109.280143
_cell_angle_beta                  109.692102
_cell_angle_gamma                 109.218939
_cell_volume                      16457.9337259

loop_
_atom_site_label
_atom_site_type_symbol
_atom_type_description
_atom_site_fract_x
_atom_site_fract_y
_atom_site_fract_z
_atom_type_partial_charge
C1    C     C_R   0.919247 0.919274 0.499903 0.907770
C2    C     C_R   0.707556 0.706573 0.500893 0.132375
C3    C     C_R   0.692189 0.726374 0.461053 -0.186607
C4    C     C_R   0.919004 0.000009 0.419013 0.909598
C5    C     C_R   0.736028 0.769640 0.461617 -0.204792
C6    C     C_R   0.795318 0.793209 0.501992 0.122012
C7    C     C_R   0.811752 0.773649 0.542739 0.108571
C8    C     C_1   0.662461 0.662173 0.500220 -0.061983
C9    C     C_1   0.838784 0.837699 0.500871 -0.083883
C10   C     C_1   0.875447 0.874993 0.500254 -0.185970
C11   C     C_1   0.624849 0.624895 0.499918 -0.184236
C12   C     C_3   0.792117 0.000162 0.292593 0.115843
C13   C     C_R   0.306713 0.012880 0.752553 0.363585
C14   C     C_R   0.296315 0.001594 0.794901 -0.011758
C15   C     C_R   0.242638 0.989966 0.793281 -0.258106
C16   C     C_R   0.080711 0.080719 0.500057 0.904778
C17   C     C_R   0.199039 0.989753 0.749631 -0.259396
C18   C     C_R   0.209260 0.001887 0.707904 -0.011264
C19   C     C_R   0.263572 0.015024 0.709903 0.362434
C20   C     C_1   0.340348 0.001129 0.839777 0.025431
C21   C     C_1   0.163802 0.000981 0.663139 0.026753
C22   C     C_1   0.125881 0.000397 0.625577 -0.184619
C23   C     C_3   0.772815 0.017652 0.219783 -0.238823
C24   C     C_1   0.377382 0.000650 0.877199 -0.184036
C25   C     C_R   0.251553 0.243298 0.451442 -0.208766
C26   C     C_R   0.296356 0.294634 0.504346 0.075620
C27   C     C_R   0.299126 0.302681 0.558409 -0.005928
C28   C     C_R   0.081092 0.999997 0.581105 0.901351
C29   C     C_R   0.256400 0.257184 0.558100 0.449007
C30   C     C_R   0.210440 0.206746 0.504043 0.019297
C31   C     C_R   0.208501 0.199682 0.451234 -0.262123
C32   C     C_1   0.339255 0.338452 0.502041 -0.043184
C33   C     C_1   0.164288 0.162240 0.502244 -0.000117
C34   C     C_3   0.710476 0.000630 0.210727 0.097929
C35   C     C_1   0.125854 0.124961 0.501053 -0.180988
C36   C     C_1   0.375573 0.375333 0.500681 -0.191264
C37   C     C_R   0.502311 0.080816 0.082906 0.901053
C38   C     C_R   0.583532 0.000015 0.083542 0.907145
C39   C     C_R   0.502969 0.919342 0.922259 0.910996
C40   C     C_3   0.735653 0.037656 0.277039 0.098140
C41   C     C_R   0.421578 0.000252 0.921519 0.902228
C42   C     C_R   0.500410 0.419398 0.419678 0.903909
C43   C     C_R   0.580641 0.580681 0.499960 0.909127
C44   C     C_R   0.499520 0.580557 0.580351 0.908967
C45   C     C_3   0.767543 0.962665 0.226021 -0.252416
C46   C     C_R   0.419399 0.419298 0.500042 0.911415
C47   C     C_R   0.475490 0.282559 0.236754 -0.374383
C48   C     C_R   0.501311 0.293407 0.294663 -0.018292
C49   C     C_R   0.528224 0.261678 0.309858 0.500339
C50   C     C_R   0.527560 0.217717 0.265995 -0.378215
C51   C     C_R   0.501776 0.206907 0.208114 -0.016813
C52   C     C_3   0.729738 0.983172 0.284015 -0.298260
C53   C     C_R   0.474929 0.238687 0.192944 0.500371
C54   C     C_1   0.500810 0.337863 0.338601 0.034730
C55   C     C_1   0.502225 0.162439 0.164160 0.032807
C56   C     C_3   0.705478 0.946859 0.217414 0.529050
C57   C     C_1   0.502316 0.125101 0.127033 -0.181197
C58   C     C_1   0.500598 0.375170 0.375657 -0.181031
C59   C     C_R   0.523936 0.764001 0.716955 -0.182818
C60   C     C_R   0.499466 0.706138 0.706672 0.170329
C61   C     C_R   0.475731 0.691584 0.740303 -0.184108
C62   C     C_R   0.476541 0.735102 0.784443 -0.180847
C63   C     C_R   0.501094 0.792989 0.794778 0.167990
C64   C     C_1   0.874708 0.000014 0.374839 -0.193042
C65   C     C_R   0.524738 0.807505 0.761080 -0.183859
C66   C     C_1   0.499156 0.661779 0.661886 -0.071254
C67   C     C_1   0.837335 0.000079 0.337631 -0.048626
C68   C     C_1   0.501945 0.837536 0.839916 -0.070880
C69   C     C_1   0.502546 0.874975 0.877691 -0.180328
C70   C     C_1   0.499184 0.624611 0.624467 -0.181863
C71   C     C_1   0.627661 0.999981 0.127833 -0.174541
C72   C     C_3   0.798609 0.055240 0.287071 -0.146989
C73   C     C_3   0.302180 0.087234 0.690149 0.134165
C74   C     C_3   0.309847 0.099411 0.642917 -0.828610
C75   C     C_3   0.354941 0.972479 0.717319 0.129653
C76   C     C_3   0.414257 0.984923 0.721488 -0.807939
C77   C     C_3   0.346549 0.359409 0.615694 -0.395523
C78   C     C_1   0.665052 0.000165 0.165256 -0.022240
C79   C     C_3   0.331328 0.408844 0.621765 -0.309656
C80   C     C_3   0.379892 0.466623 0.678091 -0.889183
C81   C     C_3   0.284761 0.235887 0.631755 0.073874
C82   C     C_3   0.286033 0.244406 0.689206 -0.805273
C83   C     C_3   0.389536 0.192804 0.106760 0.091746
C84   C     C_3   0.363610 0.176801 0.042379 -0.798469
C85   C     C_3   0.716437 0.080182 0.304093 -0.418194
C86   C     C_3   0.750032 0.110525 0.371428 -0.329141
C87   C     C_3   0.730698 0.152958 0.398267 -0.878809
C88   C     C_3   0.613871 0.304955 0.395169 0.096069
C89   C     C_R   0.766659 0.729754 0.541469 -0.192312
C90   C     C_3   0.640037 0.320665 0.459464 -0.799763
C91   C     C_3   0.661295 0.849792 0.194609 0.096219
C92   C     C_3   0.606176 0.789707 0.151632 -0.800966
C93   C     C_3   0.876851 0.800384 0.586097 -0.417215
C94   C     C_3   0.890555 0.776458 0.628676 -0.363856
C95   C     C_3   0.956875 0.806416 0.669744 -0.868703
H1    H     H_    0.712872 0.969133 0.310851 0.135038
H2    H     H_    0.542396 0.775406 0.691005 0.140537
H3    H     H_    0.456785 0.646799 0.732459 0.139613
H4    H     H_    0.458161 0.723723 0.810454 0.142658
H5    H     H_    0.781228 0.931688 0.205883 0.142303
H6    H     H_    0.789548 0.031906 0.192974 0.159371
H7    H     H_    0.837836 0.100027 0.316840 0.136041
H8    H     H_    0.776586 0.713109 0.571564 0.133981
H9    H     H_    0.646368 0.708376 0.429618 0.147183
H10   H     H_    0.346671 0.108896 0.729198 0.171014
H11   H     H_    0.276177 0.107019 0.702627 0.124545
H12   H     H_    0.723720 0.784817 0.430509 0.147885
H13   H     H_    0.266041 0.080256 0.604175 0.254666
H14   H     H_    0.334352 0.147690 0.660495 0.194547
H15   H     H_    0.335032 0.079606 0.628930 0.265189
H16   H     H_    0.322077 0.954820 0.670688 0.170058
H17   H     H_    0.341715 0.938435 0.730421 0.125855
H18   H     H_    0.447872 0.001880 0.767445 0.259151
H19   H     H_    0.410659 0.943721 0.692022 0.201604
H20   H     H_    0.428423 0.018224 0.707970 0.259848
H21   H     H_    0.386063 0.461225 0.717253 0.265698
H22   H     H_    0.422055 0.480888 0.677605 0.263272
H23   H     H_    0.234419 0.980789 0.825623 0.172274
H24   H     H_    0.367553 0.501441 0.681401 0.249370
H25   H     H_    0.325340 0.416028 0.583589 0.224033
H26   H     H_    0.289358 0.396111 0.622687 0.237796
H27   H     H_    0.352003 0.353140 0.654268 0.227883
H28   H     H_    0.389806 0.372621 0.617453 0.198226
H29   H     H_    0.331033 0.254954 0.640638 0.126237
H30   H     H_    0.260640 0.187661 0.600273 0.146331
H31   H     H_    0.240338 0.224578 0.681429 0.262905
H32   H     H_    0.308474 0.222742 0.707265 0.197258
H33   H     H_    0.310291 0.292171 0.721875 0.254889
H34   H     H_    0.157333 0.980117 0.748378 0.171405
H35   H     H_    0.369473 0.216287 0.126484 0.139267
H36   H     H_    0.377679 0.151045 0.108563 0.136095
H37   H     H_    0.382323 0.152620 0.021320 0.257287
H38   H     H_    0.315002 0.148260 0.018855 0.200791
H39   H     H_    0.373920 0.217401 0.038832 0.259135
H40   H     H_    0.739519 0.187788 0.385714 0.259812
H41   H     H_    0.682899 0.128788 0.382919 0.263231
H42   H     H_    0.755693 0.174289 0.447009 0.251029
H43   H     H_    0.741778 0.076852 0.385554 0.225219
H44   H     H_    0.798141 0.135582 0.388334 0.221937
H45   H     H_    0.173356 0.160537 0.409759 0.168705
H46   H     H_    0.724730 0.113824 0.289946 0.201769
H47   H     H_    0.668345 0.055050 0.287178 0.207224
H48   H     H_    0.627711 0.346837 0.393576 0.136710
H49   H     H_    0.632002 0.279404 0.374593 0.136375
H50   H     H_    0.627755 0.279858 0.462720 0.257211
H51   H     H_    0.688834 0.347165 0.482285 0.200411
H52   H     H_    0.623280 0.346844 0.481430 0.260978
H53   H     H_    0.667367 0.862377 0.239517 0.135296
H54   H     H_    0.699547 0.845805 0.193327 0.136021
H55   H     H_    0.599175 0.775444 0.106341 0.258250
H56   H     H_    0.249568 0.237276 0.410100 0.161843
H57   H     H_    0.611138 0.756764 0.164245 0.201191
H58   H     H_    0.567149 0.791934 0.152338 0.257962
H59   H     H_    0.979213 0.798232 0.643933 0.262374
H60   H     H_    0.975513 0.854690 0.696495 0.260238
H61   H     H_    0.965501 0.788339 0.699966 0.250252
H62   H     H_    0.869563 0.784749 0.655942 0.224993
H63   H     H_    0.873267 0.728242 0.603329 0.225091
H64   H     H_    0.899473 0.792782 0.560408 0.209178
H65   H     H_    0.895784 0.848806 0.612573 0.208650
H66   H     H_    0.455739 0.307971 0.225521 0.178592
H67   H     H_    0.547160 0.192171 0.277143 0.175025
H68   H     H_    0.543747 0.852296 0.768960 0.141550
O1    O     O_R   0.938790 0.973410 0.534240 -0.617540
O2    O     O_R   0.534910 0.439040 0.473850 -0.612197
O3    O     O_R   0.526400 0.561020 0.465440 -0.616202
O4    O     O_R   0.939210 0.904610 0.465730 -0.616656
O5    O     O_R   0.595600 0.560960 0.534590 -0.618158
O6    O     O_R   0.465090 0.560970 0.526160 -0.615609
O7    O     O_R   0.534290 0.560900 0.595310 -0.617145
O8    O     O_R   0.404400 0.439050 0.465410 -0.616089
O9    O     O_R   0.473600 0.438980 0.534560 -0.616776
O10   O     O_R   0.938500 0.034400 0.472950 -0.617291
O11   O     O_R   0.938920 0.965600 0.404450 -0.618146
O12   O     O_R   0.536750 0.095480 0.063220 -0.610481
O13   O     O_R   0.060790 0.095390 0.534270 -0.609130
O14   O     O_R   0.061210 0.026590 0.465760 -0.618753
O15   O     O_R   0.061080 0.034400 0.595550 -0.619808
O16   O     O_R   0.061500 0.965600 0.527050 -0.609485
O17   O     O_R   0.467870 0.026690 0.063270 -0.619653
O18   O     O_3   0.272870 0.025720 0.667686 -0.601226
O19   O     O_3   0.360243 0.025249 0.754911 -0.601466
O20   O     O_3   0.256565 0.264269 0.609874 -0.607196
O21   O     O_3   0.451252 0.229173 0.136050 -0.596925
O22   O     O_3   0.551895 0.271280 0.366798 -0.597473
O23   O     O_R   0.529460 0.965690 0.063890 -0.609907
O24   O     O_3   0.654296 0.891085 0.178029 -0.604869
O25   O     O_R   0.598340 0.034490 0.063830 -0.621013
O26   O     O_R   0.468470 0.904710 0.941910 -0.615221
O27   O     O_R   0.537350 0.973500 0.941860 -0.617501
O28   O     O_R   0.406880 0.965710 0.941300 -0.620510
O29   O     O_R   0.475750 0.034500 0.941240 -0.607216
O30   O     O_R   0.465710 0.439110 0.404700 -0.618445
Zn1   Zn    Zn3+2 0.999720 0.045930 0.545740 0.967178
Zn2   Zn    Zn3+2 0.000280 0.954070 0.454260 0.968283
Zn3   Zn    Zn3+2 0.456620 0.954160 0.002600 0.970027
Zn4   Zn    Zn3+2 0.548600 0.046030 0.002530 0.974830
Zn5   Zn    Zn3+2 0.453790 0.500050 0.453830 0.966006
Zn6   Zn    Zn3+2 0.546210 0.499960 0.546180 0.964184

loop_
_geom_bond_atom_site_label_1
_geom_bond_atom_site_label_2
_ccdc_geom_bond_type
C3    H9    S    
C25   C31   A    
C63   C65   A    
C34   C56   S    
C93   C94   S    
C23   C45   S    
O5    Zn6   S    
C50   H67   S    
C18   C21   S    
C73   C74   S    
C61   H3    S    
O12   Zn4   S    
C42   C58   S    
C74   H14   S    
C81   C82   S    
O16   Zn2   S    
C43   O5    A    
C26   C32   S    
O15   Zn1   S    
C84   H39   S    
C26   C27   A    
C90   H52   S    
C83   C84   S    
C34   C40   S    
C5    C6    A    
C32   C36   T    
O23   Zn3   S    
C18   C19   A    
C90   H50   S    
O2    Zn6   S    
C16   C35   S    
C85   C86   S    
C30   C31   A    
C39   O26   A    
C5    H12   S    
O1    Zn1   S    
C27   C29   A    
C1    O4    A    
O30   Zn5   S    
C7    C89   A    
C76   H20   S    
C46   O8    A    
O9    Zn6   S    
C95   H61   S    
C93   H64   S    
C44   O6    A    
O7    Zn6   S    
C2    C89   A    
C77   H27   S    
C80   H22   S    
C82   H31   S    
C20   C24   T    
C1    O1    A    
C68   C69   T    
C92   H57   S    
C76   H19   S    
C44   C70   S    
C92   H58   S    
C79   H26   S    
C29   C30   A    
O14   Zn2   S    
C9    C10   T    
C88   H48   S    
C95   H60   S    
O17   Zn3   S    
C42   O2    A    
C47   C53   A    
C16   O13   A    
C12   C72   S    
C80   H24   S    
C60   C66   S    
C59   C60   A    
C94   H63   S    
C22   C28   S    
C13   C14   A    
C89   H8    S    
C24   C41   S    
C19   O18   S    
C4    C64   S    
C94   C95   S    
C87   H42   S    
C23   C72   S    
C91   H53   S    
C12   C52   S    
C50   C51   A    
C77   C79   S    
C37   C57   S    
C7    C93   S    
C12   C67   S    
C84   H38   S    
C41   O28   A    
C81   H29   S    
C17   H34   S    
C64   C67   T    
C87   H40   S    
C42   O30   A    
O11   Zn2   S    
C45   C56   S    
C83   H35   S    
C53   O21   S    
C85   H46   S    
C91   C92   S    
C91   H54   S    
C39   O27   A    
C13   C19   A    
C86   C87   S    
C3    C5    A    
C25   C26   A    
C40   C52   S    
C84   H37   S    
C79   C80   S    
C60   C61   A    
C51   C53   A    
C40   C85   S    
C93   H65   S    
C48   C54   S    
C75   C76   S    
O3    Zn5   S    
C83   H36   S    
C62   C63   A    
C77   H28   S    
C14   C20   S    
C37   O12   A    
C73   O18   S    
C73   H10   S    
C47   C48   A    
C56   O24   S    
C23   C34   S    
C79   H25   S    
C65   H68   S    
C17   C18   A    
C39   C69   S    
C41   O29   A    
O29   Zn4   S    
C11   C43   S    
C82   H33   S    
C86   H44   S    
C75   H17   S    
C48   C49   A    
C88   C90   S    
C49   C50   A    
C94   H62   S    
C4    O10   A    
C55   C57   T    
C92   H55   S    
C59   H2    S    
C81   O20   S    
C16   O14   A    
C54   C58   T    
C43   O3    A    
C15   C17   A    
C37   O17   A    
C91   O24   S    
C38   C71   S    
C88   O22   S    
C40   C72   S    
C30   C33   S    
C81   H30   S    
O4    Zn2   S    
C87   H41   S    
C2    C8    S    
C1    C10   S    
O28   Zn3   S    
C12   C45   S    
C27   C77   S    
C45   H5    S    
C85   H47   S    
C74   H15   S    
C29   O20   S    
C6    C7    A    
O8    Zn5   S    
C63   C68   S    
C75   H16   S    
C15   H23   S    
C25   H56   S    
C95   H59   S    
C76   H18   S    
C2    C3    A    
C90   H51   S    
C38   O23   A    
C59   C65   A    
C36   C46   S    
O26   Zn3   S    
C73   H11   S    
C66   C70   T    
C72   H7    S    
O25   Zn4   S    
C8    C11   T    
C38   O25   A    
C33   C35   T    
C46   O9    A    
C83   O21   S    
C52   H1    S    
C51   C55   S    
C61   C62   A    
C28   O16   A    
C44   O7    A    
C82   H32   S    
C86   H43   S    
C23   H6    S    
C74   H13   S    
C62   H4    S    
C47   H66   S    
C6    C9    S    
C49   O22   S    
C13   O19   S    
O10   Zn1   S    
C14   C15   A    
C4    O11   A    
C80   H21   S    
O13   Zn1   S    
C31   H45   S    
C21   C22   T    
C75   O19   S    
C28   O15   A    
C88   H49   S    
C71   C78   T    
C34   C78   S    
C52   C56   S    
O27   Zn4   S    
O6    Zn5   S    
