data_mof_unit_9331.cif
_audit_creation_date              2012-12-11T17:08:25-0500
_audit_creation_method            fapswitch 2.2
_symmetry_space_group_name_H-M    P1
_symmetry_Int_Tables_number       1
_space_group_crystal_system       triclinic
_cell_length_a                    6.990513
_cell_length_b                    14.504609
_cell_length_c                    16.090664
_cell_angle_alpha                 89.983163
_cell_angle_beta                  90.083185
_cell_angle_gamma                 90.056357
_cell_volume                      1631.50479114

loop_
_atom_site_label
_atom_site_type_symbol
_atom_type_description
_atom_site_fract_x
_atom_site_fract_y
_atom_site_fract_z
_atom_type_partial_charge
O1    O     O_R   0.505700 0.583890 0.413310 -0.544397
O2    O     O_R   0.175960 0.594920 0.586080 -0.545683
O3    O     O_R   0.005660 0.416110 0.586690 -0.537463
C1    C     C_R   0.344776 0.616871 0.614760 0.680558
O4    O     O_R   0.175980 0.594920 0.413930 -0.545685
O5    O     O_R   0.005680 0.416110 0.413310 -0.548314
C2    C     C_R   0.344676 0.617018 0.385353 0.681632
O6    O     O_R   0.505680 0.583890 0.586690 -0.543817
O7    O     O_3   0.339200 0.441330 0.500000 -0.343374
V1    V     V_3+5 0.064350 0.510880 0.500000 1.422327
O8    O     O_R   0.675960 0.405080 0.413920 -0.514486
C3    C     C_R   0.844737 0.381601 0.386509 0.732781
O9    O     O_R   0.675940 0.405080 0.586070 -0.533630
C4    C     C_R   0.844742 0.382990 0.614626 0.721650
V2    V     V_3+5 0.564340 0.489120 0.500000 1.486944
O10   O     O_3   0.839360 0.558670 0.500000 -0.383997
C5    C     C_R   0.008151 0.316259 0.740379 0.082477
C6    C     C_R   0.852872 0.317368 0.685212 -0.108704
C7    C     C_R   0.700752 0.256303 0.701626 -0.141461
H1    H     H_    0.577642 0.254702 0.660995 0.164209
C8    C     C_R   0.711881 0.192159 0.767247 -0.174393
H2    H     H_    0.596326 0.143390 0.775362 0.134055
C9    C     C_R   0.875851 0.186856 0.818213 -0.108979
C10   C     C_R   0.019630 0.252517 0.805057 0.102042
C11   C     C_3   0.228698 0.238820 0.792221 -0.409816
C12   C     C_3   0.216306 0.308624 0.722028 -0.390095
H3    H     H_    0.262225 0.167911 0.770527 0.177196
H4    H     H_    0.314663 0.263453 0.845990 0.171287
H5    H     H_    0.243359 0.278391 0.659656 0.202439
H6    H     H_    0.294455 0.373765 0.735360 0.158688
C13   C     C_R   0.715892 0.238808 0.195944 0.025566
C14   C     C_R   0.881323 0.186970 0.181744 -0.104777
C15   C     C_R   0.035929 0.200528 0.236370 -0.168248
H7    H     H_    0.161066 0.157849 0.230547 0.167866
C16   C     C_R   0.023468 0.263465 0.302969 -0.097954
H8    H     H_    0.139266 0.269318 0.346670 0.191499
C17   C     C_R   0.855546 0.313329 0.318055 -0.063969
C18   C     C_R   0.701253 0.297093 0.264892 -0.031903
C19   C     C_3   0.507017 0.260835 0.285415 0.309783
C20   C     C_3   0.518345 0.203242 0.206793 -0.465719
H9    H     H_    0.399275 0.316730 0.282705 0.024294
H10   H     H_    0.422811 0.228453 0.156397 0.141367
H11   H     H_    0.513295 0.127385 0.216761 0.194882
C21   C     C_R   0.509417 0.747046 0.690072 0.121274
C22   C     C_R   0.352885 0.687447 0.681367 -0.109374
C23   C     C_R   0.200155 0.698627 0.737479 -0.178381
H12   H     H_    0.076617 0.654096 0.733378 0.130198
C24   C     C_R   0.211596 0.762613 0.803271 -0.179759
H13   H     H_    0.095484 0.766240 0.847442 0.129781
C25   C     C_R   0.376750 0.816838 0.815275 -0.112057
C26   C     C_R   0.521142 0.810040 0.755356 0.115513
C27   C     C_3   0.729686 0.793232 0.766642 -0.417991
C28   C     C_3   0.716971 0.724925 0.695274 -0.403464
H14   H     H_    0.761798 0.760160 0.827397 0.167022
H15   H     H_    0.816853 0.855194 0.751739 0.182357
H16   H     H_    0.742375 0.652329 0.714529 0.160887
H17   H     H_    0.796269 0.747542 0.639000 0.183654
C29   C     C_R   0.509037 0.747545 0.310509 0.126289
C30   C     C_R   0.352635 0.687802 0.318906 -0.111214
C31   C     C_R   0.199999 0.698986 0.262566 -0.177446
H18   H     H_    0.076401 0.654484 0.266496 0.129126
C32   C     C_R   0.211692 0.762893 0.196718 -0.177521
H19   H     H_    0.095645 0.766490 0.152357 0.128940
C33   C     C_R   0.376975 0.817057 0.184908 -0.110140
C34   C     C_R   0.520949 0.810514 0.245208 0.127870
C35   C     C_3   0.729745 0.794119 0.234598 -0.422413
C36   C     C_3   0.716840 0.725805 0.305994 -0.404971
H20   H     H_    0.816233 0.856262 0.249728 0.185078
H21   H     H_    0.762727 0.761093 0.173975 0.166226
H22   H     H_    0.795396 0.748595 0.362494 0.185746
H23   H     H_    0.742997 0.653250 0.286890 0.159666
O11   O     O_R   0.229000 0.916070 0.913330 -0.539548
O12   O     O_R   0.558770 0.905070 0.086080 -0.541525
O13   O     O_R   0.729000 0.083900 0.086690 -0.534385
C37   C     C_R   0.389819 0.883035 0.114702 0.697018
O14   O     O_R   0.558720 0.905070 0.913930 -0.540645
O15   O     O_R   0.728960 0.083900 0.913310 -0.539738
C38   C     C_R   0.389617 0.882928 0.885406 0.692519
O16   O     O_R   0.229050 0.916070 0.086710 -0.538371
O17   O     O_3   0.395460 0.058650 0.000020 -0.369524
V3    V     V_3+5 0.670340 0.989120 0.000000 1.395998
O18   O     O_R   0.058670 0.094960 0.913900 -0.538900
C39   C     C_R   0.889626 0.116712 0.885060 0.698957
O19   O     O_R   0.058720 0.094960 0.086050 -0.544574
C40   C     C_R   0.890105 0.116849 0.114776 0.704151
V4    V     V_3+5 0.170330 0.010930 0.999970 1.398750
O20   O     O_3   0.895340 0.941350 0.999980 -0.373548
S1    S     S_3+6 0.501432 0.189645 0.377866 0.000340
O21   O     O_2   0.461189 0.248516 0.452559 -0.309937
O22   O     O_2   0.346161 0.118339 0.370538 -0.346479
O23   O     O_3   0.711643 0.135410 0.391982 -0.470727
H24   H     H_    0.719336 0.089818 0.346296 0.338595

loop_
_geom_bond_atom_site_label_1
_geom_bond_atom_site_label_2
_ccdc_geom_bond_type
C35   H20   S    
C4    C6    S    
C7    H1    S    
C1    O6    A    
C19   H9    S    
C22   C23   A    
C21   C22   A    
C11   H4    S    
C17   C18   A    
C9    C39   S    
C5    C12   S    
C7    C8    A    
O19   V4    S    
O5    C3    A    
C18   C19   S    
C35   H21   S    
O15   C39   A    
V2    O10   S    
C13   C20   S    
C31   C32   A    
C6    C7    A    
C2    C30   S    
C3    C17   S    
C32   C33   A    
O8    V2    S    
C21   C28   S    
C20   H11   S    
C16   H8    S    
O17   V4    S    
C9    C10   A    
O1    V2    S    
O7    V1    S    
C27   H15   S    
C20   H10   S    
C35   C36   S    
C30   C31   A    
O9    C4    A    
O12   C37   A    
C19   S1    S    
C25   C38   S    
O12   V3    S    
C27   H14   S    
C5    C6    A    
C1    C22   S    
C23   C24   A    
C5    C10   A    
C26   C27   S    
C10   C11   S    
C19   C20   S    
O4    C2    A    
C28   H17   S    
V4    O20   S    
C25   C26   A    
C29   C30   A    
O18   V4    S    
O18   C39   A    
C31   H18   S    
O2    C1    A    
C32   H19   S    
C29   C34   A    
C13   C14   A    
S1    O23   S    
O15   V3    S    
C15   H7    S    
O19   C40   A    
V3    O20   S    
O3    C4    A    
C21   C26   A    
C24   H13   S    
S1    O22   D    
C12   H6    S    
O6    V2    S    
C8    C9    A    
O13   V3    S    
O2    V1    S    
O23   H24   S    
C27   C28   S    
C28   H16   S    
C23   H12   S    
C16   C17   A    
O1    C2    A    
O14   C38   A    
O17   V3    S    
O14   V3    S    
O5    V1    S    
O11   V4    S    
O8    C3    A    
C11   H3    S    
C13   C18   A    
C36   H22   S    
C14   C15   A    
O9    V2    S    
C11   C12   S    
O4    V1    S    
O3    V1    S    
V1    O10   S    
C33   C34   A    
C14   C40   S    
C24   C25   A    
C15   C16   A    
C33   C37   S    
C36   H23   S    
O13   C40   A    
O7    V2    S    
C29   C36   S    
S1    O21   D    
C12   H5    S    
C34   C35   S    
O11   C38   A    
C8    H2    S    
C37   O16   A    
O16   V4    S    
