data_mof_unit_57362.cif
_audit_creation_date              2013-03-05T16:21:56-0500
_audit_creation_method            fapswitch 2.2
_symmetry_space_group_name_H-M    P1
_symmetry_Int_Tables_number       1
_space_group_crystal_system       triclinic
_cell_length_a                    23.256094
_cell_length_b                    30.033039
_cell_length_c                    8.694091
_cell_angle_alpha                 90.020759
_cell_angle_beta                  93.730522
_cell_angle_gamma                 89.959284
_cell_volume                      6059.52946131

loop_
_atom_site_label
_atom_site_type_symbol
_atom_site_description
_atom_site_fract_x
_atom_site_fract_y
_atom_site_fract_z
_atom_type_partial_charge
P1    P     P_3+3 0.880180 0.450420 0.058010 0.578644
P2    P     P_3+3 0.880180 0.549580 0.558010 0.577376
P3    P     P_3+3 0.380180 0.950420 0.058010 0.578529
P4    P     P_3+3 0.380180 0.049580 0.558010 0.578536
O1    O     O_2   0.885810 0.435270 0.885040 -0.339382
O2    O     O_2   0.885810 0.564730 0.385040 -0.340414
O3    O     O_2   0.385810 0.935270 0.885040 -0.339383
O4    O     O_2   0.385810 0.064730 0.385040 -0.339251
O5    O     O_3   0.933490 0.477290 0.133000 -0.256659
O6    O     O_3   0.933490 0.522710 0.633000 -0.256296
O7    O     O_3   0.433490 0.977290 0.133000 -0.256817
O8    O     O_3   0.433490 0.022710 0.633000 -0.256916
O9    O     O_3   0.980190 0.395350 0.639000 -0.332608
O10   O     O_3   0.980190 0.604650 0.139000 -0.333780
O11   O     O_3   0.480190 0.895350 0.639000 -0.332969
O12   O     O_3   0.480190 0.104650 0.139000 -0.332832
O13   O     O_2   0.886234 0.363843 0.739947 -0.342493
O14   O     O_2   0.885573 0.635844 0.238255 -0.342723
O15   O     O_2   0.386213 0.863865 0.739708 -0.342664
O16   O     O_2   0.386213 0.136157 0.240123 -0.342442
O17   O     O_3   0.823366 0.488574 0.034689 -0.554397
O18   O     O_3   0.823394 0.511466 0.534426 -0.554011
O19   O     O_3   0.323282 0.988504 0.034834 -0.554334
O20   O     O_3   0.323313 0.011532 0.534655 -0.554510
O21   O     O_3   0.964083 0.306158 0.676784 -0.459445
O22   O     O_3   0.963399 0.693714 0.178194 -0.468494
O23   O     O_3   0.464164 0.806168 0.677456 -0.459506
O24   O     O_3   0.463940 0.193846 0.176803 -0.459640
H1    H     H_    0.046955 0.330468 0.666097 0.083173
H2    H     H_    0.046447 0.668755 0.179800 0.099694
H3    H     H_    0.547111 0.830479 0.669081 0.085367
H4    H     H_    0.546855 0.169497 0.166426 0.083534
C1    C     C_3   0.045659 0.259322 0.651915 -0.779461
C2    C     C_3   0.046002 0.739823 0.162593 -0.748357
C3    C     C_3   0.545782 0.759337 0.653899 -0.778707
C4    C     C_3   0.545474 0.240632 0.151955 -0.779629
H5    H     H_    0.086604 0.255931 0.594666 0.185971
H6    H     H_    0.089145 0.742028 0.116124 0.195262
H7    H     H_    0.587729 0.756446 0.601097 0.184456
H8    H     H_    0.586537 0.243913 0.095200 0.186028
H9    H     H_    0.054769 0.256114 0.778351 0.264610
H10   H     H_    0.050840 0.744235 0.289466 0.261394
H11   H     H_    0.553025 0.755488 0.780782 0.266997
H12   H     H_    0.554364 0.243961 0.278450 0.264723
P5    P     P_3+3 0.119600 0.450040 0.631910 0.608780
P6    P     P_3+3 0.119600 0.549960 0.131910 0.608965
P7    P     P_3+3 0.619600 0.950040 0.631910 0.609324
P8    P     P_3+3 0.619600 0.049960 0.131910 0.609221
P9    P     P_3+3 0.063152 0.348426 0.091736 0.462831
P10   P     P_3+3 0.063972 0.651229 0.592252 0.461666
P11   P     P_3+3 0.563237 0.848481 0.091452 0.461986
P12   P     P_3+3 0.563143 0.151548 0.591811 0.462951
O25   O     O_2   0.113920 0.434910 0.804950 -0.393363
O26   O     O_2   0.113920 0.565090 0.304950 -0.392934
O27   O     O_2   0.613920 0.934910 0.804950 -0.393323
O28   O     O_2   0.613920 0.065090 0.304950 -0.393007
O29   O     O_3   0.019410 0.395290 0.051170 -0.350364
O30   O     O_3   0.019410 0.604710 0.551170 -0.352923
O31   O     O_3   0.519410 0.895290 0.051170 -0.350740
O32   O     O_3   0.519410 0.104710 0.551170 -0.350578
O33   O     O_2   0.107315 0.349921 0.966180 -0.385453
O34   O     O_2   0.107903 0.649531 0.466141 -0.389629
O35   O     O_2   0.607395 0.850077 0.965914 -0.386434
O36   O     O_2   0.607254 0.150057 0.466103 -0.385188
O37   O     O_3   0.192432 0.470360 0.641453 -0.545484
O38   O     O_3   0.192332 0.529359 0.141577 -0.544962
O39   O     O_3   0.692366 0.970480 0.641311 -0.544790
O40   O     O_3   0.692359 0.029420 0.141419 -0.544894
O41   O     O_3   0.024671 0.300181 0.037641 -0.550410
O42   O     O_3   0.027260 0.700641 0.541906 -0.566646
O43   O     O_3   0.524834 0.800221 0.037228 -0.551376
O44   O     O_3   0.524607 0.199830 0.538100 -0.550486
C5    C     C_3   0.980147 0.291671 0.135989 0.772070
C6    C     C_3   0.981602 0.708921 0.636644 0.779348
C7    C     C_3   0.480413 0.791596 0.135769 0.772058
C8    C     C_3   0.479991 0.208249 0.636320 0.772190
H13   H     H_    0.971680 0.319920 0.214488 -0.104767
H14   H     H_    0.976413 0.682863 0.725845 -0.111486
H15   H     H_    0.471819 0.819843 0.214173 -0.103713
H16   H     H_    0.471586 0.179965 0.714620 -0.104663
C9    C     C_3   0.925454 0.282872 0.034442 -0.702554
C10   C     C_3   0.926416 0.710373 0.532036 -0.711941
C11   C     C_3   0.425739 0.782575 0.034406 -0.703858
C12   C     C_3   0.425314 0.217011 0.534619 -0.703240
H17   H     H_    0.910680 0.314209 0.977614 0.251630
H18   H     H_    0.916559 0.676594 0.486734 0.244204
H19   H     H_    0.410765 0.813840 0.977405 0.252006
H20   H     H_    0.410664 0.185664 0.477682 0.251746
H21   H     H_    0.933906 0.257798 0.944657 0.285938
H22   H     H_    0.931785 0.733397 0.434129 0.301472
H23   H     H_    0.434303 0.757492 0.944743 0.285794
H24   H     H_    0.433730 0.242097 0.444937 0.285874
C13   C     C_3   0.207080 0.484073 0.169192 0.654250
C14   C     C_3   0.207223 0.515611 0.669225 0.653284
C15   C     C_3   0.707086 0.984136 0.169181 0.653272
C16   C     C_3   0.707164 0.015737 0.669223 0.653378
C17   C     C_3   0.269997 0.476225 0.120121 -0.631614
C18   C     C_3   0.270118 0.523402 0.620073 -0.630693
C19   C     C_3   0.769982 0.976229 0.120079 -0.631911
C20   C     C_3   0.770082 0.023507 0.620194 -0.631527
H25   H     H_    0.293178 0.508460 0.119297 0.217544
H26   H     H_    0.293329 0.491150 0.619390 0.217146
H27   H     H_    0.793238 0.008436 0.119457 0.217647
H28   H     H_    0.793272 0.991248 0.619425 0.218266
H29   H     H_    0.295761 0.455299 0.203854 0.246244
H30   H     H_    0.295863 0.544366 0.703686 0.246386
H31   H     H_    0.795689 0.955217 0.203663 0.247058
H32   H     H_    0.795827 0.044447 0.703892 0.246354
Ba1   Ba    Ba6+2 0.999920 0.467660 0.844980 1.732035
Ba2   Ba    Ba6+2 0.999920 0.532340 0.344980 1.729871
Ba3   Ba    Ba6+2 0.499920 0.967660 0.844980 1.731946
Ba4   Ba    Ba6+2 0.499920 0.032340 0.344980 1.732283
C21   C     C_3   0.795112 0.492401 0.172646 0.408475
C22   C     C_3   0.795256 0.507479 0.672497 0.409958
C23   C     C_3   0.295077 0.992283 0.172880 0.407766
C24   C     C_3   0.295240 0.007606 0.672847 0.409015
H33   H     H_    0.792976 0.528258 0.202954 0.119261
H34   H     H_    0.793339 0.471598 0.702486 0.118987
H35   H     H_    0.292639 0.028151 0.202832 0.118735
H36   H     H_    0.293098 0.971721 0.702632 0.119255
H37   H     H_    0.816886 0.475110 0.273256 0.107901
H38   H     H_    0.816988 0.524763 0.773181 0.108290
H39   H     H_    0.317082 0.975192 0.273578 0.108499
H40   H     H_    0.317167 0.024754 0.773534 0.108197
C25   C     C_3   0.733893 0.474826 0.148004 -1.058316
C26   C     C_3   0.733930 0.524921 0.648270 -1.058207
C27   C     C_3   0.234007 0.974369 0.148709 -1.056770
C28   C     C_3   0.234024 0.025304 0.649042 -1.057977
H41   H     H_    0.710638 0.492814 0.051203 0.272062
H42   H     H_    0.710716 0.506924 0.551433 0.271842
H43   H     H_    0.210541 0.992145 0.051761 0.272063
H44   H     H_    0.210641 0.007481 0.552079 0.272225
H45   H     H_    0.710668 0.479882 0.254258 0.250300
H46   H     H_    0.710805 0.519759 0.754606 0.250236
H47   H     H_    0.210802 0.979405 0.255008 0.250345
H48   H     H_    0.210924 0.020142 0.755421 0.250415
H49   H     H_    0.734565 0.438725 0.121169 0.259974
H50   H     H_    0.734381 0.561036 0.621683 0.260539
H51   H     H_    0.234982 0.938248 0.122335 0.259973
H52   H     H_    0.234702 0.061440 0.622872 0.259926
O45   O     O_3   0.066460 0.522600 0.056690 -0.316594
O46   O     O_3   0.066460 0.477400 0.556690 -0.317179
O47   O     O_3   0.566460 0.022600 0.056690 -0.316922
O48   O     O_3   0.566460 0.977400 0.556690 -0.316882
P13   P     P_3+3 0.927687 0.645355 0.112364 0.560462
P14   P     P_3+3 0.927918 0.354538 0.612781 0.567914
P15   P     P_3+3 0.427849 0.145450 0.112896 0.567879
P16   P     P_3+3 0.428018 0.854499 0.612879 0.567771
C29   C     C_3   0.018141 0.304327 0.613877 0.483059
C30   C     C_3   0.018754 0.694866 0.122817 0.441952
C31   C     C_3   0.518446 0.804401 0.615772 0.482277
C32   C     C_3   0.518023 0.195621 0.114028 0.482825
H53   H     H_    0.014016 0.308409 0.486590 0.005966
H54   H     H_    0.016875 0.690285 0.995750 0.028892
H55   H     H_    0.514756 0.808613 0.488472 0.005346
H56   H     H_    0.513950 0.191476 0.986751 0.005887
H57   H     H_    0.016459 0.231969 0.611265 0.307446
H58   H     H_    0.018627 0.767094 0.112154 0.301146
H59   H     H_    0.517302 0.732052 0.608520 0.306787
H60   H     H_    0.516320 0.267975 0.110681 0.307331
H61   H     H_    0.890916 0.269764 0.103632 0.203863
H62   H     H_    0.890055 0.722638 0.595948 0.203819
H63   H     H_    0.391310 0.769371 0.103768 0.203839
H64   H     H_    0.390693 0.230083 0.603705 0.204081
C33   C     C_R   0.746871 0.292876 0.017241 0.047738
C34   C     C_R   0.746385 0.706856 0.517055 0.045715
C35   C     C_R   0.247816 0.792475 0.016442 0.047606
C36   C     C_R   0.246740 0.207024 0.517426 0.047837
C37   C     C_R   0.754735 0.330802 0.925648 0.152222
C38   C     C_R   0.754677 0.669092 0.424896 0.149967
C39   C     C_R   0.255543 0.830442 0.924945 0.150185
C40   C     C_R   0.254641 0.169082 0.425833 0.152141
C41   C     C_R   0.726789 0.333015 0.777945 -0.180099
C42   C     C_R   0.727320 0.667133 0.276465 -0.182536
C43   C     C_R   0.227784 0.832566 0.776998 -0.172515
C44   C     C_R   0.226713 0.166847 0.278115 -0.180053
C45   C     C_R   0.193756 0.797150 0.717719 0.036208
C46   C     C_R   0.192218 0.202085 0.219280 0.036360
C47   C     C_R   0.692301 0.297788 0.719150 0.036430
C48   C     C_R   0.692761 0.702363 0.217821 0.035033
C49   C     C_R   0.185295 0.758794 0.808769 0.050449
C50   C     C_R   0.183436 0.240367 0.310583 0.053143
C51   C     C_R   0.683535 0.259533 0.810471 0.052909
C52   C     C_R   0.683636 0.740482 0.309648 0.053559
C53   C     C_R   0.212079 0.756591 0.959005 0.008142
C54   C     C_R   0.210641 0.242772 0.460319 0.003693
C55   C     C_R   0.710769 0.257137 0.960175 0.003643
C56   C     C_R   0.710483 0.742703 0.459811 0.004968
C57   C     C_R   0.150624 0.722860 0.753235 -0.089692
C58   C     C_R   0.148253 0.276114 0.255552 -0.121938
C59   C     C_R   0.648339 0.223807 0.755482 -0.120612
C60   C     C_R   0.648475 0.776251 0.254722 -0.120547
C61   C     C_R   0.140387 0.685131 0.844801 0.045651
C62   C     C_R   0.138589 0.314123 0.346280 0.018136
C63   C     C_R   0.638678 0.185825 0.846225 0.018428
C64   C     C_R   0.638641 0.814167 0.345787 0.019118
C65   C     C_R   0.168474 0.682096 0.994329 -0.003273
C66   C     C_R   0.167176 0.317387 0.495249 0.006778
C67   C     C_R   0.667286 0.182564 0.995170 0.006774
C68   C     C_R   0.667074 0.817341 0.494923 0.006665
C69   C     C_R   0.204008 0.718275 0.050699 0.023439
C70   C     C_R   0.202721 0.281191 0.551725 0.024994
C71   C     C_R   0.702863 0.218738 0.051585 0.025020
C72   C     C_R   0.702437 0.781056 0.551489 0.025044
C73   C     C_R   0.103788 0.649990 0.789151 0.169573
C74   C     C_R   0.102371 0.349435 0.289899 0.149829
C75   C     C_R   0.602437 0.150539 0.789895 0.150187
C76   C     C_R   0.602424 0.849485 0.289560 0.150155
C77   C     C_R   0.098148 0.611729 0.881777 -0.416192
C78   C     C_R   0.097354 0.387998 0.381894 -0.405830
C79   C     C_R   0.597409 0.112008 0.881920 -0.406839
C80   C     C_R   0.597339 0.888016 0.381710 -0.406222
C81   C     C_R   0.125301 0.606937 0.030558 0.295399
C82   C     C_R   0.124821 0.392927 0.530480 0.295871
C83   C     C_R   0.624889 0.107069 0.030485 0.295087
C84   C     C_R   0.624812 0.892925 0.530306 0.295211
C85   C     C_R   0.161945 0.642996 0.086806 -0.067840
C86   C     C_R   0.161179 0.356720 0.587041 -0.064110
C87   C     C_R   0.661274 0.143256 0.086995 -0.064051
C88   C     C_R   0.661090 0.856662 0.586823 -0.065343
C89   C     C_R   0.775319 0.290564 0.165117 0.002317
C90   C     C_R   0.774351 0.708964 0.665533 0.005412
C91   C     C_R   0.276027 0.790270 0.164607 0.002086
C92   C     C_R   0.275148 0.209343 0.665352 0.002349
C93   C     C_R   0.814207 0.325167 0.219876 -0.009009
C94   C     C_R   0.813184 0.674317 0.720434 -0.005943
C95   C     C_R   0.314701 0.824972 0.219587 -0.008495
C96   C     C_R   0.314074 0.174753 0.720108 -0.009154
C97   C     C_R   0.823708 0.362942 0.123212 -0.044725
C98   C     C_R   0.822987 0.636664 0.623499 -0.045662
C99   C     C_R   0.324079 0.862797 0.123037 -0.044668
C100  C     C_R   0.323645 0.136988 0.623396 -0.045030
C101  C     C_R   0.791728 0.365512 0.979647 -0.157272
C102  C     C_R   0.791403 0.634242 0.479319 -0.155577
C103  C     C_R   0.292187 0.865303 0.979350 -0.157388
C104  C     C_R   0.291665 0.134382 0.479847 -0.156994
H65   H     H_    0.733171 0.361889 0.706013 0.122984
H66   H     H_    0.734013 0.638375 0.204134 0.124064
H67   H     H_    0.233966 0.861518 0.705278 0.122963
H68   H     H_    0.233125 0.137951 0.206203 0.122926
H69   H     H_    0.075302 0.583630 0.832229 0.207573
H70   H     H_    0.074755 0.416183 0.331973 0.206358
H71   H     H_    0.574772 0.083849 0.832032 0.206347
H72   H     H_    0.574665 0.916188 0.331916 0.206154
H73   H     H_    0.131093 0.724721 0.637520 0.171728
H74   H     H_    0.128598 0.274208 0.139989 0.183686
H75   H     H_    0.628653 0.225712 0.639950 0.183620
H76   H     H_    0.629015 0.774452 0.138930 0.183183
H77   H     H_    0.795661 0.394334 0.906931 0.157479
H78   H     H_    0.795608 0.605517 0.406231 0.158041
H79   H     H_    0.295948 0.894177 0.906796 0.157642
H80   H     H_    0.295618 0.105543 0.407140 0.157613
C105  C     C_R   0.193006 0.641348 0.231739 -0.058250
C106  C     C_R   0.192364 0.358402 0.731850 -0.059010
C107  C     C_R   0.692479 0.141576 0.231766 -0.059266
C108  C     C_R   0.692223 0.858280 0.731677 -0.057906
C109  C     C_R   0.225141 0.677930 0.291414 -0.072857
C110  C     C_R   0.224220 0.321725 0.791957 -0.074126
C111  C     C_R   0.724430 0.178215 0.291736 -0.073802
C112  C     C_R   0.723874 0.821516 0.791898 -0.072055
C113  C     C_R   0.231229 0.716478 0.199700 0.030533
C114  C     C_R   0.230178 0.283103 0.700465 0.031506
C115  C     C_R   0.730385 0.216818 0.200243 0.031534
C116  C     C_R   0.729652 0.782845 0.700496 0.031823
C117  C     C_R   0.765731 0.252924 0.256766 -0.008274
C118  C     C_R   0.764719 0.746607 0.757228 -0.002946
C119  C     C_R   0.266460 0.752628 0.256281 -0.007580
C120  C     C_R   0.265489 0.246974 0.757055 -0.008145
C121  C     C_R   0.251899 0.677399 0.442029 0.341944
C122  C     C_R   0.250830 0.322221 0.942775 0.344052
C123  C     C_R   0.751156 0.177682 0.442409 0.343358
C124  C     C_R   0.750559 0.822018 0.942624 0.344203
C125  C     C_R   0.780449 0.214554 0.499144 -0.171552
C126  C     C_R   0.779713 0.785076 0.999419 -0.173313
C127  C     C_R   0.281130 0.714291 0.498755 -0.174582
C128  C     C_R   0.279994 0.285294 0.999627 -0.171823
C129  C     C_R   0.792064 0.250754 0.405608 -0.087895
C130  C     C_R   0.791135 0.748807 0.905895 -0.085334
C131  C     C_R   0.292694 0.750504 0.405218 -0.084929
C132  C     C_R   0.291726 0.249120 0.906008 -0.088097
C133  C     C_R   0.844598 0.320784 0.368247 -0.218751
C134  C     C_R   0.843984 0.678923 0.868112 -0.229660
C135  C     C_R   0.345029 0.820626 0.368022 -0.219231
C136  C     C_R   0.344440 0.179141 0.868508 -0.218647
C137  C     C_R   0.832044 0.282934 0.460116 0.377072
C138  C     C_R   0.831558 0.716854 0.959557 0.356303
C139  C     C_R   0.332595 0.782718 0.459768 0.376930
C140  C     C_R   0.331772 0.216966 0.960495 0.377178
C141  C     C_R   0.885578 0.354304 0.417351 0.063152
C142  C     C_R   0.885462 0.645667 0.916721 0.061906
C143  C     C_R   0.385836 0.854232 0.417302 0.063827
C144  C     C_R   0.385500 0.145648 0.917527 0.063275
C145  C     C_R   0.893141 0.391585 0.320459 0.027825
C146  C     C_R   0.893149 0.608428 0.819840 0.032945
C147  C     C_R   0.393271 0.891580 0.320562 0.027753
C148  C     C_R   0.393140 0.108374 0.820568 0.027523
C149  C     C_R   0.864693 0.396675 0.172720 -0.004474
C150  C     C_R   0.864378 0.603173 0.672667 -0.010183
C151  C     C_R   0.364867 0.896635 0.172739 -0.004231
C152  C     C_R   0.364689 0.103289 0.672842 -0.004079
H81   H     H_    0.192041 0.612046 0.301812 0.170858
H82   H     H_    0.191739 0.387801 0.801567 0.169355
H83   H     H_    0.691807 0.112192 0.301504 0.169437
H84   H     H_    0.691704 0.887703 0.801318 0.169029
H85   H     H_    0.796549 0.212901 0.618517 0.222952
H86   H     H_    0.796131 0.786788 0.118530 0.224808
H87   H     H_    0.297218 0.712650 0.618140 0.222455
H88   H     H_    0.295992 0.286915 0.119093 0.222882
C153  C     C_1   0.275711 0.455960 0.968604 0.310321
N1    N     N_1   0.282096 0.439400 0.850850 -0.048418
C154  C     C_1   0.275796 0.543598 0.468514 0.310931
N2    N     N_1   0.282165 0.560104 0.350717 -0.048703
C155  C     C_1   0.775627 0.956001 0.968477 0.311694
N3    N     N_1   0.781950 0.939462 0.850654 -0.046175
C156  C     C_1   0.775764 0.043740 0.468664 0.310854
N4    N     N_1   0.782102 0.060276 0.350896 -0.048187
N5    N     N_R   0.924534 0.428275 0.383692 0.237516
O49   O     O_R   0.902984 0.450416 0.493950 -0.346051
O50   O     O_R   0.978796 0.432119 0.361009 -0.398109
N6    N     N_R   0.925003 0.571895 0.882643 0.238248
O51   O     O_R   0.903602 0.549299 0.991934 -0.344770
O52   O     O_R   0.979286 0.568362 0.859758 -0.398868
N7    N     N_R   0.424452 0.928345 0.384023 0.237475
O53   O     O_R   0.402754 0.950348 0.494385 -0.346405
O54   O     O_R   0.478721 0.932339 0.361603 -0.397439
N8    N     N_R   0.424579 0.071680 0.883747 0.237541
O55   O     O_R   0.403023 0.049523 0.993855 -0.346014
O56   O     O_R   0.478852 0.067825 0.861113 -0.397972
N9    N     N_R   0.862499 0.273294 0.604354 0.248963
O57   O     O_R   0.838451 0.283917 0.730112 -0.425857
O58   O     O_R   0.898126 0.239747 0.609636 -0.330486
N10   N     N_R   0.863606 0.727397 0.100409 0.247729
O59   O     O_R   0.841175 0.717766 0.229470 -0.414813
O60   O     O_R   0.899575 0.760630 0.099166 -0.350561
N11   N     N_R   0.363153 0.773016 0.603799 0.249099
O61   O     O_R   0.339214 0.783566 0.729784 -0.426348
O62   O     O_R   0.398824 0.739497 0.608693 -0.329978
N12   N     N_R   0.362214 0.226636 0.104735 0.249020
O63   O     O_R   0.338209 0.216012 0.230503 -0.425972
O64   O     O_R   0.397747 0.260204 0.110031 -0.329970
C157  C     C_1   0.168681 0.801053 0.561698 0.086431
N13   N     N_1   0.148724 0.804118 0.436689 -0.064843
C158  C     C_1   0.167248 0.198168 0.063159 0.111581
N14   N     N_1   0.147388 0.195092 0.938057 -0.062024
C159  C     C_1   0.667309 0.301689 0.563049 0.110784
N15   N     N_1   0.647430 0.304751 0.437962 -0.062264
C160  C     C_1   0.667949 0.698558 0.061510 0.111831
N16   N     N_1   0.648195 0.695564 0.936277 -0.062680
N17   N     N_R   0.253083 0.639668 0.541350 0.205545
O65   O     O_R   0.209100 0.633230 0.622282 -0.440835
O66   O     O_R   0.303224 0.626768 0.600444 -0.386180
N18   N     N_R   0.251887 0.359907 0.042361 0.205159
O67   O     O_R   0.208234 0.365809 0.125030 -0.434792
O68   O     O_R   0.302076 0.372925 0.100598 -0.386916
N19   N     N_R   0.752097 0.140021 0.542024 0.205285
O69   O     O_R   0.708342 0.134178 0.624323 -0.434922
O70   O     O_R   0.802221 0.126882 0.600468 -0.386876
N20   N     N_R   0.751939 0.859804 0.041798 0.205394
O71   O     O_R   0.708437 0.865954 0.124830 -0.435016
O72   O     O_R   0.802257 0.872785 0.099228 -0.383369
N21   N     N_R   0.993846 0.251920 0.228484 0.210020
O73   O     O_R   0.035505 0.225494 0.194437 -0.391187
O74   O     O_R   0.959423 0.239528 0.332407 -0.400945
N22   N     N_R   0.991511 0.751846 0.714764 0.231236
O75   O     O_R   0.036932 0.757206 0.807827 -0.449372
O76   O     O_R   0.956192 0.785221 0.691812 -0.354292
N23   N     N_R   0.494378 0.751925 0.228408 0.209846
O77   O     O_R   0.535999 0.725518 0.193896 -0.391492
O78   O     O_R   0.460094 0.739491 0.332599 -0.401624
N24   N     N_R   0.493491 0.247981 0.729124 0.210147
O79   O     O_R   0.458855 0.260396 0.832582 -0.400919
O80   O     O_R   0.535426 0.274253 0.696376 -0.391599
N25   N     N_R   0.204743 0.475919 0.329619 0.162893
O81   O     O_R   0.230358 0.440948 0.391262 -0.415939
O82   O     O_R   0.155819 0.487940 0.377516 -0.473890
N26   N     N_R   0.204916 0.523783 0.829705 0.163028
O83   O     O_R   0.230609 0.558689 0.891466 -0.416859
O84   O     O_R   0.156013 0.511837 0.877765 -0.473681
N27   N     N_R   0.704764 0.976019 0.329647 0.163033
O85   O     O_R   0.730374 0.941054 0.391348 -0.414784
O86   O     O_R   0.655864 0.988072 0.377635 -0.473475
N28   N     N_R   0.704824 0.023866 0.829698 0.162943
O87   O     O_R   0.730478 0.058780 0.891522 -0.416216
O88   O     O_R   0.655896 0.011910 0.877581 -0.473509
C161  C     C_1   0.164042 0.453976 0.106101 0.280529
N29   N     N_1   0.125882 0.430961 0.078306 0.032868
C162  C     C_1   0.164102 0.545642 0.606195 0.281834
N30   N     N_1   0.125717 0.568453 0.578340 0.032471
C163  C     C_1   0.664017 0.954054 0.106169 0.280057
N31   N     N_1   0.625824 0.931072 0.078387 0.032908
C164  C     C_1   0.664187 0.045934 0.606208 0.279784
N32   N     N_1   0.626102 0.069053 0.578352 0.032785

loop_
_geom_bond_atom_site_label_1
_geom_bond_atom_site_label_2
_geom_bond_distance
_ccdc_geom_bond_type
C19   H27   1.108724 S    
C59   H75   1.077944 S    
C5    N21   1.462948 S    
C2    H10   1.109361 S    
C112  C116  1.418249 A    
C105  H81   1.071596 S    
C102  H78   1.079428 S    
C72   C116  1.405358 A    
C33   C89   1.408800 A    
C43   C45   1.403912 A    
C118  C130  1.396089 A    
C33   C55   1.431713 A    
C109  C113  1.418354 A    
C36   C92   1.408817 A    
C146  C150  1.413645 A    
C111  C115  1.418209 A    
P5    Ba1   3.482302 S    
C137  N9    1.429130 S    
C41   C47   1.404053 A    
C35   C53   1.431227 A    
C89   C93   1.438596 A    
C20   H28   1.108723 S    
C54   C70   1.419471 A    
C122  N18   1.423993 S    
C29   H53   1.111379 S    
C48   C160  1.445959 S    
N20   O71   1.293614 A    
O29   Ba1   2.835267 S    
C32   H56   1.111397 S    
C77   C81   1.409386 A    
O42   C6    1.407488 S    
O31   Ba3   2.835267 S    
N8    O55   1.293791 A    
C31   H55   1.111762 S    
P4    O8    1.583394 S    
C130  C138  1.401530 A    
C7    N23   1.462827 S    
C14   C162  1.430732 S    
C17   H29   1.107688 S    
C58   H74   1.077915 S    
P9    O41   1.751597 S    
C8    C12   1.523596 S    
C66   C86   1.437118 A    
P11   O43   1.751332 S    
C92   C96   1.438147 A    
C5    C9    1.523583 S    
P6    O45   1.589348 S    
C40   C104  1.412264 A    
C33   C37   1.408865 A    
O40   C15   1.419166 S    
C23   H39   1.110616 S    
C16   N28   1.420810 S    
N7    O53   1.293841 A    
C61   C73   1.421169 A    
C78   H70   1.072892 S    
N11   O62   1.302933 A    
C26   H42   1.110555 S    
C147  C151  1.414437 A    
C18   H26   1.108729 S    
P16   C143  1.906982 S    
C141  C145  1.419311 A    
C143  C147  1.419611 A    
C94   C134  1.435622 A    
P12   O44   1.751597 S    
O11   Ba3   2.832921 S    
C145  N5    1.413486 S    
N19   O69   1.293566 A    
C76   C80   1.416486 A    
P7    C84   1.936481 S    
P3    C151  1.944025 S    
C46   C50   1.419098 A    
P6    Ba2   3.483107 S    
P5    O46   1.588685 S    
C68   C88   1.437313 A    
C34   C56   1.431401 A    
C4    H12   1.110211 S    
C162  N30   1.138411 T    
C20   C156  1.464798 S    
C19   H31   1.107699 S    
C126  H86   1.081365 S    
C38   C42   1.402399 A    
O25   Ba1   2.869409 S    
O5    Ba2   2.854408 S    
C115  C117  1.428772 A    
O24   P15   1.751074 S    
C81   C85   1.443929 A    
O27   Ba3   2.869409 S    
O7    Ba4   2.854408 S    
O30   Ba2   2.834765 S    
C147  N7    1.413535 S    
C12   H20   1.107088 S    
C123  N19   1.424099 S    
C8    N24   1.462987 S    
C139  N11   1.429046 S    
C11   H23   1.111034 S    
O15   P16   1.542411 D    
C18   H30   1.107669 S    
C28   H48   1.110359 S    
O13   P14   1.542412 D    
P10   O42   1.752944 S    
C1    H9    1.110065 S    
C128  H88   1.081335 S    
C1    C29   1.522281 S    
P7    Ba3   3.482302 S    
C98   C102  1.412912 A    
C15   C19   1.568079 S    
C107  H83   1.071578 S    
C27   H43   1.110555 S    
C108  H84   1.071498 S    
C89   C117  1.409466 A    
P13   C142  1.907942 S    
H1    C29   1.110168 S    
N11   O61   1.299586 A    
C25   H41   1.110545 S    
P9    C74   1.896459 S    
C136  C144  1.432229 A    
C5    H13   1.114084 S    
C50   C58   1.413910 A    
C7    H15   1.114148 S    
C48   C52   1.419175 A    
C131  C139  1.402026 A    
C95   C99   1.437874 A    
N17   O65   1.293351 A    
Ba3   Ba4   4.761970 S    
P3    O7    1.584051 S    
C7    C11   1.523573 S    
N24   O79   1.300205 A    
C39   C103  1.412300 A    
C87   C107  1.412283 A    
O11   P16   1.730621 S    
C90   C118  1.409268 A    
C91   C95   1.438276 A    
C100  C104  1.412824 A    
C138  N10   1.427104 S    
N22   O75   1.298192 A    
O26   Ba2   2.870789 S    
O6    Ba1   2.853911 S    
O21   C29   1.404279 S    
O9    Ba1   2.832921 S    
P12   O32   1.758685 S    
C134  C142  1.432673 A    
N22   O76   1.302629 A    
C66   C70   1.432642 A    
C3    H11   1.111088 S    
C106  H82   1.071416 S    
Ba3   O47   2.852346 S    
P6    C81   1.933607 S    
C44   C46   1.403929 A    
P8    C83   1.936486 S    
P5    O25   1.585453 D    
C75   C79   1.416328 A    
N9    O58   1.302909 A    
C110  C114  1.418039 A    
C104  H80   1.079467 S    
N26   O84   1.288123 A    
C63   C67   1.420211 A    
C20   H32   1.107696 S    
C36   C54   1.431352 A    
C6    N22   1.468260 S    
C128  C132  1.394658 A    
C144  C148  1.419108 A    
C67   C87   1.437351 A    
N10   O59   1.300560 A    
O17   C21   1.409211 S    
C82   C86   1.443688 A    
C77   H69   1.072653 S    
C4    C32   1.522240 S    
C10   H62   1.104566 S    
C94   C98   1.436988 A    
C129  C137  1.402387 A    
C56   C72   1.419690 A    
C24   H36   1.110419 S    
N7    O54   1.295159 A    
N6    O52   1.294974 A    
C64   C76   1.420912 A    
Ba2   O45   3.043992 S    
P2    O18   1.750171 S    
H3    C31   1.110361 S    
C74   C78   1.416308 A    
H4    C32   1.110192 S    
C148  C152  1.414238 A    
C68   C72   1.432563 A    
O22   C30   1.403897 S    
C86   C106  1.412356 A    
N20   O72   1.301978 A    
C26   H46   1.110346 S    
Ba1   O46   3.044378 S    
O38   C13   1.419136 S    
C21   H33   1.110419 S    
C124  N20   1.424071 S    
N19   O70   1.301964 A    
O43   C7    1.408541 S    
O20   C24   1.409216 S    
C4    H60   1.109301 S    
N12   O64   1.302918 A    
P5    O37   1.797594 S    
C109  C121  1.412848 A    
C13   C17   1.568177 S    
C15   C163  1.431474 S    
C111  C123  1.413026 A    
O10   Ba2   2.833416 S    
P8    Ba4   3.483107 S    
C142  C146  1.418046 A    
C8    H16   1.114081 S    
C95   C135  1.435789 A    
C92   C120  1.409156 A    
C134  C138  1.429015 A    
P4    C152  1.942482 S    
C23   H35   1.110439 S    
C60   H76   1.077926 S    
C28   H52   1.109258 S    
C62   C66   1.420201 A    
C46   C158  1.445955 S    
C13   C161  1.431506 S    
C45   C49   1.418999 A    
C16   C20   1.568084 S    
O4    Ba4   2.868161 S    
C97   C101  1.412873 A    
C59   C63   1.413569 A    
C105  C109  1.408903 A    
O18   C22   1.409236 S    
C21   H37   1.110647 S    
C124  C126  1.374862 A    
C18   C154  1.464558 S    
C37   C41   1.402587 A    
C99   C103  1.412717 A    
C12   H24   1.111015 S    
C9    H17   1.107132 S    
C40   C44   1.402549 A    
C11   H19   1.107223 S    
N28   O87   1.305041 A    
C42   C48   1.403995 A    
P12   C75   1.896589 S    
C158  N14   1.157355 T    
O14   P13   1.542355 D    
C34   C90   1.408583 A    
C2    C30   1.522028 S    
C101  H77   1.079525 S    
N27   O85   1.305041 A    
P1    O17   1.750169 S    
N21   O74   1.300204 A    
O10   P13   1.732138 S    
C148  N8    1.413423 S    
O12   P15   1.731125 S    
P1    O1    1.584510 D    
C60   C64   1.413638 A    
Ba4   O47   3.043992 S    
P1    C149  1.943835 S    
C27   H47   1.110364 S    
P6    O38   1.797495 S    
P3    O3    1.584510 D    
N25   O82   1.288130 A    
P4    O20   1.750148 S    
P14   C141  1.907562 S    
H2    C30   1.110500 S    
C14   C18   1.568020 S    
C55   C71   1.419630 A    
P8    O28   1.585087 D    
C50   C54   1.411761 A    
C53   C69   1.419633 A    
N5    O50   1.295097 A    
P1    Ba1   3.482344 S    
C49   C57   1.413571 A    
P3    Ba3   3.482344 S    
O23   P16   1.751064 S    
N18   O68   1.301979 A    
C52   C60   1.413885 A    
O41   C5    1.408659 S    
O21   P14   1.751040 S    
C93   C133  1.436023 A    
C64   C68   1.419834 A    
C100  C152  1.437283 A    
C9    H21   1.111021 S    
C156  N4    1.156209 T    
C2    H6    1.107775 S    
C67   C71   1.433011 A    
C3    C31   1.522300 S    
C6    C10   1.524555 S    
C65   C85   1.437098 A    
C1    H57   1.109181 S    
P15   C144  1.907209 S    
C133  C137  1.430710 A    
N24   O80   1.300808 A    
P9    O33   1.547407 D    
C135  C139  1.430812 A    
P10   O30   1.762667 S    
C79   H71   1.072906 S    
C136  C140  1.430514 A    
P11   O35   1.547285 D    
P12   O36   1.547464 D    
C160  N16   1.157357 T    
C135  C143  1.432126 A    
P3    O19   1.750157 S    
C10   H18   1.106850 S    
P7    O48   1.588685 S    
C125  C129  1.394949 A    
P8    O47   1.589348 S    
C112  C124  1.413057 A    
C127  C131  1.394992 A    
C132  C140  1.402117 A    
C51   C55   1.411755 A    
C84   C88   1.443766 A    
C19   C155  1.464707 S    
P6    O26   1.585087 D    
P5    C82   1.935729 S    
P1    O5    1.584051 S    
N23   O78   1.300137 A    
C85   C105  1.411925 A    
P8    O40   1.797459 S    
C35   C91   1.408618 A    
C37   C101  1.412646 A    
C70   C114  1.405639 A    
C44   H68   1.085257 S    
C96   C100  1.437436 A    
O12   Ba4   2.833416 S    
C161  N29   1.138676 T    
C11   H63   1.107006 S    
P2    Ba2   3.481556 S    
O23   C31   1.404292 S    
C24   H40   1.110628 S    
Ba1   O45   2.852346 S    
C14   N26   1.421006 S    
N10   O60   1.303224 A    
C35   C39   1.408855 A    
C140  N12   1.429216 S    
C120  C132  1.396679 A    
C10   H22   1.110257 S    
C25   H49   1.109264 S    
Ba1   Ba2   4.761970 S    
C117  C129  1.396689 A    
C155  N3    1.156202 T    
C13   N25   1.420716 S    
C22   C26   1.520765 S    
C119  C131  1.396484 A    
O3    Ba3   2.869523 S    
C16   C164  1.431572 S    
C41   H65   1.085254 S    
C145  C149  1.414315 A    
C110  C122  1.413128 A    
C1    H5    1.107396 S    
C43   H67   1.085253 S    
C36   C40   1.408717 A    
C63   C75   1.421422 A    
C116  C118  1.428166 A    
C6    H14   1.114089 S    
C90   C94   1.438436 A    
C9    H61   1.107028 S    
O1    Ba1   2.869523 S    
C79   C83   1.411144 A    
C154  N2    1.156175 T    
C17   C153  1.464732 S    
N9    O57   1.299633 A    
C3    H7    1.108174 S    
N23   O77   1.300916 A    
C103  H79   1.079455 S    
P4    O4    1.584877 D    
P9    O29   1.758366 S    
C164  N32   1.138665 T    
C153  N1    1.156208 T    
C47   C159  1.445951 S    
C38   C102  1.412562 A    
C69   C113  1.405374 A    
C113  C119  1.428460 A    
C83   C87   1.444086 A    
C42   H66   1.085261 S    
C114  C120  1.428390 A    
C71   C115  1.405613 A    
N27   O86   1.288176 A    
C21   C25   1.520776 S    
C106  C110  1.408595 A    
C88   C108  1.412073 A    
C23   C27   1.520801 S    
C15   N27   1.420829 S    
Ba2   O46   2.851845 S    
C80   C84   1.411229 A    
C65   C69   1.432462 A    
C91   C119  1.409567 A    
C12   H64   1.107006 S    
C57   C61   1.414227 A    
C96   C136  1.436019 A    
P4    Ba4   3.481556 S    
N17   O66   1.302056 A    
N18   O67   1.293544 A    
O2    Ba2   2.868161 S    
P2    O2    1.584877 D    
C27   H51   1.109245 S    
O9    P14   1.731464 S    
P2    C150  1.940372 S    
C28   H44   1.110567 S    
P7    O39   1.797426 S    
C47   C51   1.419143 A    
C62   C74   1.421194 A    
C107  C111  1.408943 A    
C121  C127  1.374800 A    
C57   H73   1.078000 S    
C122  C128  1.374775 A    
C4    H8    1.107539 S    
C125  H85   1.081307 S    
C49   C53   1.411580 A    
P11   C76   1.895718 S    
C78   C82   1.411157 A    
C39   C43   1.402585 A    
C52   C56   1.411594 A    
C121  N17   1.424090 S    
C98   C150  1.437515 A    
O22   P13   1.750994 S    
O32   Ba4   2.834765 S    
C127  H87   1.081297 S    
C73   C77   1.414501 A    
O16   P15   1.542401 D    
O44   C8    1.408713 S    
C97   C149  1.437970 A    
C22   H34   1.110407 S    
Ba3   O48   3.044378 S    
C2    H58   1.109781 S    
O37   C14   1.418886 S    
O24   C32   1.404309 S    
C30   H54   1.111257 S    
O39   C16   1.419265 S    
P10   O34   1.547327 D    
P11   O31   1.757765 S    
C108  C112  1.408611 A    
P2    O6    1.583394 S    
C45   C157  1.445979 S    
N26   O83   1.305008 A    
P7    O27   1.585453 D    
C25   H45   1.110352 S    
C123  C125  1.375015 A    
C26   H50   1.109286 S    
N28   O88   1.288143 A    
C126  C130  1.394732 A    
C51   C59   1.414123 A    
N8    O56   1.295123 A    
N21   O73   1.300830 A    
N6    O51   1.293679 A    
Ba4   O48   2.851845 S    
C80   H72   1.072960 S    
N25   O81   1.305038 A    
C99   C151  1.437709 A    
C163  N31   1.138655 T    
C146  N6    1.413294 S    
C61   C65   1.419324 A    
C34   C38   1.408786 A    
N5    O49   1.293770 A    
C3    H59   1.110126 S    
C58   C62   1.413455 A    
O19   C23   1.409199 S    
C22   H38   1.110655 S    
P10   C73   1.892873 S    
C93   C97   1.437851 A    
N12   O63   1.299625 A    
C24   C28   1.520781 S    
C157  N13   1.157354 T    
C159  N15   1.157356 T    
O28   Ba4   2.870789 S    
O8    Ba3   2.853911 S    
C17   H25   1.108679 S    
C133  C141  1.432511 A    
