data_mof_unit_50703.cif
_audit_creation_date              2012-12-10T19:25:05-0500
_audit_creation_method            fapswitch 2.2
_symmetry_space_group_name_H-M    P1
_symmetry_Int_Tables_number       1
_space_group_crystal_system       triclinic
_cell_length_a                    15.730827
_cell_length_b                    10.679111
_cell_length_c                    9.845507
_cell_angle_alpha                 90.126848
_cell_angle_beta                  89.934679
_cell_angle_gamma                 90.632937
_cell_volume                      1653.85300489

loop_
_atom_site_label
_atom_site_type_symbol
_atom_type_description
_atom_site_fract_x
_atom_site_fract_y
_atom_site_fract_z
_atom_type_partial_charge
C1    C     C_R   0.505926 0.258915 0.499709 0.926373
C2    C     C_3   0.524602 0.606743 0.951449 -0.099942
C3    C     C_3   0.550579 0.415932 0.951113 -0.087888
C4    C     C_3   0.449310 0.583616 0.048730 -0.076037
C5    C     C_3   0.425055 0.475814 0.951963 -0.074969
C6    C     C_3   0.575148 0.523034 0.048284 -0.051660
C7    C     C_R   0.338485 0.495711 0.499919 0.869647
C8    C     C_R   0.661651 0.503935 0.500163 0.895523
C9    C     C_3   0.966417 0.401835 0.594236 0.381622
C10   C     C_3   0.033657 0.582169 0.434917 0.373518
C11   C     C_3   0.019446 0.379273 0.464265 0.414902
C12   C     C_R   0.491363 0.741633 0.500981 0.898905
C13   C     C_3   0.982110 0.605129 0.566042 0.303232
C14   C     C_1   0.249981 0.484177 0.500017 -0.182166
C15   C     C_1   0.750479 0.512549 0.502045 -0.209559
C16   C     C_3   0.032112 0.501291 0.639261 0.016679
C17   C     C_3   0.969982 0.481045 0.389581 0.005729
C18   C     C_3   0.084288 0.479356 0.509065 -0.120733
C19   C     C_3   0.916159 0.504839 0.518385 -0.200673
C20   C     C_1   0.174907 0.477279 0.502712 0.076497
C21   C     C_1   0.825690 0.514856 0.508742 0.020795
C22   C     C_3   0.530155 0.042310 0.618099 0.095418
C23   C     C_3   0.571180 0.951035 0.517685 0.134674
C24   C     C_3   0.461031 0.963680 0.384251 0.065550
C25   C     C_3   0.963846 0.191713 0.384126 0.138398
C26   C     C_3   0.960474 0.077844 0.477360 -0.329708
C27   C     C_3   0.869963 0.027476 0.493958 -0.929377
C28   C     C_3   0.031593 0.792291 0.659622 0.070280
C29   C     C_3   0.011228 0.872614 0.783230 -0.339849
C30   C     C_3   0.084203 0.961771 0.819782 -0.956429
C31   C     C_3   0.861339 0.311648 0.735400 0.082823
C32   C     C_3   0.858721 0.413693 0.844700 -0.353366
C33   C     C_3   0.771625 0.422392 0.910661 -0.980501
C34   C     C_3   0.420180 0.053665 0.487515 0.130492
C35   C     C_3   0.023258 0.770624 0.314323 0.100646
C36   C     C_3   0.989144 0.766169 0.169091 -0.335384
C37   C     C_3   0.942210 0.886659 0.135304 -1.009500
C38   C     C_3   0.002835 0.438229 0.151554 -0.725283
C39   C     C_3   0.109255 0.404979 0.828744 -0.738535
C40   C     C_3   0.693978 0.834065 0.427817 -0.759876
C41   C     C_3   0.262904 0.048436 0.493602 -0.732089
C42   C     C_3   0.654227 0.139221 0.731369 -0.786530
C43   C     C_3   0.361420 0.001546 0.193050 -0.766601
C44   C     C_3   0.371808 0.854801 0.776579 0.086421
C45   C     C_3   0.485752 0.877621 0.504998 -0.381862
C46   C     C_3   0.298269 0.787498 0.704374 -0.354022
C47   C     C_3   0.261977 0.682811 0.792082 -0.940722
C48   C     C_3   0.583033 0.081958 0.173948 0.131275
C49   C     C_3   0.597676 0.954409 0.106395 -0.336108
C50   C     C_3   0.535477 0.930046 0.990441 -0.903818
C51   C     C_3   0.504990 0.125001 0.499460 -0.293574
C52   C     C_3   0.444864 0.970960 0.609109 0.430196
C53   C     C_3   0.547087 0.035569 0.397627 0.468508
C54   C     C_3   0.475814 0.392526 0.048470 -0.067776
H1    H     H_    0.592090 0.343712 0.906485 0.122467
H2    H     H_    0.986813 0.100672 0.578858 0.277124
H3    H     H_    0.831346 0.094385 0.553527 0.269472
H4    H     H_    0.870774 0.936585 0.548154 0.287865
H5    H     H_    0.839766 0.013955 0.393389 0.262809
H6    H     H_    0.048916 0.853972 0.573841 0.138709
H7    H     H_    0.088382 0.735693 0.683555 0.162795
H8    H     H_    0.953126 0.927956 0.763740 0.237971
H9    H     H_    0.998805 0.808893 0.869692 0.226480
H10   H     H_    0.140363 0.908179 0.853274 0.268668
H11   H     H_    0.064342 0.023782 0.904442 0.271917
H12   H     H_    0.406061 0.654258 0.093026 0.114368
H13   H     H_    0.101841 0.021081 0.731428 0.264381
H14   H     H_    0.845696 0.220980 0.785118 0.162860
H15   H     H_    0.812147 0.322747 0.656359 0.141915
H16   H     H_    0.905597 0.389793 0.923535 0.227335
H17   H     H_    0.875363 0.506505 0.801214 0.241515
H18   H     H_    0.723348 0.446215 0.833148 0.290424
H19   H     H_    0.773202 0.497268 0.988995 0.264452
H20   H     H_    0.754226 0.332551 0.960557 0.252130
H21   H     H_    0.065413 0.854150 0.322902 0.145663
H22   H     H_    0.968468 0.783299 0.384119 0.170362
H23   H     H_    0.453896 0.302432 0.092743 0.105130
H24   H     H_    0.042464 0.752670 0.096598 0.229014
H25   H     H_    0.943226 0.687713 0.158249 0.248963
H26   H     H_    0.891623 0.903804 0.211262 0.269321
H27   H     H_    0.910758 0.878325 0.035005 0.266724
H28   H     H_    0.987237 0.967441 0.133583 0.269757
H29   H     H_    0.882443 0.420392 0.241678 0.222141
H30   H     H_    0.992398 0.495555 0.060095 0.213921
H31   H     H_    0.998534 0.337377 0.124607 0.220943
H32   H     H_    0.068347 0.459522 0.187622 0.281699
H33   H     H_    0.027094 0.556689 0.842262 0.226419
H34   H     H_    0.550011 0.692191 0.903091 0.127423
H35   H     H_    0.061800 0.331882 0.856869 0.266803
H36   H     H_    0.145267 0.432331 0.921256 0.229220
H37   H     H_    0.154815 0.366040 0.754074 0.255450
H38   H     H_    0.653547 0.839901 0.629281 0.234868
H39   H     H_    0.653071 0.759535 0.383881 0.244434
H40   H     H_    0.754317 0.791282 0.461685 0.240338
H41   H     H_    0.709794 0.903803 0.348552 0.270888
H42   H     H_    0.338968 0.206586 0.515593 0.228174
H43   H     H_    0.210758 0.090230 0.433539 0.246635
H44   H     H_    0.245039 0.053580 0.602470 0.252330
H45   H     H_    0.362705 0.446458 0.909454 0.122717
H46   H     H_    0.270093 0.949224 0.461938 0.233533
H47   H     H_    0.528515 0.148683 0.794463 0.255693
H48   H     H_    0.675981 0.170665 0.833049 0.215438
H49   H     H_    0.657061 0.219753 0.660361 0.245868
H50   H     H_    0.698650 0.065955 0.697459 0.259905
H51   H     H_    0.397224 0.828059 0.266600 0.240356
H52   H     H_    0.362494 0.982974 0.082628 0.226404
H53   H     H_    0.378101 0.101610 0.209584 0.252824
H54   H     H_    0.295596 0.983606 0.228788 0.248838
H55   H     H_    0.352186 0.871326 0.883172 0.159233
H56   H     H_    0.638242 0.544323 0.093446 0.126509
H57   H     H_    0.429584 0.797617 0.783748 0.163331
H58   H     H_    0.246208 0.853735 0.684307 0.226973
H59   H     H_    0.320394 0.749364 0.605766 0.206278
H60   H     H_    0.313424 0.620501 0.823461 0.280238
H61   H     H_    0.214774 0.627903 0.733389 0.286350
H62   H     H_    0.230759 0.721359 0.884099 0.253499
H63   H     H_    0.621058 0.153490 0.118112 0.132929
H64   H     H_    0.516614 0.113973 0.166582 0.149086
H65   H     H_    0.664091 0.951056 0.067795 0.194806
H66   H     H_    0.590411 0.877673 0.181668 0.240332
H67   H     H_    0.964686 0.158701 0.277144 0.130247
H68   H     H_    0.489152 0.856311 0.020336 0.248398
H69   H     H_    0.570547 0.898795 0.898958 0.266065
H70   H     H_    0.498230 0.013936 0.964423 0.268757
H71   H     H_    0.904013 0.246081 0.395386 0.133690
H72   H     H_    0.000941 0.005225 0.432752 0.178004
N1    N     N_3   0.499940 0.500030 0.863290 -0.075396
N2    N     N_3   0.500060 0.499970 0.136710 -0.074359
N3    N     N_2   0.939008 0.469053 0.252021 -0.301152
N4    N     N_2   0.067327 0.513825 0.774534 -0.310632
N5    N     N_2   0.652922 0.893379 0.542227 -0.285734
N6    N     N_2   0.340312 0.119328 0.470804 -0.278373
N7    N     N_2   0.568395 0.090022 0.741824 -0.289518
N8    N     N_2   0.420033 0.918612 0.260865 -0.291980
O1    O     O_R   0.500000 0.313960 0.616610 -0.624190
O2    O     O_3   0.958603 0.719901 0.625915 -0.652144
O3    O     O_3   0.943314 0.300124 0.679224 -0.649933
O4    O     O_3   0.074318 0.665954 0.343762 -0.641661
O5    O     O_3   0.387102 0.972983 0.719351 -0.648100
O6    O     O_3   0.611363 0.080306 0.308928 -0.651952
O7    O     O_R   0.500000 0.686040 0.383390 -0.627539
O8    O     O_R   0.500040 0.313950 0.383350 -0.615019
O9    O     O_R   0.499960 0.686050 0.616650 -0.635177
O10   O     O_R   0.376760 0.499990 0.616610 -0.619280
O11   O     O_R   0.623240 0.500010 0.383390 -0.617851
O12   O     O_R   0.376790 0.499980 0.383350 -0.612047
O13   O     O_R   0.623210 0.500020 0.616650 -0.620545
O14   O     O_3   0.039555 0.261450 0.408547 -0.634486
Zn1   Zn    Zn3+2 0.499980 0.500010 0.655740 0.924516
Zn2   Zn    Zn3+2 0.500020 0.499990 0.344260 0.940406

loop_
_geom_bond_atom_site_label_1
_geom_bond_atom_site_label_2
_ccdc_geom_bond_type
C47   H60   S    
C29   H9    S    
C11   C18   S    
C23   C45   S    
C46   H58   S    
C53   O6    S    
C35   C36   S    
C50   H68   S    
C40   H39   S    
C3    C6    S    
C42   H49   S    
C47   H61   S    
C35   H21   S    
C34   C51   S    
C29   C30   S    
C38   H32   S    
C42   N7    S    
C24   C45   S    
H33   N4    S    
C28   C29   S    
O13   Zn1   S    
C9    C16   S    
H29   N3    S    
C30   H10   S    
C35   O4    S    
C3    C54   S    
C3    N1    S    
C11   O14   S    
C49   H66   S    
C10   C17   S    
C24   N8    S    
C52   O5    S    
C12   O7    A    
C26   H72   S    
C25   H71   S    
C1    O8    A    
C33   H18   S    
O12   Zn2   S    
C9    O3    S    
C9    C19   S    
C7    C14   S    
C11   C17   S    
C5    H45   S    
C10   C13   S    
C2    H34   S    
C31   O3    S    
C16   N4    S    
C39   H36   S    
O11   Zn2   S    
H42   N6    S    
C7    O12   A    
C2    N1    S    
C34   N6    S    
C6    H56   S    
C37   H27   S    
C2    C6    S    
C3    H1    S    
C42   H48   S    
C39   H37   S    
C7    O10   A    
C44   C46   S    
O7    Zn2   S    
C23   C53   S    
C32   H17   S    
C28   H6    S    
C31   H14   S    
C37   H26   S    
C35   H22   S    
C4    N2    S    
C28   H7    S    
C17   N3    S    
C30   H11   S    
C38   N3    S    
C14   C20   T    
C5    C54   S    
H38   N5    S    
C50   H70   S    
C27   H3    S    
C13   C19   S    
C4    C5    S    
C48   H64   S    
C22   N7    S    
C45   C52   S    
C24   C53   S    
O1    Zn1   S    
C54   N2    S    
C36   H25   S    
C24   C34   S    
C26   H2    S    
C51   C53   S    
C43   H52   S    
C43   N8    S    
C2    C4    S    
O10   Zn1   S    
C9    C11   S    
C31   H15   S    
C31   C32   S    
C15   C21   T    
C38   H31   S    
C48   O6    S    
C5    N1    S    
C8    O11   A    
C26   C27   S    
C41   H46   S    
C23   N5    S    
C43   H53   S    
C1    C51   S    
N2    Zn2   S    
C48   C49   S    
C40   N5    S    
C8    C15   S    
C13   O2    S    
C41   H43   S    
C37   H28   S    
C8    O13   A    
C40   H41   S    
C22   C52   S    
C33   H19   S    
C29   H8    S    
C36   C37   S    
C46   H59   S    
C38   H30   S    
C28   O2    S    
C22   C23   S    
C50   H69   S    
C30   H13   S    
C40   H40   S    
C12   C45   S    
C27   H4    S    
C42   H50   S    
C41   N6    S    
C32   H16   S    
C48   H63   S    
C39   N4    S    
H47   N7    S    
C44   O5    S    
C34   C52   S    
C12   O9    A    
C32   C33   S    
C54   H23   S    
C25   C26   S    
C6    N2    S    
C27   H5    S    
C44   H55   S    
C4    H12   S    
O8    Zn2   S    
C49   H65   S    
C10   C18   S    
C47   H62   S    
C17   C19   S    
C25   O14   S    
C18   C20   S    
C43   H54   S    
C46   C47   S    
C44   H57   S    
C33   H20   S    
O9    Zn1   S    
C16   C18   S    
C49   C50   S    
C13   C16   S    
C41   H44   S    
C22   C51   S    
C36   H24   S    
C10   O4    S    
C1    O1    A    
C25   H67   S    
C39   H35   S    
N1    Zn1   S    
H51   N8    S    
C19   C21   S    
