data_mof_unit_64046.cif
_audit_creation_date              2012-12-10T17:00:44-0500
_audit_creation_method            fapswitch 2.2
_symmetry_space_group_name_H-M    P1
_symmetry_Int_Tables_number       1
_space_group_crystal_system       triclinic
_cell_length_a                    13.119601
_cell_length_b                    13.112472
_cell_length_c                    19.530828
_cell_angle_alpha                 100.142882
_cell_angle_beta                  80.323957
_cell_angle_gamma                 90.988931
_cell_volume                      3260.07148929

loop_
_atom_site_label
_atom_site_type_symbol
_atom_type_description
_atom_site_fract_x
_atom_site_fract_y
_atom_site_fract_z
_atom_type_partial_charge
C1    C     C_R   0.223072 0.535993 0.526954 0.513454
C2    C     C_2   0.452042 0.507271 0.986667 -0.144075
C3    C     C_2   0.531964 0.475867 0.012713 -0.142683
C4    C     C_R   0.776147 0.463391 0.472968 0.507211
C5    C     C_R   0.516629 0.482314 0.233512 0.020827
C6    C     C_2   0.887637 0.450883 0.462081 -0.083035
C7    C     C_2   0.940488 0.494262 0.512058 -0.150018
C8    C     C_2   0.110156 0.546324 0.540691 -0.106183
C9    C     C_2   0.053517 0.487956 0.498319 -0.153097
C10   C     C_2   0.545121 0.887799 0.529748 -0.083113
C11   C     C_2   0.507612 0.940368 0.486800 -0.149905
C12   C     C_R   0.459024 0.506730 0.910727 0.040544
C13   C     C_2   0.458684 0.110204 0.466852 -0.105478
C14   C     C_2   0.512250 0.053529 0.499448 -0.152565
C15   C     C_R   0.467221 0.223238 0.478872 0.512458
C16   C     C_R   0.533736 0.776317 0.521118 0.508968
C17   C     C_R   0.510680 0.486757 0.309520 0.503546
C18   C     C_R   0.488803 0.512778 0.690533 0.503955
C19   C     C_R   0.478845 0.512475 0.766395 0.035274
C20   C     C_R   0.528106 0.433898 0.789508 -0.126975
C21   C     C_R   0.517752 0.430596 0.860916 -0.113689
C22   C     C_3   0.709846 0.556353 0.082415 -0.282448
C23   C     C_R   0.407467 0.583830 0.887883 -0.118021
C24   C     C_3   0.791256 0.470387 0.056348 -0.441752
C25   C     C_R   0.417648 0.587079 0.816009 -0.126490
C26   C     C_R   0.612526 0.515991 0.121809 0.032076
C27   C     C_R   0.605675 0.517161 0.194157 -0.111493
C28   C     C_R   0.433748 0.444972 0.200062 -0.136911
C29   C     C_R   0.439136 0.443986 0.128260 -0.129626
C30   C     C_R   0.527693 0.479719 0.088713 0.048857
H1    H     H_    0.574233 0.374214 0.752396 0.135142
H2    H     H_    0.576303 0.927828 0.575198 0.090878
H3    H     H_    0.670447 0.545327 0.219741 0.131984
H4    H     H_    0.364430 0.417483 0.229486 0.133702
H5    H     H_    0.604482 0.452721 0.978018 0.124029
H6    H     H_    0.361049 0.642529 0.925705 0.104743
H7    H     H_    0.377931 0.647747 0.799346 0.132386
H8    H     H_    0.383166 0.540182 0.022219 0.121084
H9    H     H_    0.555257 0.367899 0.876923 0.105778
H10   H     H_    0.812631 0.439941 0.101693 0.154128
H11   H     H_    0.761594 0.405984 0.020242 0.149704
H12   H     H_    0.374360 0.414112 0.103312 0.112972
H13   H     H_    0.861613 0.501570 0.027350 0.139295
H14   H     H_    0.693327 0.590379 0.037190 0.147512
H15   H     H_    0.742163 0.620161 0.117660 0.139142
H16   H     H_    0.090977 0.435018 0.451978 0.160301
H17   H     H_    0.900330 0.536987 0.561881 0.132279
H18   H     H_    0.073059 0.600723 0.586298 0.107464
H19   H     H_    0.927314 0.413658 0.410563 0.090063
H20   H     H_    0.559793 0.091056 0.536942 0.161379
H21   H     H_    0.470706 0.899934 0.444037 0.132986
H22   H     H_    0.409613 0.073022 0.430345 0.108027
O1    O     O_3   0.500000 0.500000 0.500000 -0.437782
O2    O     O_R   0.441420 0.437150 0.344000 -0.545428
O3    O     O_R   0.438960 0.578560 0.667440 -0.547701
O4    O     O_R   0.575450 0.541060 0.341470 -0.549995
O5    O     O_R   0.544160 0.443230 0.647100 -0.548898
O6    O     O_R   0.530110 0.266880 0.518530 -0.541888
O7    O     O_R   0.465470 0.738830 0.563940 -0.535979
O8    O     O_R   0.266890 0.467300 0.476120 -0.541597
O9    O     O_R   0.737530 0.526990 0.441410 -0.537571
O10   O     O_R   0.276880 0.592620 0.567490 -0.538045
O11   O     O_R   0.718700 0.413090 0.514970 -0.533525
O12   O     O_R   0.414920 0.276880 0.447500 -0.538570
O13   O     O_R   0.589510 0.717410 0.470040 -0.532212
Zn1   Zn    Zn3+2 0.571990 0.407410 0.544380 0.933626
Zn2   Zn    Zn3+2 0.407420 0.421690 0.442900 0.935117
Zn3   Zn    Zn3+2 0.598910 0.570150 0.439280 0.936788
Zn4   Zn    Zn3+2 0.421690 0.600750 0.573440 0.939071

loop_
_geom_bond_atom_site_label_1
_geom_bond_atom_site_label_2
_ccdc_geom_bond_type
C3    C30   S    
C15   O12   A    
C8    H18   S    
C6    C7    D    
O1    Zn1   S    
C23   H6    S    
C29   H12   S    
C5    C28   A    
C2    H8    S    
C18   O5    A    
C5    C27   A    
C19   C20   A    
C21   H9    S    
C3    H5    S    
O5    Zn1   S    
O13   Zn3   S    
O1    Zn4   S    
C1    O10   A    
C23   C25   A    
C2    C3    D    
O11   Zn1   S    
C28   H4    S    
C9    H16   S    
O2    Zn2   S    
C10   C16   S    
C13   C14   D    
C27   H3    S    
C24   H11   S    
C17   O2    A    
O9    Zn3   S    
C26   C27   A    
O3    Zn4   S    
C18   O3    A    
O7    Zn4   S    
C19   C25   A    
C12   C21   A    
C4    O11   A    
C28   C29   A    
C11   C14   S    
C26   C30   A    
C17   O4    A    
C13   C15   S    
C6    H19   S    
O8    Zn2   S    
O1    Zn2   S    
C15   O6    A    
C22   C24   S    
C5    C17   S    
C10   C11   D    
C14   H20   S    
C29   C30   A    
C13   H22   S    
O12   Zn2   S    
C10   H2    S    
C22   H15   S    
C11   H21   S    
C20   C21   A    
O10   Zn4   S    
C4    C6    S    
C2    C12   S    
C22   C26   S    
C1    O8    A    
C7    C9    S    
O1    Zn3   S    
C20   H1    S    
C18   C19   S    
C24   H13   S    
C12   C23   A    
C16   O13   A    
C24   H10   S    
O4    Zn3   S    
C4    O9    A    
O6    Zn1   S    
C22   H14   S    
C1    C8    S    
C25   H7    S    
C8    C9    D    
C16   O7    A    
C7    H17   S    
