data_mof_unit_57787.cif
_audit_creation_date              2012-10-26T19:15:59-0400
_audit_creation_method            fapswitch 2.2
_symmetry_space_group_name_H-M    P1
_symmetry_Int_Tables_number       1
_space_group_crystal_system       triclinic
_cell_length_a                    7.791247
_cell_length_b                    9.088757
_cell_length_c                    16.9351
_cell_angle_alpha                 89.550242
_cell_angle_beta                  94.121675
_cell_angle_gamma                 90.090004
_cell_volume                      1196.08196544

loop_
_atom_site_label
_atom_site_type_symbol
_atom_type_description
_atom_site_fract_x
_atom_site_fract_y
_atom_site_fract_z
_atom_type_partial_charge
C1    C     C_R   0.499903 0.220048 0.500016 0.561750
C2    C     C_R   0.514500 0.368294 0.138053 0.046079
C3    C     C_R   0.565443 0.511725 0.903721 0.140775
C4    C     C_R   0.434595 0.488235 0.096277 0.140774
C5    C     C_R   0.635577 0.396190 0.863159 -0.090582
C6    C     C_R   0.364341 0.603715 0.136834 -0.090606
C7    C     C_R   0.619291 0.391651 0.780440 0.225473
C8    C     C_R   0.380609 0.608264 0.219553 0.225474
C9    C     C_1   0.499886 0.065385 0.500002 0.002032
C10   C     C_1   0.500114 0.934614 0.499998 0.002020
C11   C     C_2   0.588478 0.237641 0.269052 0.279448
C12   C     C_R   0.500097 0.779952 0.499984 0.561732
C13   C     C_2   0.411748 0.762408 0.730953 0.279479
C14   C     C_2   0.585907 0.246269 0.092393 0.327636
C15   C     C_2   0.414342 0.753789 0.907619 0.327577
C16   C     C_R   0.521538 0.501072 0.651396 0.575119
C17   C     C_R   0.478463 0.498918 0.348604 0.575107
C18   C     C_R   0.535677 0.507510 0.738014 0.008071
C19   C     C_R   0.464327 0.492463 0.261986 0.008075
C20   C     C_R   0.474355 0.631313 0.777898 -0.055699
C21   C     C_R   0.525765 0.368702 0.222106 -0.055696
C22   C     C_R   0.485635 0.631717 0.861951 0.046067
Cu1   Cu    Cu3+1 0.669080 0.500010 0.500000 1.084763
Cu2   Cu    Cu3+1 0.330920 0.499990 0.500000 1.084790
H1    H     H_    0.697535 0.306443 0.896645 0.137715
H2    H     H_    0.302301 0.693418 0.103343 0.137727
H3    H     H_    0.662550 0.250848 0.325191 0.122324
H4    H     H_    0.337636 0.749237 0.674821 0.122279
H5    H     H_    0.524708 0.216577 0.035119 0.128748
H6    H     H_    0.475545 0.783412 0.964903 0.128766
H7    H     H_    0.735848 0.202397 0.778163 0.346938
H8    H     H_    0.263866 0.797432 0.221821 0.346891
N1    N     N_1   0.076820 0.499970 0.500010 -0.069571
N2    N     N_1   0.923180 0.500030 0.499990 -0.069576
N3    N     N_2   0.573027 0.502219 0.987202 -0.248098
N4    N     N_2   0.427021 0.497746 0.012795 -0.248066
O1    O     O_R   0.642760 0.288400 0.500000 -0.498925
O2    O     O_2   0.449352 0.886807 0.752800 -0.445715
O3    O     O_2   0.717728 0.182674 0.116242 -0.448995
O4    O     O_2   0.282606 0.817506 0.883764 -0.448997
O5    O     O_3   0.681755 0.274307 0.739703 -0.650186
O6    O     O_3   0.318027 0.725563 0.260285 -0.650204
O7    O     O_R   0.357240 0.711600 0.500000 -0.498920
O8    O     O_R   0.357190 0.288380 0.500000 -0.494714
O9    O     O_R   0.642810 0.711620 0.500000 -0.494707
O10   O     O_R   0.658410 0.498660 0.613920 -0.462391
O11   O     O_R   0.341590 0.501340 0.386080 -0.462342
O12   O     O_R   0.372840 0.498650 0.613930 -0.521945
O13   O     O_R   0.627160 0.501350 0.386070 -0.521980
O14   O     O_2   0.551010 0.113220 0.247197 -0.445713

loop_
_geom_bond_atom_site_label_1
_geom_bond_atom_site_label_2
_ccdc_geom_bond_type
C2    C4    A    
Cu1   Cu2   S    
C4    N4    S    
C13   H4    S    
Cu1   O9    S    
C7    C18   A    
C11   H3    S    
C9    C10   T    
C1    O8    A    
Cu2   N1    S    
C3    N3    S    
Cu1   N2    S    
C16   O12   A    
C2    C21   A    
N1    N2    T    
Cu1   O10   S    
C13   O2    D    
C6    H2    S    
C10   C12   S    
Cu2   O8    S    
C6    C8    A    
C4    C6    A    
C17   C19   S    
C20   C22   A    
C12   O7    A    
C18   C20   A    
C7    O5    S    
C2    C14   S    
C5    H1    S    
C15   O4    D    
Cu1   O13   S    
C8    C19   A    
C14   H5    S    
C16   O10   A    
Cu2   O12   S    
C1    C9    S    
C15   H6    S    
C16   C18   S    
C17   O13   A    
C5    C7    A    
Cu2   O7    S    
C11   O14   D    
C12   O9    A    
C3    C22   A    
H8    O6    S    
H7    O5    S    
C13   C20   S    
C19   C21   A    
C14   O3    D    
Cu1   O1    S    
Cu2   O11   S    
C11   C21   S    
C15   C22   S    
C17   O11   A    
C8    O6    S    
C1    O1    A    
C3    C5    A    
N3    N4    D    
