data_mof_unit_56074.cif
_audit_creation_date              2012-10-26T19:02:54-0400
_audit_creation_method            fapswitch 2.2
_symmetry_space_group_name_H-M    P1
_symmetry_Int_Tables_number       1
_space_group_crystal_system       triclinic
_cell_length_a                    15.073891
_cell_length_b                    11.044186
_cell_length_c                    9.824431
_cell_angle_alpha                 111.667506
_cell_angle_beta                  98.303698
_cell_angle_gamma                 91.14408
_cell_volume                      1499.27568943

loop_
_atom_site_label
_atom_site_type_symbol
_atom_type_description
_atom_site_fract_x
_atom_site_fract_y
_atom_site_fract_z
_atom_type_partial_charge
C1    C     C_R   0.492859 0.253598 0.439582 0.561830
C2    C     C_2   0.492417 0.489337 0.918257 -0.035448
C3    C     C_R   0.328619 0.500275 0.501073 0.549609
C4    C     C_R   0.671382 0.499713 0.498926 0.549536
C5    C     C_R   0.826922 0.514400 0.628871 -0.138544
C6    C     C_R   0.173070 0.485389 0.371069 -0.138539
C7    C     C_R   0.768141 0.499102 0.497950 -0.014615
C8    C     C_R   0.231861 0.500855 0.502045 -0.014602
C9    C     C_R   0.802132 0.483653 0.367540 -0.141398
C10   C     C_R   0.197876 0.516417 0.632494 -0.141380
C11   C     C_R   0.894619 0.483957 0.367445 0.012290
C12   C     C_R   0.507172 0.746402 0.560418 0.561787
C13   C     C_R   0.105388 0.516026 0.632556 0.012281
C14   C     C_R   0.953474 0.499671 0.499499 0.061782
C15   C     C_R   0.046530 0.500259 0.500486 0.061779
C16   C     C_R   0.919369 0.514798 0.630601 0.010642
C17   C     C_R   0.080627 0.485042 0.369358 0.010643
C18   C     C_R   0.929246 0.469019 0.237744 -0.135315
C19   C     C_R   0.070751 0.530884 0.762232 -0.135300
C20   C     C_3   0.602227 0.005207 0.813405 -0.030381
C21   C     C_3   0.605354 0.113987 0.964875 -0.353398
C22   C     C_3   0.397587 0.994328 0.187125 -0.030476
C23   C     C_R   0.021813 0.469579 0.238694 -0.135391
C24   C     C_3   0.394342 0.886024 0.035292 -0.353426
C25   C     C_R   0.978180 0.530192 0.761244 -0.135385
C26   C     C_2   0.489718 0.112985 0.403268 0.221393
C27   C     C_2   0.510391 0.887021 0.596737 0.221413
C28   C     C_2   0.497763 0.069207 0.514143 -0.126437
C29   C     C_2   0.502598 0.930810 0.485884 -0.126562
C30   C     C_2   0.507582 0.510663 0.081743 -0.035433
Cu1   Cu    Cu3+1 0.515770 0.521810 0.644910 0.922646
Cu2   Cu    Cu3+1 0.484230 0.478190 0.355090 0.922761
H1    H     H_    0.800909 0.526070 0.729913 0.127689
H2    H     H_    0.500864 0.137038 0.628140 0.159017
H3    H     H_    0.440012 0.416425 0.844288 0.148137
H4    H     H_    0.559987 0.583576 0.155713 0.148066
H5    H     H_    0.588629 0.623416 0.935548 0.201919
H6    H     H_    0.411372 0.376583 0.064452 0.202000
H7    H     H_    0.643256 0.041564 0.748433 0.124642
H8    H     H_    0.632556 0.919432 0.829582 0.150178
H9    H     H_    0.567295 0.080521 0.034869 0.203591
H10   H     H_    0.676197 0.142117 0.021375 0.101363
H11   H     H_    0.575372 0.200937 0.951814 0.159997
H12   H     H_    0.199063 0.473546 0.269961 0.127684
H13   H     H_    0.366732 0.080044 0.171610 0.149704
H14   H     H_    0.357096 0.957289 0.252201 0.124930
H15   H     H_    0.425140 0.799325 0.047652 0.160528
H16   H     H_    0.323414 0.857144 0.979500 0.101139
H17   H     H_    0.431573 0.920340 0.965018 0.203092
H18   H     H_    0.756814 0.471765 0.266354 0.122509
H19   H     H_    0.243197 0.528446 0.733733 0.122518
H20   H     H_    0.884791 0.456934 0.135757 0.103588
H21   H     H_    0.115203 0.542939 0.864219 0.103587
H22   H     H_    0.047396 0.457901 0.137343 0.103784
H23   H     H_    0.952575 0.541718 0.862538 0.103779
H24   H     H_    0.499657 0.862995 0.371919 0.158818
N1    N     N_2   0.460520 0.445420 0.137370 -0.354845
N2    N     N_2   0.539480 0.554580 0.862630 -0.354907
O1    O     O_R   0.508410 0.332340 0.577400 -0.527168
O2    O     O_3   0.488024 0.028391 0.257520 -0.577461
O3    O     O_R   0.491590 0.667660 0.422600 -0.527103
O4    O     O_R   0.481780 0.295500 0.332650 -0.472515
O5    O     O_R   0.518220 0.704500 0.667350 -0.472705
O6    O     O_R   0.383570 0.518390 0.622380 -0.501594
O7    O     O_R   0.616430 0.481610 0.377620 -0.501642
O8    O     O_R   0.356940 0.481550 0.377630 -0.501571
O9    O     O_R   0.643060 0.518450 0.622370 -0.501617
O10   O     O_3   0.511876 0.971634 0.742416 -0.577490

loop_
_geom_bond_atom_site_label_1
_geom_bond_atom_site_label_2
_ccdc_geom_bond_type
C2    H3    S    
C18   H20   S    
C4    O9    A    
C2    N2    D    
C11   C18   A    
C15   C17   A    
C29   H24   S    
C18   C23   A    
C27   C29   D    
H6    N1    S    
C5    C7    A    
C1    C26   S    
H5    N2    S    
C26   C28   D    
Cu1   Cu2   S    
C30   H4    S    
C2    C30   S    
C1    O4    A    
C19   H21   S    
C1    O1    A    
C20   H7    S    
Cu2   O4    S    
C6    H12   S    
C3    O6    A    
Cu1   O9    S    
C12   O3    A    
C9    C11   A    
C17   C23   A    
Cu2   N1    S    
C4    C7    S    
C21   H9    S    
C10   H19   S    
Cu1   N2    S    
C8    C10   A    
C28   C29   S    
C22   H14   S    
Cu2   O3    S    
C22   C24   S    
C13   C15   A    
C22   O2    S    
C4    O7    A    
C20   H8    S    
C11   C14   A    
C14   C16   A    
C3    O8    A    
C13   C19   A    
C19   C25   A    
C28   H2    S    
C21   H10   S    
C24   H16   S    
C30   N1    D    
Cu1   O5    S    
C16   C25   A    
C22   H13   S    
C20   C21   S    
C23   H22   S    
Cu2   O8    S    
C3    C8    S    
Cu1   O1    S    
C24   H17   S    
C7    C9    A    
C6    C17   A    
C14   C15   A    
C5    C16   A    
C6    C8    A    
C27   O10   S    
C12   C27   S    
C12   O5    A    
C24   H15   S    
C26   O2    S    
Cu1   O6    S    
C20   O10   S    
C21   H11   S    
C9    H18   S    
C25   H23   S    
Cu2   O7    S    
C10   C13   A    
C5    H1    S    
