data_mof_unit_7009.cif
_audit_creation_date              2013-03-05T15:52:54-0500
_audit_creation_method            fapswitch 2.2
_symmetry_space_group_name_H-M    P1
_symmetry_Int_Tables_number       1
_space_group_crystal_system       triclinic
_cell_length_a                    14.963814
_cell_length_b                    10.609408
_cell_length_c                    9.986114
_cell_angle_alpha                 91.289515
_cell_angle_beta                  88.801623
_cell_angle_gamma                 92.324126
_cell_volume                      1583.34479907

loop_
_atom_site_label
_atom_site_type_symbol
_atom_site_description
_atom_site_fract_x
_atom_site_fract_y
_atom_site_fract_z
_atom_type_partial_charge
O1    O     O_R   0.500000 0.316780 0.614690 -0.647206
O2    O     O_R   0.499990 0.316750 0.385360 -0.553905
C1    C     C_R   0.497332 0.260672 0.498666 0.882968
O3    O     O_R   0.367850 0.499980 0.614680 -0.662614
O4    O     O_R   0.367840 0.499960 0.385350 -0.609628
C2    C     C_R   0.327216 0.501319 0.500933 0.886470
Zn1   Zn    Zn3+2 0.500010 0.500020 0.653130 0.943280
Zn2   Zn    Zn3+2 0.499990 0.499980 0.346870 0.980820
O5    O     O_R   0.500010 0.683250 0.614640 -0.622545
O6    O     O_R   0.500000 0.683220 0.385310 -0.609910
O7    O     O_R   0.632160 0.500040 0.614650 -0.607384
O8    O     O_R   0.632150 0.500020 0.385320 -0.635032
C3    C     C_R   0.498955 0.739094 0.501244 0.855779
C4    C     C_R   0.672775 0.495217 0.498972 0.877085
C5    C     C_R   0.817472 0.547973 0.397736 -0.286257
C6    C     C_R   0.768458 0.484243 0.497239 -0.111655
C7    C     C_R   0.810837 0.414682 0.595372 -0.073882
C8    C     C_R   0.904576 0.415086 0.595060 0.068114
C9    C     C_R   0.953599 0.484141 0.496273 0.045154
C10   C     C_R   0.909734 0.549158 0.396727 0.122496
C11   C     C_R   0.950727 0.348546 0.690806 -0.216599
C12   C     C_R   0.043412 0.353826 0.691540 -0.219736
C13   C     C_R   0.091501 0.424510 0.596280 0.125348
C14   C     C_R   0.046889 0.488809 0.497116 0.065298
C15   C     C_R   0.095812 0.558072 0.398921 0.114549
C16   C     C_R   0.051548 0.620938 0.299905 -0.209723
C17   C     C_R   0.958694 0.616478 0.298805 -0.216773
C18   C     C_R   0.183881 0.431277 0.597837 -0.242397
C19   C     C_R   0.231638 0.500310 0.501573 -0.036770
C20   C     C_R   0.188407 0.563009 0.401691 -0.254821
H1    H     H_    0.783523 0.600388 0.323199 0.152865
H2    H     H_    0.915990 0.292629 0.766354 0.161130
H3    H     H_    0.077450 0.302912 0.766926 0.138538
H4    H     H_    0.218847 0.380240 0.671265 0.134167
H5    H     H_    0.226898 0.615819 0.326923 0.157626
H6    H     H_    0.088670 0.673851 0.223984 0.153357
H7    H     H_    0.925134 0.666342 0.222086 0.144016
H8    H     H_    0.616823 0.118779 0.386163 0.139944
C21   C     C_R   0.338801 0.122871 0.597838 -0.114087
H9    H     H_    0.332286 0.222715 0.585272 0.134158
C22   C     C_R   0.266535 0.054469 0.654402 -0.127164
H10   H     H_    0.207578 0.102537 0.688938 0.126687
C23   C     C_R   0.269564 0.924060 0.664047 -0.123047
H11   H     H_    0.213165 0.870762 0.706906 0.141426
C24   C     C_R   0.344357 0.861721 0.615537 -0.177325
H12   H     H_    0.342815 0.760093 0.621277 0.151014
C25   C     C_R   0.418411 0.930198 0.558769 0.080836
C26   C     C_R   0.416212 0.061768 0.552256 0.111119
C27   C     C_R   0.490660 0.127701 0.494885 -0.036086
C28   C     C_R   0.561698 0.066530 0.434157 -0.187183
H13   H     H_    0.619608 0.890330 0.393209 0.144565
C29   C     C_R   0.563393 0.938007 0.438614 -0.217331
C30   C     C_R   0.493771 0.871239 0.503173 -0.087903
H14   H     H_    0.617678 0.613652 0.123381 0.135562
C31   C     C_R   0.358583 0.365195 0.134428 0.361272
C32   C     C_R   0.280445 0.338221 0.063122 -0.215440
H15   H     H_    0.222973 0.292254 0.111951 0.187427
C33   C     C_R   0.285362 0.331442 0.925257 -0.269697
H16   H     H_    0.231212 0.285091 0.870815 0.150373
C34   C     C_R   0.363900 0.370062 0.859702 -0.137185
H17   H     H_    0.371193 0.344216 0.757246 0.197487
C35   C     C_R   0.432290 0.436285 0.927808 0.151604
C36   C     C_R   0.431480 0.434759 0.071608 0.036755
N1    N     N_R   0.499150 0.498800 0.142780 -0.120524
C37   C     C_R   0.564624 0.562491 0.070811 -0.119687
H18   H     H_    0.617473 0.613941 0.874835 0.139581
C38   C     C_R   0.564478 0.562641 0.928246 -0.089779
N2    N     N_R   0.499120 0.498720 0.857170 -0.108770
N3    N     N_R   0.374167 0.272698 0.231075 0.231339
O9    O     O_R   0.313503 0.250146 0.323703 -0.447362
O10   O     O_R   0.426512 0.182163 0.195380 -0.399908
C39   C     C_R   0.757492 0.339776 0.695165 0.146444
C40   C     C_R   0.715159 0.224686 0.656589 -0.149677
C41   C     C_R   0.663613 0.155189 0.749643 -0.121159
C42   C     C_R   0.654505 0.199957 0.881744 -0.089087
C43   C     C_R   0.697534 0.313733 0.921271 -0.139133
C44   C     C_R   0.748729 0.383833 0.828326 -0.140614
H19   H     H_    0.722376 0.189182 0.554716 0.108954
H20   H     H_    0.630698 0.066679 0.719411 0.138876
H21   H     H_    0.614399 0.146298 0.953585 0.149175
H22   H     H_    0.690807 0.347938 0.023772 0.141083
H23   H     H_    0.781142 0.472462 0.859592 0.120250

loop_
_geom_bond_atom_site_label_1
_geom_bond_atom_site_label_2
_geom_bond_distance
_ccdc_geom_bond_type
C31   C32   1.398065 A    
C8    C11   1.409610 A    
C22   H10   1.083142 S    
C9    C10   1.410583 A    
C23   H11   1.082709 S    
C1    C27   1.409939 S    
C21   C22   1.394387 A    
H14   C37   1.081734 S    
C24   H12   1.080313 S    
Zn1   O7    2.006546 S    
C16   C17   1.388609 A    
C35   C36   1.436250 A    
C20   H5    1.085268 S    
C18   C19   1.389867 A    
O4    C2    1.293285 A    
O7    C4    1.294959 A    
C33   C34   1.385073 A    
C5    C6    1.393542 A    
C32   H15   1.083665 S    
C34   C35   1.397421 A    
C8    C9    1.416580 A    
C40   C41   1.398872 A    
N3    O10   1.302737 A    
O5    C3    1.290451 A    
C39   C44   1.404858 A    
Zn1   N2    2.037685 S    
C6    C7    1.415494 A    
C37   C38   1.423749 A    
C31   C36   1.433550 A    
C28   C29   1.366561 A    
C13   C14   1.409476 A    
C42   H21   1.082402 S    
C25   C30   1.409453 A    
H18   C38   1.081641 S    
C18   H4    1.077741 S    
C11   C12   1.385943 A    
C22   C23   1.391707 A    
O3    Zn1   2.022395 S    
C3    C30   1.406937 S    
C24   C25   1.415663 A    
C5    C10   1.379956 A    
C11   H2    1.081683 S    
C41   C42   1.397823 A    
H13   C29   1.085029 S    
C14   C15   1.412883 A    
O3    C2    1.300187 A    
C21   H9    1.078055 S    
C15   C16   1.397927 A    
C40   H19   1.081639 S    
C38   N2    1.368850 A    
C34   H17   1.057845 S    
O1    C1    1.291255 A    
C42   C43   1.397715 A    
C19   C20   1.395563 A    
C25   C26   1.400600 A    
Zn2   O8    2.022397 S    
C7    C8    1.402466 A    
C13   C18   1.381698 A    
C43   C44   1.398780 A    
C23   C24   1.395560 A    
C31   N3    1.421086 S    
Zn2   N1    2.038121 S    
C16   H6    1.083860 S    
C26   C27   1.409513 A    
O8    C4    1.301621 A    
C41   H20   1.082344 S    
C4    C6    1.440920 S    
C29   C30   1.391181 A    
C15   C20   1.385261 A    
Zn1   O5    1.990063 S    
C12   H3    1.083779 S    
O1    Zn1   1.973106 S    
O2    Zn2   1.990063 S    
C39   C40   1.402459 A    
O6    C3    1.288838 A    
C43   H22   1.082357 S    
O4    Zn2   2.006546 S    
C5    H1    1.085688 S    
H8    C28   1.084318 S    
C10   C17   1.400749 A    
C35   N2    1.369024 A    
N1    C37   1.368106 A    
C9    C14   1.395040 A    
C33   H16   1.080764 S    
C44   H23   1.083062 S    
C17   H7    1.083927 S    
C32   C33   1.377577 A    
O2    C1    1.289306 A    
N3    O9    1.301580 A    
C36   N1    1.394520 A    
C2    C19   1.429696 S    
C7    C39   1.487549 S    
Zn2   O6    1.973106 S    
C27   C28   1.389322 A    
C12   C13   1.394575 A    
C21   C26   1.412383 A    
