data_mof_unit_43225.cif
_audit_creation_date              2012-12-10T17:04:36-0500
_audit_creation_method            fapswitch 2.2
_symmetry_space_group_name_H-M    P1
_symmetry_Int_Tables_number       1
_space_group_crystal_system       triclinic
_cell_length_a                    14.916424
_cell_length_b                    10.653129
_cell_length_c                    10.056998
_cell_angle_alpha                 88.820464
_cell_angle_beta                  89.803146
_cell_angle_gamma                 90.192389
_cell_volume                      1597.76578032

loop_
_atom_site_label
_atom_site_type_symbol
_atom_type_description
_atom_site_fract_x
_atom_site_fract_y
_atom_site_fract_z
_atom_type_partial_charge
C1    C     C_R   0.507330 0.263036 0.501317 0.937791
C2    C     C_R   0.187403 0.380819 0.521626 0.345687
C3    C     C_R   0.231957 0.496137 0.500085 -0.325367
C4    C     C_R   0.327358 0.500822 0.500069 0.929478
C5    C     C_R   0.186509 0.609274 0.479958 0.426261
C6    C     C_2   0.551623 0.930509 0.417188 -0.419257
C7    C     C_2   0.489172 0.871212 0.491679 0.339761
C8    C     C_2   0.549867 0.066389 0.400736 0.516355
C9    C     C_2   0.527166 0.132241 0.507397 -0.229366
C10   C     C_2   0.550528 0.572938 0.924289 -0.097997
C11   C     C_2   0.561097 0.557265 0.074090 0.510408
C12   C     C_R   0.906017 0.609199 0.497625 0.117702
C13   C     C_R   0.495841 0.737387 0.498550 0.834384
C14   C     C_R   0.672580 0.499690 0.499875 0.956667
C15   C     C_R   0.813453 0.609082 0.496197 -0.328187
C16   C     C_R   0.767533 0.495995 0.500305 -0.084194
C17   C     C_R   0.810980 0.380374 0.505853 0.407197
C18   C     C_R   0.904998 0.379097 0.514625 -0.039236
C19   C     C_R   0.952661 0.494346 0.507074 0.058236
C20   C     C_3   0.378257 0.887822 0.653344 -0.207864
C21   C     C_3   0.389088 0.364382 0.878473 -0.125304
C22   C     C_3   0.084672 0.116588 0.695225 -0.226790
C23   C     C_R   0.951792 0.266864 0.535036 -0.351435
C24   C     C_3   0.239761 0.740426 0.316398 -0.159874
C25   C     C_R   0.044847 0.266202 0.542830 0.579357
C26   C     C_R   0.093466 0.379738 0.523857 -0.022647
C27   C     C_R   0.046559 0.495105 0.508201 -0.208377
C28   C     C_R   0.093104 0.611302 0.492700 -0.024648
C29   C     C_R   0.045278 0.726028 0.490015 0.459358
C30   C     C_R   0.951780 0.723168 0.491882 -0.334098
H1    H     H_    0.776626 0.696837 0.491097 0.149264
H2    H     H_    0.325072 0.952238 0.687635 0.196518
H3    H     H_    0.584546 0.057905 0.215494 0.334446
H4    H     H_    0.383552 0.317489 0.781780 0.201213
H5    H     H_    0.346410 0.450048 0.880002 0.119567
H6    H     H_    0.361835 0.298126 0.955073 0.134054
H7    H     H_    0.673963 0.647165 0.066742 0.307013
H8    H     H_    0.791185 0.209249 0.450923 0.335000
H9    H     H_    0.115115 0.189816 0.758606 0.154841
H10   H     H_    0.124398 0.029532 0.709577 0.209081
H11   H     H_    0.014866 0.095642 0.728236 0.130774
H12   H     H_    0.522246 0.086991 0.605191 0.127028
H13   H     H_    0.298253 0.279211 0.522403 0.324534
H14   H     H_    0.172186 0.757659 0.273482 0.159511
H15   H     H_    0.272276 0.661565 0.264267 0.127688
H16   H     H_    0.280965 0.825774 0.296998 0.204830
H17   H     H_    0.046575 0.909417 0.485210 0.349733
H18   H     H_    0.587179 0.648532 0.874454 0.090447
H19   H     H_    0.439900 0.483281 0.105373 0.154511
H20   H     H_    0.917245 0.178007 0.547890 0.171127
H21   H     H_    0.914522 0.810444 0.488370 0.143699
H22   H     H_    0.605228 0.879172 0.368920 0.141447
H23   H     H_    0.431685 0.886205 0.730402 0.128476
H24   H     H_    0.347214 0.793574 0.643602 0.207928
N1    N     N_2   0.500970 0.501330 0.852150 0.074622
N2    N     N_2   0.500990 0.501360 0.147810 -0.164629
O1    O     O_R   0.499990 0.319060 0.613040 -0.619000
O2    O     O_3   0.571004 0.124227 0.280297 -0.717478
O3    O     O_3   0.479229 0.389744 0.909552 -0.536782
O4    O     O_3   0.634416 0.608964 0.135981 -0.737669
O5    O     O_3   0.759499 0.272261 0.504489 -0.779583
O6    O     O_3   0.087676 0.151990 0.559339 -0.545651
O7    O     O_3   0.233334 0.268582 0.538865 -0.703268
O8    O     O_3   0.235309 0.718334 0.455229 -0.563770
O9    O     O_3   0.090403 0.839667 0.488785 -0.704468
O10   O     O_R   0.500010 0.319100 0.386900 -0.544848
O11   O     O_R   0.367830 0.499950 0.613080 -0.645915
O12   O     O_R   0.367860 0.499990 0.386940 -0.637084
O13   O     O_R   0.499990 0.680900 0.613100 -0.660180
O14   O     O_R   0.500010 0.680940 0.386960 -0.607194
O15   O     O_R   0.632140 0.500010 0.613060 -0.613099
O16   O     O_R   0.632170 0.500050 0.386920 -0.543457
O17   O     O_3   0.411080 0.933369 0.529768 -0.603514
Zn1   Zn    Zn3+2 0.499980 0.499970 0.650990 0.982405
Zn2   Zn    Zn3+2 0.500020 0.500030 0.349010 1.033832

loop_
_geom_bond_atom_site_label_1
_geom_bond_atom_site_label_2
_ccdc_geom_bond_type
O1    Zn1   S    
C8    C9    D    
O15   Zn1   S    
O10   Zn2   S    
C30   H21   S    
C15   H1    S    
C6    C7    D    
C21   H5    S    
N1    O3    S    
C22   O6    S    
C5    C28   A    
C19   C27   A    
C14   O15   A    
C12   C15   A    
C7    C13   S    
C14   O16   A    
C3    C5    A    
H8    O5    S    
C22   H10   S    
C21   O3    S    
C2    C26   A    
C2    C3    A    
C26   C27   A    
C24   H16   S    
O13   Zn1   S    
C7    O17   S    
C21   H6    S    
C11   O4    S    
O12   Zn2   S    
C10   N1    D    
C9    H12   S    
H3    O2    S    
C13   O13   A    
O16   Zn2   S    
C29   O9    S    
C22   H9    S    
O11   Zn1   S    
C12   C19   A    
C20   H24   S    
C28   C29   A    
C20   H2    S    
C20   O17   S    
C17   C18   A    
C1    O1    A    
C25   O6    S    
C23   C25   A    
C6    C8    S    
C10   H18   S    
C24   H14   S    
C14   C16   S    
H7    O4    S    
C10   C11   S    
C24   H15   S    
C17   O5    S    
C29   C30   A    
C18   C23   A    
C22   H11   S    
H19   N2    S    
C6    H22   S    
H13   O7    S    
C1    C9    S    
C2    O7    S    
C24   O8    S    
C18   C19   A    
C13   O14   A    
O14   Zn2   S    
N2    Zn2   S    
C20   H23   S    
C23   H20   S    
C8    O2    S    
C21   H4    S    
C12   C30   A    
C25   C26   A    
N1    Zn1   S    
C4    O12   A    
H17   O9    S    
C15   C16   A    
C11   N2    D    
C3    C4    S    
C5    O8    S    
C16   C17   A    
C27   C28   A    
C4    O11   A    
C1    O10   A    
