data_mof_unit_38795.cif
_audit_creation_date              2012-12-10T17:29:19-0500
_audit_creation_method            fapswitch 2.2
_symmetry_space_group_name_H-M    P1
_symmetry_Int_Tables_number       1
_space_group_crystal_system       triclinic
_cell_length_a                    12.027503
_cell_length_b                    12.748133
_cell_length_c                    13.149203
_cell_angle_alpha                 87.633668
_cell_angle_beta                  113.752169
_cell_angle_gamma                 94.047927
_cell_volume                      1840.58272391

loop_
_atom_site_label
_atom_site_type_symbol
_atom_type_description
_atom_site_fract_x
_atom_site_fract_y
_atom_site_fract_z
_atom_type_partial_charge
C1    C     C_R   0.477492 0.299687 0.500258 0.972771
C2    C     C_R   0.560519 0.533019 0.987654 0.062350
C3    C     C_R   0.533817 0.555117 0.874965 0.100366
C4    C     C_R   0.468384 0.543943 0.026718 0.083432
C5    C     C_R   0.361604 0.595690 0.960856 0.169814
C6    C     C_R   0.345751 0.632639 0.855360 -0.253996
C7    C     C_R   0.429917 0.611948 0.812456 -0.199511
C8    C     C_R   0.478109 0.501238 0.128472 -0.266210
C9    C     C_R   0.290851 0.575575 0.109242 -0.162394
C10   C     C_R   0.611366 0.518640 0.828481 -0.152838
C11   C     C_R   0.541246 0.811885 0.499974 -0.104572
C12   C     C_R   0.567521 0.504443 0.708356 0.850784
C13   C     C_R   0.469061 0.188361 0.515334 -0.187774
C14   C     C_R   0.499795 0.040840 0.640964 -0.186921
C15   C     C_R   0.481637 0.147584 0.620429 0.114859
C16   C     C_R   0.474479 0.125490 0.432937 -0.107244
C17   C     C_R   0.517674 0.024736 0.463172 0.030117
C18   C     C_R   0.520896 0.979150 0.565195 0.066070
C19   C     C_R   0.540922 0.871611 0.586878 0.111413
C20   C     C_R   0.556094 0.858449 0.408564 -0.251127
C21   C     C_R   0.556410 0.966718 0.394740 0.197714
C22   C     C_R   0.014318 0.612178 0.405318 0.103024
C23   C     C_R   0.523390 0.700322 0.500951 0.860018
C24   C     C_R   0.134839 0.598025 0.415517 -0.002135
C25   C     C_R   0.153538 0.451450 0.535981 -0.043933
C26   C     C_R   0.034459 0.461029 0.529215 0.053088
C27   C     C_R   0.963755 0.542554 0.465137 0.034576
C28   C     C_R   0.844438 0.550408 0.462711 -0.072831
C29   C     C_R   0.867374 0.399624 0.579729 0.129797
C30   C     C_R   0.984993 0.389553 0.585041 -0.321085
C31   C     C_R   0.433391 0.505233 0.291435 0.938280
C32   C     C_R   0.272815 0.610225 0.002109 -0.173746
C33   C     C_R   0.395330 0.522739 0.172914 -0.076381
C34   C     C_R   0.727087 0.486553 0.898311 -0.226417
C35   C     C_R   0.763109 0.481778 0.013522 0.013536
C36   C     C_R   0.678368 0.501882 0.057344 -0.265147
H1    H     H_    0.226029 0.593091 0.143357 0.166523
H2    H     H_    0.568214 0.809959 0.348315 0.150068
H3    H     H_    0.500293 0.006743 0.717269 0.172348
H4    H     H_    0.787257 0.611738 0.414791 0.127609
H5    H     H_    0.037987 0.325578 0.633154 0.159405
H6    H     H_    0.176804 0.649196 0.371947 0.153868
H7    H     H_    0.266628 0.675141 0.804697 0.150822
H8    H     H_    0.208198 0.389446 0.586102 0.134733
H9    H     H_    0.191698 0.650908 0.952933 0.145917
H10   H     H_    0.551698 0.452166 0.176106 0.178867
H11   H     H_    0.788743 0.463836 0.862955 0.236471
H12   H     H_    0.707501 0.497059 0.146431 0.178236
H13   H     H_    0.412458 0.643215 0.730410 0.174341
N1    N     N_R   0.798200 0.480260 0.519790 -0.132869
N2    N     N_R   0.201820 0.519740 0.480210 -0.126422
O1    O     O_R   0.579910 0.341070 0.505280 -0.578797
O2    O     O_R   0.388440 0.353740 0.492580 -0.623968
O3    O     O_R   0.643280 0.490550 0.663120 -0.578522
O4    O     O_R   0.451810 0.503220 0.650420 -0.630744
O5    O     O_R   0.611560 0.646260 0.507420 -0.623611
O6    O     O_R   0.420090 0.658930 0.494720 -0.634544
O7    O     O_R   0.548190 0.496780 0.349580 -0.608788
O8    O     O_R   0.356720 0.509450 0.336880 -0.613465
Zn1   Zn    Zn3+2 0.627850 0.491540 0.508480 0.986824
Zn2   Zn    Zn3+2 0.372150 0.508460 0.491520 0.933871
C37   C     C_3   0.603987 0.016393 0.311634 -0.368179
C38   C     C_3   0.732281 0.984049 0.334886 -0.847569
H14   H     H_    0.794661 0.002101 0.422073 0.281877
H15   H     H_    0.732120 0.898897 0.320232 0.244017
H16   H     H_    0.767231 0.028500 0.278363 0.258996
H17   H     H_    0.541439 0.992905 0.226116 0.223305
H18   H     H_    0.611473 0.103321 0.315714 0.228436
C39   C     C_3   0.477000 0.220094 0.708283 -0.369172
C40   C     C_3   0.493547 0.169341 0.820550 -0.867776
H19   H     H_    0.418656 0.109103 0.810548 0.257321
H20   H     H_    0.582985 0.133506 0.859319 0.265049
H21   H     H_    0.491140 0.230653 0.877146 0.262941
H22   H     H_    0.550112 0.283395 0.724683 0.221430
H23   H     H_    0.388125 0.257134 0.674515 0.212500
C41   C     C_2   0.416027 0.158899 0.313703 0.865990
O9    O     O_2   0.348608 0.096018 0.244854 -0.621405
O10   O     O_R   0.437801 0.260812 0.279868 -0.817771
H24   H     H_    0.392902 0.272704 0.196911 0.342914
C42   C     C_2   0.820993 0.318406 0.637705 0.950662
O11   O     O_2   0.799193 0.341412 0.716634 -0.639048
O12   O     O_R   0.807692 0.213670 0.605043 -0.810060
H25   H     H_    0.775110 0.164676 0.650718 0.342212
C43   C     C_3   0.938655 0.698461 0.331297 -0.428962
C44   C     C_3   0.998084 0.765973 0.265860 -0.851116
H26   H     H_    0.081715 0.809512 0.323278 0.260980
H27   H     H_    0.019950 0.716281 0.209689 0.259435
H28   H     H_    0.933736 0.824447 0.214062 0.258182
H29   H     H_    0.852538 0.661401 0.269946 0.220555
H30   H     H_    0.915329 0.751731 0.383679 0.203698
C45   C     C_2   0.887435 0.452075 0.087967 0.909621
O13   O     O_2   0.962430 0.437792 0.049675 -0.623842
O14   O     O_R   0.919477 0.440584 0.202404 -0.817831
H31   H     H_    0.006626 0.420538 0.244190 0.351000
C46   C     C_3   0.563593 0.820449 0.700145 -0.428904
C47   C     C_3   0.687308 0.857693 0.788190 -0.835347
H32   H     H_    0.761033 0.837060 0.763412 0.265626
H33   H     H_    0.694108 0.943854 0.800119 0.258356
H34   H     H_    0.701091 0.817902 0.868786 0.252434
H35   H     H_    0.489155 0.834675 0.726431 0.197448
H36   H     H_    0.565705 0.734070 0.697941 0.196079

loop_
_geom_bond_atom_site_label_1
_geom_bond_atom_site_label_2
_ccdc_geom_bond_type
C38   H15   S    
O14   H31   S    
C24   H6    S    
C32   H9    S    
C14   C18   A    
C35   C36   A    
N2    Zn2   S    
C4    C8    A    
C23   O5    A    
O3    Zn1   S    
C44   H26   S    
C11   C19   A    
C26   C27   A    
C37   C38   S    
C37   H17   S    
C31   O7    A    
C41   O10   S    
C18   C19   A    
C3    C7    A    
C5    C6    A    
C28   H4    S    
O7    Zn1   S    
C47   H34   S    
C34   C35   A    
C31   O8    A    
C1    O2    A    
O1    Zn1   S    
C9    C32   A    
C14   H3    S    
O2    Zn2   S    
C46   C47   S    
C16   C17   A    
C47   H33   S    
C31   C33   S    
C30   H5    S    
C36   H12   S    
C40   H19   S    
C5    C32   A    
C24   N2    A    
C38   H16   S    
C16   C41   S    
C9    C33   A    
C43   H30   S    
C25   H8    S    
C29   N1    A    
C44   H27   S    
C15   C39   S    
C11   C20   A    
O8    Zn2   S    
C41   O9    D    
C7    H13   S    
C42   O12   S    
C45   O13   D    
C28   N1    A    
C46   H35   S    
C42   O11   D    
C25   C26   A    
C17   C21   A    
O5    Zn1   S    
C22   C43   S    
C2    C4    A    
C25   N2    A    
C29   C30   A    
C45   O14   S    
C20   H2    S    
C47   H32   S    
C40   H21   S    
C9    H1    S    
C17   C18   A    
C39   H22   S    
C10   C34   A    
C43   C44   S    
C21   C37   S    
C10   C12   S    
C26   C30   A    
C6    H7    S    
C13   C15   A    
C22   C24   A    
C1    C13   S    
C43   H29   S    
C19   C46   S    
C44   H28   S    
C2    C36   A    
C23   O6    A    
O10   H24   S    
C4    C5    A    
O6    Zn2   S    
C6    C7    A    
C37   H18   S    
C22   C27   A    
N1    Zn1   S    
C2    C3    A    
C3    C10   A    
C29   C42   S    
O4    Zn2   S    
C11   C23   S    
C39   H23   S    
C8    C33   A    
C39   C40   S    
C1    O1    A    
C8    H10   S    
C12   O4    A    
C38   H14   S    
C20   C21   A    
O12   H25   S    
C13   C16   A    
C27   C28   A    
C14   C15   A    
C40   H20   S    
C34   H11   S    
C12   O3    A    
C46   H36   S    
C35   C45   S    
