data_mof_unit_67540.cif
_audit_creation_date              2013-03-05T15:41:21-0500
_audit_creation_method            fapswitch 2.2
_symmetry_space_group_name_H-M    P1
_symmetry_Int_Tables_number       1
_space_group_crystal_system       triclinic
_cell_length_a                    10.603127
_cell_length_b                    8.669656
_cell_length_c                    7.547445
_cell_angle_alpha                 102.319242
_cell_angle_beta                  96.407826
_cell_angle_gamma                 94.098069
_cell_volume                      670.340968198

loop_
_atom_site_label
_atom_site_type_symbol
_atom_site_description
_atom_site_fract_x
_atom_site_fract_y
_atom_site_fract_z
_atom_type_partial_charge
O1    O     O_R   0.509190 0.286130 0.619780 -0.566700
O2    O     O_R   0.490810 0.713870 0.380220 -0.566695
O3    O     O_R   0.485310 0.256770 0.308360 -0.534750
O4    O     O_R   0.514690 0.743230 0.691640 -0.534749
C1    C     C_R   0.492827 0.200082 0.454215 0.847983
C2    C     C_R   0.507168 0.799918 0.545786 0.847966
O5    O     O_R   0.328790 0.514640 0.655680 -0.578785
O6    O     O_R   0.671210 0.485360 0.344320 -0.578845
O7    O     O_R   0.304910 0.485280 0.344260 -0.571576
O8    O     O_R   0.695090 0.514720 0.655740 -0.571567
C3    C     C_R   0.259317 0.492648 0.497534 0.804259
C4    C     C_R   0.740683 0.507356 0.502466 0.804235
Cu1   Cu    Cu3+1 0.514140 0.517380 0.684380 1.096099
Cu2   Cu    Cu3+1 0.485860 0.482620 0.315620 1.096080
N1    N     N_2   0.464560 0.456420 0.038510 0.018169
N2    N     N_2   0.535440 0.543580 0.961490 0.018172
C5    C     C_3   0.048684 0.433066 0.635898 -0.306545
C6    C     C_3   0.951314 0.566943 0.364101 -0.306567
C7    C     C_3   0.941690 0.352292 0.479197 -0.305838
C8    C     C_3   0.058309 0.647716 0.520802 -0.305836
H1    H     H_    0.891575 0.231817 0.459945 0.161869
H2    H     H_    0.108424 0.768192 0.540054 0.161870
H3    H     H_    0.090343 0.379810 0.747030 0.205945
H4    H     H_    0.909647 0.620200 0.252974 0.205923
C9    C     C_3   0.877761 0.508368 0.505862 -0.076906
C10   C     C_3   0.122238 0.491640 0.494137 -0.076907
C11   C     C_3   0.983524 0.587855 0.660034 0.538147
C12   C     C_3   0.016474 0.412153 0.339964 0.538161
C13   C     C_2   0.478079 0.032047 0.431810 -0.294064
C14   C     C_2   0.521909 0.967955 0.568196 -0.294077
H5    H     H_    0.426483 0.961269 0.305195 0.211962
H6    H     H_    0.573498 0.038734 0.694817 0.211951
O9    O     O_3   0.964251 0.686306 0.828084 -0.573711
C15   C     C_3   0.077705 0.706878 0.952719 0.057543
H7    H     H_    0.165172 0.724589 0.886950 0.170029
H8    H     H_    0.084567 0.601203 0.013222 0.171365
C16   C     C_3   0.076792 0.851766 0.107216 -0.738246
H9    H     H_    0.982731 0.854165 0.158647 0.267433
H10   H     H_    0.151685 0.848957 0.221495 0.200455
H11   H     H_    0.098096 0.961453 0.058263 0.268735
O10   O     O_3   0.035748 0.313703 0.171915 -0.573713
C17   C     C_3   0.922291 0.293128 0.047282 0.057537
H12   H     H_    0.915425 0.398804 0.986781 0.171363
H13   H     H_    0.834825 0.275413 0.113053 0.170019
C18   C     C_3   0.923205 0.148243 0.892780 -0.738276
H14   H     H_    0.901898 0.038556 0.941728 0.268740
H15   H     H_    0.848316 0.151054 0.778499 0.200454
H16   H     H_    0.017266 0.145843 0.841353 0.267436
N3    N     N_R   0.419733 0.307725 0.932647 0.261802
O11   O     O_R   0.482131 0.187319 0.951141 -0.347506
O12   O     O_R   0.301016 0.281319 0.860154 -0.387077
N4    N     N_R   0.580239 0.692288 0.067335 0.261819
O13   O     O_R   0.517778 0.812646 0.048878 -0.347527
O14   O     O_R   0.698972 0.718767 0.139730 -0.387058

loop_
_geom_bond_atom_site_label_1
_geom_bond_atom_site_label_2
_geom_bond_distance
_ccdc_geom_bond_type
C16   H10   1.110841 S    
C14   H6    1.083587 S    
O7    Cu2   1.955809 S    
C13   C14   1.326092 D    
C8    C11   1.536972 S    
O3    Cu2   1.946658 S    
C9    C11   1.530542 S    
C15   C16   1.522132 S    
O10   C17   1.417393 S    
C10   C12   1.530546 S    
C4    C9    1.450193 S    
O6    C4    1.300079 A    
C8    C10   1.541513 S    
N3    O12   1.299192 A    
C18   H15   1.110837 S    
O9    C15   1.417386 S    
C13   H5    1.083574 S    
O2    C2    1.297477 A    
C18   H14   1.108895 S    
C11   O9    1.414145 S    
O5    C3    1.300082 A    
C7    C12   1.536972 S    
O7    C3    1.293731 A    
C5    H3    1.106124 S    
C6    C9    1.540251 S    
C17   H13   1.115812 S    
O1    C1    1.297469 A    
C5    C10   1.540252 S    
O8    C4    1.293731 A    
C2    C14   1.425398 S    
C16   H9    1.109834 S    
N4    O14   1.299159 A    
C15   H7    1.115806 S    
C16   H11   1.108912 S    
C15   H8    1.110770 S    
N1    N3    1.383582 S    
O2    Cu2   1.955011 S    
C6    H4    1.106133 S    
Cu1   N2    2.039944 S    
O1    Cu1   1.955009 S    
C17   H12   1.110773 S    
C7    C9    1.541509 S    
N1    N2    1.295195 D    
C5    C11   1.538740 S    
C1    C13   1.425393 S    
C12   O10   1.414146 S    
O5    Cu1   1.950886 S    
C6    C12   1.538743 S    
N4    O13   1.298860 A    
C6    C8    1.552339 S    
O4    C2    1.294834 A    
N3    O11   1.298915 A    
C18   H16   1.109822 S    
O4    Cu1   1.946659 S    
Cu2   N1    2.039945 S    
C5    C7    1.552335 S    
O6    Cu2   1.950888 S    
C3    C10   1.450201 S    
C7    H1    1.110449 S    
Cu1   Cu2   2.714739 S    
O8    Cu1   1.955809 S    
N2    N4    1.383567 S    
C8    H2    1.110450 S    
O3    C1    1.294839 A    
C17   C18   1.522139 S    
