data_mof_unit_19313.cif
_audit_creation_date              2012-12-10T17:01:12-0500
_audit_creation_method            fapswitch 2.2
_symmetry_space_group_name_H-M    P1
_symmetry_Int_Tables_number       1
_space_group_crystal_system       triclinic
_cell_length_a                    15.235477
_cell_length_b                    15.247584
_cell_length_c                    9.801812
_cell_angle_alpha                 90.701747
_cell_angle_beta                  62.475459
_cell_angle_gamma                 90.850519
_cell_volume                      2019.01539047

loop_
_atom_site_label
_atom_site_type_symbol
_atom_type_description
_atom_site_fract_x
_atom_site_fract_y
_atom_site_fract_z
_atom_type_partial_charge
C1    C     C_R   0.374767 0.121338 0.558029 0.830814
C2    C     C_R   0.629915 0.883189 0.440060 0.738460
C3    C     C_R   0.627753 0.120108 0.441861 0.776103
C4    C     C_R   0.371386 0.880609 0.558382 0.768703
C5    C     C_R   0.873018 0.620363 0.558890 0.807545
C6    C     C_R   0.130014 0.383451 0.440153 0.746793
C7    C     C_R   0.127663 0.620192 0.441921 0.782163
C8    C     C_R   0.871281 0.380712 0.558395 0.766737
C9    C     C_2   0.498744 0.036182 0.932276 0.533553
C10   C     C_2   0.483154 0.016059 0.093963 0.554164
C11   C     C_2   0.998736 0.536252 0.932273 0.536952
C12   C     C_2   0.983170 0.516100 0.093886 0.554093
C13   C     C_2   0.295013 0.812597 0.580275 0.223003
C14   C     C_2   0.696137 0.195091 0.423163 0.322508
C15   C     C_2   0.705527 0.816666 0.413013 0.223509
C16   C     C_2   0.308210 0.195804 0.580920 0.252808
C17   C     C_2   0.794968 0.312655 0.580112 0.223651
C18   C     C_2   0.195976 0.695240 0.423376 0.320661
C19   C     C_2   0.205339 0.317083 0.413545 0.207180
C20   C     C_2   0.804485 0.694395 0.582004 0.259374
C21   C     C_2   0.224361 0.832071 0.538181 0.313309
C22   C     C_2   0.659339 0.263918 0.521780 0.291945
C23   C     C_2   0.763924 0.826219 0.482891 0.312671
C24   C     C_2   0.333234 0.257432 0.470271 0.307098
C25   C     C_2   0.724465 0.332080 0.537601 0.308343
C26   C     C_2   0.159202 0.763923 0.522386 0.298775
C27   C     C_2   0.263031 0.325873 0.484760 0.302592
C28   C     C_2   0.832894 0.757111 0.472166 0.312604
Cu1   Cu    Cu3+1 0.522650 0.000000 0.349410 1.037554
Cu2   Cu    Cu3+1 0.477350 0.000000 0.650590 1.076765
Cu3   Cu    Cu3+1 0.022650 0.500000 0.349410 1.041502
Cu4   Cu    Cu3+1 0.977350 0.500000 0.650590 1.062938
N1    N     N_2   0.443290 0.000000 0.876860 -0.028592
N2    N     N_2   0.556710 0.000000 0.123140 -0.042956
N3    N     N_2   0.943290 0.500000 0.876860 -0.032455
N4    N     N_2   0.056710 0.500000 0.123140 -0.044442
O1    O     O_R   0.422430 0.089640 0.419570 -0.542946
O2    O     O_R   0.577570 0.910360 0.580430 -0.567480
O3    O     O_R   0.577570 0.089640 0.580430 -0.497211
O4    O     O_R   0.422430 0.910360 0.419570 -0.520410
O5    O     O_R   0.922430 0.589640 0.419570 -0.533736
O6    O     O_R   0.077570 0.410360 0.580430 -0.570068
O7    O     O_R   0.077570 0.589640 0.580430 -0.494406
O8    O     O_R   0.922430 0.410360 0.419570 -0.520517
O9    O     O_R   0.384170 0.089650 0.673910 -0.533248
O10   O     O_R   0.615830 0.910350 0.326090 -0.606976
O11   O     O_R   0.615830 0.089650 0.326090 -0.565264
O12   O     O_R   0.384170 0.910350 0.673910 -0.573883
O13   O     O_R   0.884170 0.589650 0.673910 -0.559753
O14   O     O_R   0.115830 0.410350 0.326090 -0.602537
O15   O     O_R   0.115830 0.589650 0.326090 -0.564623
O16   O     O_R   0.884170 0.410350 0.673910 -0.574039
O17   O     O_3   0.647155 0.024153 0.012620 -0.521435
C29   C     C_3   0.716009 0.963145 0.009914 -0.012794
H1    H     H_    0.741273 0.981160 0.095955 0.137376
H2    H     H_    0.782050 0.966020 0.895401 0.185555
H3    H     H_    0.686968 0.894497 0.025724 0.153812
O18   O     O_3   0.375413 0.939775 0.966285 -0.498663
C30   C     C_3   0.422049 0.857488 0.941984 -0.085501
H4    H     H_    0.364684 0.806761 0.003572 0.160595
H5    H     H_    0.475530 0.856341 0.989452 0.121300
H6    H     H_    0.460458 0.838803 0.819112 0.162766
O19   O     O_3   0.147149 0.524119 0.012549 -0.524077
C31   C     C_3   0.216056 0.463292 0.010211 -0.001015
H7    H     H_    0.241109 0.481456 0.096432 0.135333
H8    H     H_    0.282218 0.466213 0.895848 0.186765
H9    H     H_    0.187158 0.394595 0.025998 0.164100
O20   O     O_3   0.875393 0.439826 0.966420 -0.498792
C32   C     C_3   0.922002 0.357514 0.942047 -0.091862
H10   H     H_    0.864684 0.306857 0.004218 0.160128
H11   H     H_    0.975845 0.356438 0.988830 0.123663
H12   H     H_    0.960013 0.338668 0.819218 0.159423
Cl1   Cl    Cl    0.530140 0.281328 0.627255 -0.571847
Cl2   Cl    Cl    0.196287 0.941693 0.520885 -0.628338
Cl3   Cl    Cl    0.451788 0.265482 0.309768 -0.609276
Cl4   Cl    Cl    0.763267 0.920794 0.589914 -0.545056
Cl5   Cl    Cl    0.030006 0.781071 0.628795 -0.577387
Cl6   Cl    Cl    0.696671 0.441624 0.519037 -0.607990
Cl7   Cl    Cl    0.954741 0.767710 0.320442 -0.602448
Cl8   Cl    Cl    0.260788 0.419022 0.595870 -0.538540
O21   O     O_3   0.797843 0.194869 0.322695 -0.576849
C33   C     C_3   0.827923 0.122424 0.221415 -0.268815
H13   H     H_    0.796183 0.125761 0.139865 0.161145
H14   H     H_    0.809410 0.059256 0.284828 0.179619
H15   H     H_    0.909605 0.125473 0.151852 0.185697
O22   O     O_3   0.306214 0.725186 0.608913 -0.566020
C34   C     C_3   0.340536 0.718069 0.719230 -0.244746
H16   H     H_    0.420068 0.736404 0.669075 0.128264
H17   H     H_    0.333387 0.648546 0.755319 0.228121
H18   H     H_    0.295155 0.757684 0.824050 0.158484
O23   O     O_3   0.223114 0.207030 0.719603 -0.577122
C35   C     C_3   0.158238 0.135340 0.744059 -0.289360
H19   H     H_    0.187674 0.074461 0.768306 0.205729
H20   H     H_    0.142290 0.125403 0.644902 0.180145
H21   H     H_    0.086895 0.149709 0.846530 0.178995
O24   O     O_3   0.720772 0.745775 0.313606 -0.631713
C36   C     C_3   0.631329 0.715301 0.318077 -0.285525
H22   H     H_    0.570559 0.710090 0.437852 0.165140
H23   H     H_    0.642730 0.648590 0.267163 0.189676
H24   H     H_    0.609648 0.757070 0.246914 0.191943
O25   O     O_3   0.297609 0.695307 0.322416 -0.578521
C37   C     C_3   0.327956 0.622427 0.222136 -0.268303
H25   H     H_    0.296445 0.625148 0.140243 0.162928
H26   H     H_    0.309423 0.559531 0.286365 0.178350
H27   H     H_    0.409659 0.625498 0.152887 0.182610
O26   O     O_3   0.806039 0.225220 0.608942 -0.562586
C38   C     C_3   0.842371 0.217977 0.716781 -0.251851
H28   H     H_    0.921856 0.236773 0.664662 0.121856
H29   H     H_    0.836202 0.148346 0.751933 0.225554
H30   H     H_    0.797651 0.257163 0.822453 0.159967
O27   O     O_3   0.711162 0.703606 0.709848 -0.601524
C39   C     C_3   0.679529 0.629983 0.807018 -0.241398
H31   H     H_    0.717728 0.628040 0.879802 0.191019
H32   H     H_    0.688679 0.567782 0.741936 0.193275
H33   H     H_    0.599314 0.636740 0.885968 0.171025
O28   O     O_3   0.220581 0.247208 0.312482 -0.622897
C40   C     C_3   0.129374 0.210785 0.332917 -0.299128
H34   H     H_    0.078859 0.197017 0.456141 0.150315
H35   H     H_    0.143313 0.147432 0.270335 0.200063
H36   H     H_    0.093235 0.253190 0.282758 0.200757
O29   O     O_3   0.387911 0.005894 0.212820 -0.542277
C41   C     C_3   0.328328 0.076695 0.215959 -0.137455
H37   H     H_    0.291162 0.062268 0.144050 0.193927
H38   H     H_    0.369765 0.139909 0.180394 0.154090
H39   H     H_    0.270055 0.086058 0.335705 0.227195
O30   O     O_3   0.575929 0.091067 0.839066 -0.526710
C42   C     C_3   0.561409 0.174862 0.908538 -0.184082
H40   H     H_    0.569759 0.174088 0.015176 0.195494
H41   H     H_    0.488223 0.201992 0.932393 0.172060
H42   H     H_    0.618954 0.220164 0.828410 0.216844
O31   O     O_3   0.887846 0.506420 0.212654 -0.541639
C43   C     C_3   0.829458 0.578226 0.215921 -0.143575
H43   H     H_    0.795713 0.566854 0.138348 0.180144
H44   H     H_    0.871284 0.641435 0.187457 0.152829
H45   H     H_    0.768504 0.585397 0.334145 0.242157
O32   O     O_3   0.075505 0.591644 0.839516 -0.525517
C44   C     C_3   0.060476 0.675223 0.909931 -0.190927
H46   H     H_    0.068567 0.674234 0.016821 0.192927
H47   H     H_    0.987162 0.702093 0.933871 0.167190
H48   H     H_    0.117866 0.720872 0.830387 0.217881

loop_
_geom_bond_atom_site_label_1
_geom_bond_atom_site_label_2
_ccdc_geom_bond_type
C11   O32   S    
C34   H16   S    
N1    O18   S    
C12   O31   S    
Cu2   O9    S    
O27   C39   S    
C18   C26   D    
C24   C27   S    
C23   Cl4   S    
C21   C26   S    
C10   O29   S    
C39   H32   S    
C36   H22   S    
C5    C20   S    
O17   C29   S    
C2    O10   A    
C6    C19   S    
C44   H47   S    
O25   C37   S    
Cu1   O11   S    
N3    O20   S    
Cu2   O12   S    
C40   H35   S    
O26   C38   S    
O28   C40   S    
Cu2   O2    S    
C37   H27   S    
C4    C13   S    
C32   H11   S    
C28   Cl7   S    
Cu4   O16   S    
C4    O4    A    
O20   C32   S    
C22   C25   S    
C13   O22   S    
C38   H28   S    
C7    O7    A    
C12   N4    D    
N4    O19   S    
C19   C27   D    
C9    C10   S    
C8    O16   A    
C1    O1    A    
C15   C23   D    
C3    O3    A    
C30   H4    S    
C16   C24   D    
C9    N1    D    
C38   H29   S    
C5    O13   A    
C32   H10   S    
C39   H31   S    
C36   H23   S    
O21   C33   S    
C44   H48   S    
C29   H2    S    
C30   H5    S    
C26   Cl5   S    
C31   H9    S    
C25   Cl6   S    
Cu4   N3    S    
C43   H45   S    
C27   Cl8   S    
Cu3   O8    S    
C40   H36   S    
C15   O24   S    
O22   C34   S    
C43   H43   S    
C20   C28   D    
O18   C30   S    
C21   Cl2   S    
C35   H21   S    
C18   O25   S    
C31   H8    S    
C32   H12   S    
C42   H41   S    
Cu1   Cu2   S    
C20   O27   S    
C2    O2    A    
Cu3   Cu4   S    
C7    C18   S    
O24   C36   S    
C35   H20   S    
C13   C21   D    
C10   N2    D    
C1    C16   S    
C23   C28   S    
C6    O14   A    
C37   H26   S    
C2    C15   S    
O29   C41   S    
C3    C14   S    
N2    O17   S    
C33   H14   S    
C34   H17   S    
C38   H30   S    
Cu3   O14   S    
C41   H38   S    
C42   H40   S    
O23   C35   S    
C36   H24   S    
C4    O12   A    
C5    O5    A    
C29   H1    S    
C30   H6    S    
Cu3   O5    S    
Cu2   N1    S    
C8    O8    A    
Cu3   O15   S    
O32   C44   S    
C11   C12   S    
C24   Cl3   S    
C33   H15   S    
C44   H46   S    
C9    O30   S    
C22   Cl1   S    
Cu1   O10   S    
C17   C25   D    
C31   H7    S    
C14   C22   D    
C41   H39   S    
C11   N3    D    
C42   H42   S    
C7    O15   A    
C17   O26   S    
C8    C17   S    
C1    O9    A    
C19   O28   S    
O30   C42   S    
Cu1   N2    S    
Cu1   O4    S    
C3    O11   A    
C35   H19   S    
Cu4   O7    S    
Cu2   O3    S    
C37   H25   S    
Cu4   O13   S    
O19   C31   S    
C16   O23   S    
C43   H44   S    
C33   H13   S    
C6    O6    A    
C34   H18   S    
Cu1   O1    S    
Cu4   O6    S    
Cu3   N4    S    
C14   O21   S    
C41   H37   S    
C40   H34   S    
C39   H33   S    
O31   C43   S    
C29   H3    S    
