data_mof_unit_6081.cif
_audit_creation_date              2012-12-10T16:57:47-0500
_audit_creation_method            fapswitch 2.2
_symmetry_space_group_name_H-M    P1
_symmetry_Int_Tables_number       1
_space_group_crystal_system       triclinic
_cell_length_a                    7.863906
_cell_length_b                    8.582425
_cell_length_c                    19.072035
_cell_angle_alpha                 92.124673
_cell_angle_beta                  85.927977
_cell_angle_gamma                 92.516346
_cell_volume                      1281.96562393

loop_
_atom_site_label
_atom_site_type_symbol
_atom_type_description
_atom_site_fract_x
_atom_site_fract_y
_atom_site_fract_z
_atom_type_partial_charge
C1    C     C_R   0.543471 0.793652 0.499951 0.941761
C2    C     C_R   0.547778 0.341089 0.178342 0.208338
C3    C     C_R   0.513573 0.529420 0.854318 0.033115
C4    C     C_R   0.487172 0.471405 0.145666 0.033150
C5    C     C_R   0.579752 0.403366 0.814575 -0.203212
C6    C     C_R   0.421109 0.597457 0.185447 -0.203223
C7    C     C_R   0.577882 0.399508 0.742452 -0.260772
C8    C     C_R   0.422654 0.601034 0.257580 -0.260663
C9    C     C_R   0.510734 0.522004 0.709023 -0.060836
C10   C     C_R   0.489356 0.478257 0.290971 -0.060763
C11   C     C_R   0.492776 0.481837 0.069816 0.296684
C12   C     C_R   0.456529 0.206348 0.500050 0.941784
C13   C     C_R   0.508087 0.519165 0.930177 0.296684
C14   C     C_3   0.397853 0.797171 0.709930 -0.933881
C15   C     C_3   0.601672 0.202881 0.289971 -0.933840
C16   C     C_3   0.391485 0.798834 0.866421 -0.891245
C17   C     C_3   0.608625 0.201739 0.133463 -0.891246
C18   C     C_3   0.685015 0.011946 0.566387 -0.907729
C19   C     C_3   0.314982 0.988054 0.433617 -0.907753
C20   C     C_3   0.017916 0.399166 0.413809 -0.476768
C21   C     C_3   0.982082 0.600838 0.586190 -0.476781
C22   C     C_2   0.559361 0.955617 0.512692 -0.009019
C23   C     C_2   0.440637 0.044384 0.487311 -0.009050
C24   C     C_R   0.502863 0.505462 0.633837 0.860914
C25   C     C_R   0.497147 0.494584 0.366164 0.860940
C26   C     C_R   0.453193 0.656682 0.747309 0.189575
C27   C     C_R   0.546770 0.343602 0.252634 0.189535
C28   C     C_R   0.452507 0.659470 0.821595 0.208323
H1    H     H_    0.627794 0.304612 0.839741 0.164946
H2    H     H_    0.737315 0.180742 0.274156 0.250964
H3    H     H_    0.269196 0.766982 0.896058 0.256821
H4    H     H_    0.488386 0.835669 0.903983 0.239975
H5    H     H_    0.368971 0.902609 0.836256 0.245959
H6    H     H_    0.731022 0.233472 0.103879 0.256782
H7    H     H_    0.630867 0.097824 0.163584 0.245943
H8    H     H_    0.511750 0.165166 0.095848 0.239987
H9    H     H_    0.727522 0.913758 0.596184 0.221120
H10   H     H_    0.800178 0.068657 0.539561 0.274996
H11   H     H_    0.624413 0.094087 0.606006 0.233575
H12   H     H_    0.373384 0.696401 0.160311 0.164886
H13   H     H_    0.272441 0.086244 0.403831 0.221108
H14   H     H_    0.375600 0.905943 0.393990 0.233568
H15   H     H_    0.199835 0.931311 0.460441 0.275019
H16   H     H_    0.917262 0.325746 0.389313 0.182316
H17   H     H_    0.053493 0.497203 0.378582 0.198389
H18   H     H_    0.124114 0.322142 0.419370 0.206119
H19   H     H_    0.082733 0.674261 0.610685 0.182293
H20   H     H_    0.875883 0.677859 0.580628 0.206130
H21   H     H_    0.946507 0.502802 0.621419 0.198386
H22   H     H_    0.624754 0.298326 0.712604 0.153494
H23   H     H_    0.375908 0.702217 0.287464 0.153399
H24   H     H_    0.410391 0.784517 0.651943 0.245373
H25   H     H_    0.262222 0.819166 0.725838 0.250944
H26   H     H_    0.479486 0.901262 0.723442 0.238491
H27   H     H_    0.588857 0.215362 0.347963 0.245201
H28   H     H_    0.519955 0.098939 0.276327 0.238491
N1    N     N_R   0.646200 0.472781 0.961154 -0.171253
N2    N     N_R   0.354673 0.528231 0.038841 -0.171200
N3    N     N_R   0.639016 0.455636 0.030128 -0.165571
N4    N     N_R   0.361857 0.545370 0.969868 -0.165587
N5    N     N_2   0.950330 0.457950 0.481240 -0.008386
N6    N     N_2   0.049670 0.542050 0.518760 -0.008385
O1    O     O_R   0.389250 0.738570 0.504600 -0.618348
O2    O     O_R   0.610750 0.261430 0.495400 -0.618285
O3    O     O_R   0.678400 0.711620 0.492580 -0.622943
O4    O     O_R   0.321600 0.288380 0.507420 -0.622938
O5    O     O_R   0.355380 0.513500 0.607880 -0.609946
O6    O     O_R   0.644620 0.486500 0.392120 -0.609900
O7    O     O_R   0.644530 0.486550 0.595850 -0.638274
O8    O     O_R   0.355470 0.513450 0.404150 -0.638273
Zn1   Zn    Zn3+2 0.306930 0.517990 0.508030 0.935279
Zn2   Zn    Zn3+2 0.693070 0.482010 0.491970 0.935316

loop_
_geom_bond_atom_site_label_1
_geom_bond_atom_site_label_2
_ccdc_geom_bond_type
C10   C27   A    
C16   C28   S    
O7    Zn2   S    
C2    C4    A    
C18   H11   S    
C9    C24   S    
C2    C27   A    
C17   H8    S    
C16   H5    S    
C16   H4    S    
C11   N2    A    
C5    C7    A    
C15   C27   S    
C20   H17   S    
C3    C13   S    
C19   H14   S    
O6    Zn2   S    
C21   H20   S    
C4    C11   S    
C15   H28   S    
C21   H21   S    
C18   H10   S    
C1    C22   S    
C13   N4    A    
C18   C22   S    
C26   C28   A    
C14   C26   S    
C2    C17   S    
C12   C23   S    
C21   N6    S    
O8    Zn1   S    
C25   O6    A    
O4    Zn1   S    
C11   N3    A    
C1    O1    A    
C10   C25   S    
C8    C10   A    
C3    C28   A    
C14   H26   S    
C18   H9    S    
O1    Zn1   S    
N6    Zn1   S    
C5    H1    S    
O2    Zn2   S    
N5    N6    D    
C9    C26   A    
C6    H12   S    
N1    N3    A    
O5    Zn1   S    
C13   N1    A    
C17   H6    S    
N2    N4    A    
O3    Zn2   S    
C20   H18   S    
C14   H25   S    
N5    Zn2   S    
C15   H2    S    
C4    C6    A    
C16   H3    S    
C8    H23   S    
C20   N5    S    
C7    C9    A    
C12   O2    A    
C21   H19   S    
C19   C23   S    
C6    C8    A    
C25   O8    A    
C17   H7    S    
C24   O5    A    
C20   H16   S    
C22   C23   D    
C12   O4    A    
C1    O3    A    
C14   H24   S    
C19   H13   S    
C7    H22   S    
C19   H15   S    
C24   O7    A    
C3    C5    A    
C15   H27   S    
