data_mof_unit_57806.cif
_audit_creation_date              2012-12-10T17:46:22-0500
_audit_creation_method            fapswitch 2.2
_symmetry_space_group_name_H-M    P1
_symmetry_Int_Tables_number       1
_space_group_crystal_system       triclinic
_cell_length_a                    14.135101
_cell_length_b                    10.618105
_cell_length_c                    9.968799
_cell_angle_alpha                 90.98197
_cell_angle_beta                  89.316396
_cell_angle_gamma                 91.75464
_cell_volume                      1495.17840339

loop_
_atom_site_label
_atom_site_type_symbol
_atom_type_description
_atom_site_fract_x
_atom_site_fract_y
_atom_site_fract_z
_atom_type_partial_charge
Br1   Br    Br    0.138566 0.830107 0.680364 -0.489801
Br2   Br    Br    0.691422 0.859571 0.400282 -0.492971
Br3   Br    Br    0.343063 0.248292 0.236904 -0.508111
C1    C     C_R   0.498750 0.260767 0.499132 0.889037
C2    C     C_R   0.574717 0.067953 0.454249 -0.211719
C3    C     C_R   0.576728 0.939145 0.456713 0.253533
C4    C     C_R   0.329405 0.499620 0.500700 0.864626
C5    C     C_R   0.496614 0.871598 0.502699 -0.149935
C6    C     C_R   0.338550 0.398373 0.134046 0.218527
C7    C     C_R   0.253899 0.393728 0.061111 0.069881
C8    C     C_R   0.259657 0.376845 0.922284 0.119787
C9    C     C_R   0.348458 0.387361 0.860087 -0.211465
C10   C     C_R   0.424820 0.445427 0.927641 0.111946
C11   C     C_R   0.422714 0.447756 0.071405 0.090606
C12   C     C_1   0.772177 0.500108 0.498152 -0.152691
C13   C     C_R   0.573353 0.550445 0.071085 -0.077838
C14   C     C_R   0.572969 0.551300 0.928431 -0.080729
C15   C     C_R   0.500118 0.739223 0.500935 0.918247
C16   C     C_R   0.670617 0.500265 0.499306 0.907717
C17   C     C_1   0.227916 0.499308 0.501942 -0.187382
C18   C     C_1   0.142630 0.499156 0.501869 0.008488
C19   C     C_1   0.042727 0.499255 0.500833 0.050117
C20   C     C_1   0.957435 0.499519 0.499642 0.050636
C21   C     C_1   0.857497 0.499876 0.498438 0.029130
C22   C     C_R   0.327261 0.124142 0.576413 -0.193589
C23   C     C_R   0.246943 0.055386 0.618255 -0.145283
C24   C     C_R   0.248740 0.924533 0.623909 0.341705
C25   C     C_R   0.330771 0.862277 0.586711 -0.199492
C26   C     C_R   0.412949 0.930802 0.544356 0.004624
C27   C     C_R   0.411311 0.062434 0.540411 0.125103
C28   C     C_R   0.493743 0.128244 0.497149 -0.101008
H1    H     H_    0.636991 0.121590 0.421104 0.172338
H2    H     H_    0.158294 0.300422 0.181534 0.240272
H3    H     H_    0.158450 0.459472 0.195246 0.196201
H4    H     H_    0.356866 0.348672 0.761314 0.197360
H5    H     H_    0.632465 0.594079 0.875165 0.157862
H6    H     H_    0.322386 0.225195 0.569786 0.132873
H7    H     H_    0.183028 0.103875 0.645178 0.172545
H8    H     H_    0.329027 0.760617 0.590475 0.156911
H9    H     H_    0.633154 0.592366 0.123953 0.168409
H10   H     H_    0.131303 0.416773 0.851703 0.219844
H11   H     H_    0.194197 0.327351 0.746094 0.165931
N1    N     N_R   0.499190 0.498800 0.142780 -0.099519
N2    N     N_R   0.499160 0.498720 0.857170 -0.098960
N3    N     N_3   0.176675 0.340839 0.847394 -0.403293
N4    N     N_3   0.163363 0.383722 0.127420 -0.419182
O1    O     O_R   0.500000 0.316780 0.614690 -0.630253
O2    O     O_R   0.499990 0.316750 0.385360 -0.555582
O3    O     O_R   0.373720 0.500010 0.614690 -0.628610
O4    O     O_R   0.373710 0.499990 0.385360 -0.580337
O5    O     O_R   0.500010 0.683250 0.614640 -0.603433
O6    O     O_R   0.500000 0.683220 0.385310 -0.582199
O7    O     O_R   0.626290 0.500010 0.614640 -0.599044
O8    O     O_R   0.626280 0.499990 0.385310 -0.592316
Zn1   Zn    Zn3+2 0.500010 0.500020 0.653130 0.957339
Zn2   Zn    Zn3+2 0.499990 0.499980 0.346870 1.003146

loop_
_geom_bond_atom_site_label_1
_geom_bond_atom_site_label_2
_ccdc_geom_bond_type
C7    N4    S    
C8    C9    A    
O8    Zn2   S    
C26   C27   A    
H3    N4    S    
C14   H5    S    
C6    C7    A    
N2    Zn1   S    
O2    Zn2   S    
C27   C28   A    
C6    C11   A    
C2    H1    S    
C23   H7    S    
C16   O7    A    
C14   N2    A    
C15   O6    A    
O3    Zn1   S    
C10   C11   A    
C9    C10   A    
C9    H4    S    
C12   C16   S    
H2    N4    S    
C13   N1    A    
C23   C24   A    
Br2   C3    S    
C13   H9    S    
Br3   C6    S    
C5    C26   A    
C16   O8    A    
C12   C21   T    
C15   O5    A    
O5    Zn1   S    
O7    Zn1   S    
C2    C3    A    
O4    Zn2   S    
C8    N3    S    
C1    C28   S    
C7    C8    A    
C20   C21   S    
N1    Zn2   S    
C24   C25   A    
C17   C18   T    
C4    O3    A    
C11   N1    A    
O1    Zn1   S    
C4    C17   S    
C1    O2    A    
C22   C27   A    
Br1   C24   S    
H10   N3    S    
C19   C20   T    
C25   C26   A    
C3    C5    A    
C25   H8    S    
C22   H6    S    
C22   C23   A    
C18   C19   S    
C1    O1    A    
C10   N2    A    
C5    C15   S    
O6    Zn2   S    
C4    O4    A    
C13   C14   A    
C2    C28   A    
H11   N3    S    
