data_mof_unit_20194.cif
_audit_creation_date              2012-12-11T16:31:30-0500
_audit_creation_method            fapswitch 2.2
_symmetry_space_group_name_H-M    P1
_symmetry_Int_Tables_number       1
_space_group_crystal_system       triclinic
_cell_length_a                    7.064704
_cell_length_b                    18.563931
_cell_length_c                    20.009558
_cell_angle_alpha                 68.543025
_cell_angle_beta                  90.780509
_cell_angle_gamma                 91.001729
_cell_volume                      2441.90159702

loop_
_atom_site_label
_atom_site_type_symbol
_atom_type_description
_atom_site_fract_x
_atom_site_fract_y
_atom_site_fract_z
_atom_type_partial_charge
O1    O     O_R   0.488990 0.443920 0.942160 -0.516881
O2    O     O_R   0.823840 0.406530 0.087600 -0.531760
O3    O     O_R   0.999650 0.556080 0.057840 -0.512783
C1    C     C_R   0.656413 0.389742 0.118128 0.772262
O4    O     O_R   0.818390 0.434590 0.944530 -0.520749
O5    O     O_R   0.994160 0.584350 0.913750 -0.528835
C2    C     C_R   0.649567 0.421110 0.923919 0.726953
O6    O     O_R   0.494480 0.415650 0.086250 -0.547486
O7    O     O_3   0.662600 0.549100 0.990070 -0.368612
V1    V     V_3+5 0.935320 0.490890 0.001840 1.613962
O8    O     O_R   0.324240 0.593470 0.912400 -0.534238
C3    C     C_R   0.155323 0.616631 0.885805 0.769395
O9    O     O_R   0.329690 0.565410 0.055470 -0.533331
C4    C     C_R   0.163431 0.577229 0.077249 0.708145
V2    V     V_3+5 0.435990 0.509110 0.998160 1.592727
O10   O     O_3   0.158840 0.450900 0.009930 -0.361397
C5    C     C_3   0.988936 0.665399 0.268820 -0.435696
C6    C     C_3   0.328789 0.684740 0.267631 0.110483
C7    C     C_3   0.297630 0.723276 0.324838 0.159277
H1    H     H_    0.025920 0.606908 0.307736 0.252652
H2    H     H_    0.349914 0.621562 0.296838 0.166853
H3    H     H_    0.266349 0.674541 0.375742 0.194272
C8    C     C_1   0.104871 0.866580 0.385608 0.042627
C9    C     C_3   0.154452 0.697018 0.216254 -0.172663
C10   C     C_3   0.948529 0.720027 0.310627 0.209342
C11   C     C_3   0.120207 0.776137 0.304563 -0.231982
C12   C     C_3   0.130774 0.832505 0.223408 0.445048
C13   C     C_3   0.125736 0.785997 0.170407 0.522001
C14   C     C_1   0.105601 0.823340 0.351896 0.266250
C15   C     C_1   0.163519 0.651926 0.168067 0.188984
C16   C     C_1   0.162926 0.617867 0.126627 -0.024064
H4    H     H_    0.866425 0.653341 0.240610 0.278749
H5    H     H_    0.826135 0.755843 0.286131 0.227310
C17   C     C_R   0.143191 0.769869 0.883038 -0.157014
C18   C     C_R   0.136951 0.842775 0.886525 -0.084648
C19   C     C_R   0.125422 0.907247 0.824241 -0.011311
C20   C     C_R   0.119270 0.900546 0.756939 0.181262
C21   C     C_R   0.124019 0.825412 0.750947 -0.005878
C22   C     C_R   0.137265 0.759113 0.816435 0.025988
C23   C     C_R   0.114396 0.813664 0.683929 -0.092202
C24   C     C_R   0.116266 0.735927 0.684078 -0.083098
C25   C     C_R   0.139129 0.670319 0.749903 -0.098297
C26   C     C_R   0.145158 0.682872 0.815998 -0.085172
C27   C     C_R   0.099414 0.721065 0.619360 0.195271
C28   C     C_R   0.152901 0.650316 0.617081 0.269497
C29   C     C_R   0.160436 0.585801 0.679713 0.358880
C30   C     C_R   0.149916 0.594048 0.746307 0.214683
H6    H     H_    0.152819 0.721904 0.933877 0.102665
H7    H     H_    0.141272 0.849340 0.938115 0.213973
H8    H     H_    0.120703 0.963605 0.828628 0.240988
C31   C     C_R   0.555374 0.245183 0.116873 -0.287751
C32   C     C_R   0.534784 0.175989 0.108054 0.220571
C33   C     C_R   0.573088 0.108412 0.165139 0.435173
C34   C     C_R   0.602016 0.108309 0.235380 0.214582
C35   C     C_R   0.607396 0.180508 0.246957 -0.071593
C36   C     C_R   0.602078 0.249601 0.184174 -0.012789
C37   C     C_R   0.613898 0.187715 0.316369 -0.077246
C38   C     C_R   0.617197 0.264238 0.319245 -0.050358
C39   C     C_R   0.657000 0.330929 0.255674 -0.098877
C40   C     C_R   0.643771 0.322721 0.187585 -0.052959
C41   C     C_R   0.579284 0.277775 0.383533 0.250775
C42   C     C_R   0.624612 0.348054 0.389479 -0.134920
C43   C     C_R   0.685156 0.410143 0.330918 0.384703
C44   C     C_R   0.695635 0.404017 0.263302 0.253035
H9    H     H_    0.535913 0.295486 0.068688 0.155943
H10   H     H_    0.598438 0.356513 0.439324 0.260077
O11   O     O_R   0.770890 0.084490 0.414040 -0.535870
O12   O     O_R   0.445980 0.065450 0.555510 -0.500265
O13   O     O_R   0.270670 0.915620 0.586180 -0.544245
C45   C     C_R   0.615449 0.078595 0.576507 0.746963
O14   O     O_R   0.441480 0.093500 0.412450 -0.513566
O15   O     O_R   0.266140 0.943870 0.442100 -0.532128
C46   C     C_R   0.609547 0.117523 0.385324 0.811624
O16   O     O_R   0.775410 0.056240 0.558120 -0.530906
O17   O     O_3   0.602660 0.950990 0.510100 -0.362218
V3    V     V_3+5 0.329740 0.009100 0.498130 1.689934
O18   O     O_R   0.936120 0.934420 0.444240 -0.497927
C47   C     C_R   0.103048 0.919213 0.425038 0.758460
O19   O     O_R   0.940610 0.906370 0.587310 -0.514777
C48   C     C_R   0.109087 0.881896 0.613971 0.787013
V4    V     V_3+5 0.829110 0.990690 0.501470 1.698415
O20   O     O_3   0.106080 0.049010 0.489880 -0.354750
C49   C     C_3   0.838555 0.251602 0.701307 0.651884
C50   C     C_3   0.485822 0.275642 0.683247 0.203719
C51   C     C_3   0.514436 0.331403 0.725467 0.158729
H11   H     H_    0.922427 0.346513 0.739048 0.249712
H12   H     H_    0.348930 0.247121 0.700722 0.190504
H13   H     H_    0.374166 0.339255 0.746478 0.140495
C52   C     C_1   0.645433 0.376490 0.877487 -0.043820
C53   C     C_3   0.639474 0.210510 0.705738 -0.202138
C54   C     C_3   0.852750 0.288569 0.760529 -0.360243
C55   C     C_3   0.651850 0.294165 0.790097 -0.119625
C56   C     C_3   0.582818 0.210130 0.832838 -0.417046
C57   C     C_3   0.597085 0.157725 0.787254 0.523886
C58   C     C_1   0.650961 0.339566 0.838292 0.130321
C59   C     C_1   0.630608 0.163500 0.658867 0.262322
C60   C     C_1   0.625226 0.124879 0.621228 0.031826
H14   H     H_    0.668255 0.185626 0.882934 0.250224
H15   H     H_    0.944366 0.252716 0.805714 0.198124
H16   H     H_    0.434061 0.211934 0.849739 0.225552
Cl1   Cl    Cl    0.887819 0.662184 0.401389 -0.378560
Cl2   Cl    Cl    0.338250 0.890931 0.211906 -0.336896
Cl3   Cl    Cl    0.157951 0.493221 0.673280 -0.416378
Br1   Br    Br    0.103193 0.000476 0.680817 -0.432576
Cl4   Cl    Cl    0.943337 0.772282 0.549906 -0.570183
Br2   Br    Br    0.211406 0.641407 0.527272 -0.215082
Cl5   Cl    Cl    0.154365 0.504928 0.820796 -0.591619
Cl6   Cl    Cl    0.722738 0.498315 0.343566 -0.481817
Br3   Br    Br    0.463142 0.177540 0.014570 -0.421430
Cl7   Cl    Cl    0.599662 0.026623 0.143498 -0.283691
Cl8   Cl    Cl    0.636515 0.016648 0.303715 -0.543074
Cl9   Cl    Cl    0.420332 0.222823 0.449759 -0.580340
Cl10  Cl    Cl    0.756625 0.490903 0.192187 -0.620902
Br4   Br    Br    0.550057 0.716787 0.213200 -0.354135
Cl11  Cl    Cl    0.885233 0.324221 0.614545 -0.367799
Cl12  Cl    Cl    0.446447 0.323413 0.588248 -0.364088
Br5   Br    Br    0.601386 0.436507 0.666395 -0.202433
Br6   Br    Br    0.778980 0.075466 0.833071 -0.311175
Cl13  Cl    Cl    0.382240 0.102631 0.796173 -0.505152
Cl14  Cl    Cl    0.023933 0.185647 0.709497 -0.515609
Br7   Br    Br    0.515014 0.770199 0.355832 -0.287807
Br8   Br    Br    0.896604 0.800205 0.111175 -0.290776
Cl15  Cl    Cl    0.290083 0.824712 0.096845 -0.391137
Br9   Br    Br    0.932684 0.909046 0.202613 -0.218291

loop_
_geom_bond_atom_site_label_1
_geom_bond_atom_site_label_2
_ccdc_geom_bond_type
C33   Cl7   S    
O18   C47   A    
C35   C36   A    
C56   C57   S    
C6    H2    S    
C24   C25   A    
C18   C19   A    
C50   H12   S    
C4    C16   S    
O15   V3    S    
C6    Br4   S    
V4    O20   S    
C13   Cl15  S    
C33   C34   A    
C32   C33   A    
C39   C44   A    
C42   C43   A    
C6    C9    S    
C8    C14   T    
C19   C20   A    
C17   C18   A    
C3    C26   S    
H11   C54   S    
O5    C3    A    
C21   C22   A    
C13   Br8   S    
V2    O10   S    
C2    C52   S    
C5    H1    S    
O13   V3    S    
C31   C36   A    
C31   H9    S    
C37   C46   S    
C7    C11   S    
O15   C47   A    
C34   C35   A    
O8    V2    S    
C45   O16   A    
C23   C48   S    
O11   C46   A    
O7    V1    S    
C45   C60   S    
C1    O6    A    
C38   C41   A    
C39   C40   A    
C50   Cl12  S    
O9    C4    A    
C50   C53   S    
C51   C55   S    
C53   C57   S    
C5    C9    S    
C42   H10   S    
C31   C32   A    
C49   Cl11  S    
C7    H3    S    
C50   C51   S    
V3    O20   S    
C54   C55   S    
O19   V4    S    
C6    C7    S    
C22   C26   A    
C10   C11   S    
C27   Cl4   S    
C55   C58   S    
C17   C22   A    
C49   Cl14  S    
C52   C58   T    
O2    C1    A    
O17   V3    S    
C18   H7    S    
C20   C21   A    
C57   Cl13  S    
O18   V4    S    
C12   Br9   S    
C59   C60   T    
C1    C40   S    
C11   C12   S    
C51   Br5   S    
C56   H16   S    
O3    C4    A    
O1    V2    S    
C23   C24   A    
O11   V4    S    
O6    V2    S    
C30   Cl5   S    
C35   C37   A    
C24   C27   A    
O19   C48   A    
C17   H6    S    
C25   C26   A    
O16   V4    S    
O2    V1    S    
O14   V3    S    
C19   H8    S    
C28   Br2   S    
O4    C2    A    
C51   H13   S    
C49   C53   S    
C29   C30   A    
C7    Br7   S    
C44   Cl10  S    
O1    C2    A    
O17   V4    S    
C27   C28   A    
C9    C13   S    
O5    V1    S    
C20   Br1   S    
O8    C3    A    
C53   C59   S    
O12   V3    S    
C49   C54   S    
C29   Cl3   S    
C12   Cl2   S    
C5    C10   S    
O9    V2    S    
C38   C39   A    
O4    V1    S    
O3    V1    S    
V1    O10   S    
C21   C23   A    
C57   Br6   S    
C10   Cl1   S    
C37   C38   A    
C15   C16   T    
C32   Br3   S    
C55   C56   S    
C34   Cl8   S    
C25   C30   A    
C8    C47   S    
O7    V2    S    
C41   C42   A    
C9    C15   S    
C43   C44   A    
C28   C29   A    
C36   C40   A    
C11   C14   S    
O12   C45   A    
O14   C46   A    
C12   C13   S    
C5    H4    S    
O13   C48   A    
C54   H15   S    
C43   Cl6   S    
C41   Cl9   S    
C56   H14   S    
C10   H5    S    
