data_mof_unit_58708.cif
_audit_creation_date              2013-03-05T16:48:04-0500
_audit_creation_method            fapswitch 2.2
_symmetry_space_group_name_H-M    P1
_symmetry_Int_Tables_number       1
_space_group_crystal_system       triclinic
_cell_length_a                    19.270021
_cell_length_b                    8.926933
_cell_length_c                    8.159231
_cell_angle_alpha                 89.867109
_cell_angle_beta                  89.797705
_cell_angle_gamma                 90.129551
_cell_volume                      1403.55261815

loop_
_atom_site_label
_atom_site_type_symbol
_atom_site_description
_atom_site_fract_x
_atom_site_fract_y
_atom_site_fract_z
_atom_type_partial_charge
O1    O     O_R   0.500000 0.285350 0.636850 -0.622754
O2    O     O_R   0.500000 0.714650 0.363150 -0.618993
O3    O     O_R   0.500000 0.714650 0.636850 -0.603116
O4    O     O_R   0.500000 0.285350 0.363150 -0.601583
C1    C     C_R   0.500099 0.218221 0.500119 0.934428
C2    C     C_R   0.500177 0.781781 0.499878 0.935977
O5    O     O_R   0.398140 0.500000 0.636920 -0.631922
O6    O     O_R   0.601860 0.500000 0.363080 -0.619924
O7    O     O_R   0.601860 0.500000 0.636920 -0.622666
O8    O     O_R   0.398140 0.500000 0.363080 -0.628941
C3    C     C_R   0.364557 0.498478 0.500322 0.871723
C4    C     C_R   0.634222 0.499140 0.499709 0.824899
Zn1   Zn    Zn3+2 0.500000 0.500000 0.682780 1.000398
Zn2   Zn    Zn3+2 0.500000 0.500000 0.317220 1.005115
C5    C     C_1   0.500292 0.065258 0.500173 -0.155682
C6    C     C_1   0.500320 0.934753 0.499829 -0.158172
N1    N     N_1   0.500000 0.500000 0.073640 -0.034188
N2    N     N_1   0.500000 0.500000 0.926360 -0.035751
C7    C     C_R   0.249687 0.491246 0.651359 0.002805
C8    C     C_R   0.749126 0.603902 0.426178 -0.045035
C9    C     C_R   0.740425 0.357263 0.563220 -0.010525
C10   C     C_R   0.249828 0.471743 0.352692 0.000101
C11   C     C_R   0.178497 0.457668 0.652246 0.151119
C12   C     C_R   0.821434 0.584397 0.411682 0.146612
C13   C     C_R   0.813198 0.348238 0.568392 0.148539
C14   C     C_R   0.177001 0.475142 0.354997 0.153019
C15   C     C_R   0.142081 0.458628 0.504507 0.031773
C16   C     C_R   0.852784 0.460318 0.489428 0.009666
C17   C     C_R   0.287374 0.488629 0.501283 -0.274379
C18   C     C_R   0.709260 0.487898 0.498458 -0.251267
N3    N     N_R   0.032280 0.343276 0.427151 -0.157134
N4    N     N_R   0.962305 0.563491 0.579978 -0.158561
N5    N     N_R   0.963435 0.343835 0.423163 -0.159351
N6    N     N_R   0.031032 0.562829 0.584064 -0.157375
C19   C     C_R   0.927762 0.454455 0.498973 0.286873
C20   C     C_R   0.066819 0.453044 0.507400 0.300835
C21   C     C_2   0.282016 0.537577 0.806874 0.447226
H1    H     H_    0.322517 0.470338 0.861484 0.107202
O9    O     O_2   0.262661 0.651590 0.875361 -0.581012
C22   C     C_2   0.714463 0.744606 0.368415 0.452993
H2    H     H_    0.659710 0.746094 0.339185 0.075519
O10   O     O_2   0.745931 0.863054 0.358411 -0.519147
C23   C     C_2   0.696419 0.229072 0.619485 0.397394
H3    H     H_    0.647841 0.247982 0.683060 0.086820
O11   O     O_2   0.713046 0.100041 0.590027 -0.519478
C24   C     C_2   0.284906 0.443762 0.194900 0.449905
H4    H     H_    0.318948 0.527938 0.142365 0.103144
O12   O     O_2   0.275781 0.325399 0.123453 -0.583879
C25   C     C_3   0.141254 0.416839 0.809176 -0.848206
H5    H     H_    0.103967 0.323854 0.788098 0.240266
H6    H     H_    0.178073 0.374283 0.901929 0.270408
H7    H     H_    0.112620 0.515681 0.855784 0.263738
C26   C     C_3   0.864712 0.692313 0.309128 -0.746301
H8    H     H_    0.874690 0.796479 0.379337 0.273402
H9    H     H_    0.915323 0.644457 0.271174 0.216124
H10   H     H_    0.837490 0.719375 0.193085 0.248086
C27   C     C_3   0.849325 0.224445 0.663609 -0.747396
H11   H     H_    0.814950 0.169949 0.755230 0.256447
H12   H     H_    0.869358 0.138670 0.577368 0.264880
H13   H     H_    0.893154 0.270602 0.735809 0.214442
C28   C     C_3   0.136372 0.504300 0.200225 -0.848482
H14   H     H_    0.169105 0.559811 0.106273 0.265896
H15   H     H_    0.114795 0.397399 0.153429 0.264527
H16   H     H_    0.093178 0.583609 0.223877 0.238912

loop_
_geom_bond_atom_site_label_1
_geom_bond_atom_site_label_2
_geom_bond_distance
_ccdc_geom_bond_type
C28   H16   1.110602 S    
C7    C11   1.403524 A    
C23   H3    1.082372 S    
N3    N5    1.327179 A    
C21   H1    1.082258 S    
C10   C17   1.422186 A    
C11   C15   1.396971 A    
C15   C20   1.451151 S    
C9    C18   1.415055 A    
O7    Zn1   1.996894 S    
O3    Zn1   1.951614 S    
C8    C22   1.499749 S    
O6    C4    1.279292 A    
C25   H7    1.109018 S    
O3    C2    1.266883 A    
C22   O10   1.220156 D    
N1    N2    1.201691 T    
C14   C15   1.398419 A    
C21   O9    1.220710 D    
C8    C18   1.414472 A    
C26   H8    1.110071 S    
C13   C16   1.410018 A    
O5    C3    1.290840 A    
C23   O11   1.220498 D    
Zn2   N1    1.987425 S    
C27   H11   1.108004 S    
O2    C2    1.267606 A    
C13   C27   1.520779 S    
Zn1   N2    1.987425 S    
C10   C24   1.474102 S    
O1    C1    1.267604 A    
C22   H2    1.082619 S    
N5    C19   1.353958 A    
C14   C28   1.510567 S    
N6    C20   1.352846 A    
C26   H9    1.109012 S    
O4    Zn2   1.951615 S    
C28   H14   1.106557 S    
O2    Zn2   1.953321 S    
O7    C4    1.279630 A    
C24   O12   1.220631 D    
C11   C25   1.509160 S    
C27   H12   1.110127 S    
C1    C5    1.365500 S    
O8    C3    1.291385 A    
C2    C6    1.365563 S    
C5    C6    1.165023 T    
C7    C17   1.421715 A    
N4    C19   1.352967 A    
C8    C12   1.409198 A    
O5    Zn1   1.999491 S    
O1    Zn1   1.953321 S    
C3    C17   1.489721 S    
C25   H5    1.110720 S    
C10   C14   1.403845 A    
C26   H10   1.110417 S    
C28   H15   1.109221 S    
C9    C13   1.405597 A    
C24   H4    1.083048 S    
C27   H13   1.110490 S    
O6    Zn2   1.999489 S    
C7    C21   1.475153 S    
C4    C18   1.449695 S    
C12   C26   1.520342 S    
N3    C20   1.354627 A    
C9    C23   1.493261 S    
C12   C16   1.413047 A    
C16   C19   1.448241 S    
O8    Zn2   1.996896 S    
O4    C1    1.266871 A    
C25   H6    1.106394 S    
N4    N6    1.324938 A    
