data_mof_unit_45578.cif
_audit_creation_date              2013-03-05T15:41:39-0500
_audit_creation_method            fapswitch 2.2
_symmetry_space_group_name_H-M    P1
_symmetry_Int_Tables_number       1
_space_group_crystal_system       triclinic
_cell_length_a                    7.762449
_cell_length_b                    8.578272
_cell_length_c                    15.727084
_cell_angle_alpha                 90.86006
_cell_angle_beta                  85.807597
_cell_angle_gamma                 93.643542
_cell_volume                      1042.27149613

loop_
_atom_site_label
_atom_site_type_symbol
_atom_site_description
_atom_site_fract_x
_atom_site_fract_y
_atom_site_fract_z
_atom_type_partial_charge
O1    O     O_R   0.389240 0.738570 0.505550 -0.569529
O2    O     O_R   0.678400 0.711630 0.491050 -0.611080
C1    C     C_R   0.545064 0.794293 0.493188 0.987262
O3    O     O_R   0.355360 0.513470 0.630110 -0.605548
O4    O     O_R   0.644510 0.486530 0.615610 -0.625649
C2    C     C_R   0.501958 0.500094 0.661596 0.895751
Zn1   Zn    Zn3+2 0.306930 0.517990 0.509680 1.044426
Zn2   Zn    Zn3+2 0.693070 0.482010 0.490320 1.006641
O5    O     O_R   0.321600 0.288370 0.508950 -0.589024
O6    O     O_R   0.610760 0.261430 0.494450 -0.629698
O7    O     O_R   0.355490 0.513470 0.384390 -0.599650
O8    O     O_R   0.644640 0.486530 0.369890 -0.609871
C3    C     C_R   0.453844 0.205289 0.498029 0.850648
C4    C     C_R   0.498013 0.500032 0.338409 0.908424
C5    C     C_3   0.327428 0.571152 0.955656 0.106489
C6    C     C_3   0.661042 0.599863 0.947443 -0.333968
C7    C     C_3   0.658301 0.598547 0.045441 -0.329307
H1    H     H_    0.780797 0.547110 0.920280 0.191949
H2    H     H_    0.669877 0.721709 0.924346 0.242383
H3    H     H_    0.668710 0.719639 0.070977 0.242902
H4    H     H_    0.775444 0.542930 0.064305 0.186822
C8    C     C_1   0.493910 0.501683 0.249768 -0.087405
C9    C     C_3   0.499766 0.504494 0.917243 0.132802
C10   C     C_3   0.324642 0.573398 0.054970 0.099239
C11   C     C_3   0.493322 0.504966 0.083115 0.124707
C12   C     C_3   0.499730 0.334987 0.048104 -0.429209
C13   C     C_3   0.505496 0.334866 0.949609 -0.435173
C14   C     C_1   0.492559 0.503234 0.174547 -0.011891
C15   C     C_1   0.505000 0.502346 0.825639 -0.018785
C16   C     C_1   0.505826 0.500931 0.750299 -0.118191
H5    H     H_    0.394193 0.260204 0.927854 0.215530
H6    H     H_    0.625779 0.282352 0.923022 0.217396
H7    H     H_    0.384290 0.262217 0.073839 0.218491
H8    H     H_    0.220770 0.485283 0.938789 0.082387
H9    H     H_    0.214924 0.490656 0.078080 0.084895
H10   H     H_    0.616035 0.280438 0.068726 0.219671
C17   C     C_2   0.567127 0.957915 0.489057 -0.459572
H11   H     H_    0.693489 0.008548 0.504143 0.199590
C18   C     C_2   0.429589 0.043374 0.481441 0.125029
N1    N     N_2   0.950340 0.457950 0.477370 -0.150114
H12   H     H_    0.013552 0.381739 0.436705 0.217459
N2    N     N_2   0.049660 0.542050 0.522630 -0.146434
H13   H     H_    0.986477 0.618310 0.563272 0.210649
N3    N     N_R   0.290136 0.726466 0.094028 0.251819
O9    O     O_R   0.145255 0.742809 0.139403 -0.356691
O10   O     O_R   0.402836 0.845187 0.086788 -0.344861
N4    N     N_R   0.269290 0.982440 0.448830 0.229882
O11   O     O_R   0.121483 0.022190 0.484246 -0.387535
O12   O     O_R   0.271960 0.902721 0.377698 -0.339079
N5    N     N_R   0.290219 0.721356 0.919003 0.246647
O13   O     O_R   0.143989 0.733778 0.884916 -0.393701
O14   O     O_R   0.402480 0.840665 0.916416 -0.357926

loop_
_geom_bond_atom_site_label_1
_geom_bond_atom_site_label_2
_geom_bond_distance
_ccdc_geom_bond_type
O4    Zn2   1.979194 S    
N5    O14   1.300466 A    
Zn1   N2    2.015918 S    
C15   C16   1.184310 T    
C9    C13   1.553136 S    
Zn2   N1    2.015918 S    
C5    H8    1.116757 S    
N4    O11   1.301343 A    
Zn2   O8    1.959153 S    
C7    C11   1.551843 S    
C4    C8    1.397055 S    
N1    N2    1.271083 D    
O2    C1    1.289452 A    
C11   C12   1.553354 S    
N4    O12   1.301913 A    
C8    C14   1.184102 T    
C10   C11   1.563724 S    
C11   C14   1.437832 S    
Zn1   O7    1.979194 S    
C12   C13   1.546382 S    
C17   H11   1.088047 S    
C6    H2    1.108057 S    
C9    C15   1.438148 S    
C5    C9    1.565321 S    
C5    C10   1.560334 S    
C2    C16   1.397452 S    
O8    C4    1.286423 A    
N5    O13   1.301250 A    
C6    C9    1.551526 S    
O3    Zn1   1.959154 S    
O4    C2    1.287592 A    
C10   N3    1.472958 S    
O7    C4    1.287211 A    
O2    Zn2   1.980058 S    
C3    C18   1.412710 S    
C10   H9    1.116649 S    
N2    H13   1.029286 S    
C13   H5    1.113572 S    
C17   C18   1.346252 D    
C7    H3    1.108326 S    
N3    O9    1.301310 A    
C1    C17   1.405062 S    
C6    H1    1.114007 S    
O3    C2    1.286084 A    
C5    N5    1.473049 S    
C12   H10   1.113684 S    
Zn1   O5    1.980057 S    
O5    C3    1.286371 A    
N1    H12   1.029328 S    
C12   H7    1.113529 S    
C13   H6    1.113677 S    
O1    Zn1   1.958779 S    
C18   N4    1.444713 S    
Zn2   O6    1.958778 S    
C7    H4    1.114151 S    
N3    O10   1.300444 A    
C6    C7    1.540010 S    
O1    C1    1.274474 A    
O6    C3    1.278663 A    
