data_mof_unit_29901.cif
_audit_creation_date              2013-03-05T16:44:39-0500
_audit_creation_method            fapswitch 2.2
_symmetry_space_group_name_H-M    P1
_symmetry_Int_Tables_number       1
_space_group_crystal_system       triclinic
_cell_length_a                    27.706689
_cell_length_b                    10.749983
_cell_length_c                    9.90798
_cell_angle_alpha                 89.383854
_cell_angle_beta                  90.399287
_cell_angle_gamma                 90.27861
_cell_volume                      2950.78041438

loop_
_atom_site_label
_atom_site_type_symbol
_atom_site_description
_atom_site_fract_x
_atom_site_fract_y
_atom_site_fract_z
_atom_type_partial_charge
O1    O     O_R   0.500010 0.316790 0.614690 -0.622491
O2    O     O_R   0.500000 0.316760 0.385350 -0.629504
C1    C     C_R   0.500012 0.260001 0.500183 0.902759
O3    O     O_R   0.428760 0.500040 0.614660 -0.642100
O4    O     O_R   0.428750 0.500000 0.385310 -0.615909
C2    C     C_R   0.406109 0.499388 0.499526 0.852604
Zn1   Zn    Zn3+2 0.500000 0.500020 0.653130 0.965641
Zn2   Zn    Zn3+2 0.500000 0.499980 0.346870 0.970033
O5    O     O_R   0.500000 0.683240 0.614650 -0.616759
O6    O     O_R   0.499990 0.683210 0.385310 -0.591495
O7    O     O_R   0.571250 0.500000 0.614690 -0.589812
O8    O     O_R   0.571240 0.499960 0.385340 -0.577917
C3    C     C_R   0.496817 0.739312 0.499198 0.875080
C4    C     C_R   0.593741 0.499334 0.500279 0.918648
C5    C     C_R   0.177806 0.382707 0.488368 0.505811
O9    O     O_2   0.202892 0.276028 0.477002 -0.544855
N1    N     N_R   0.201704 0.493618 0.497188 -0.360173
C6    C     C_R   0.177892 0.603738 0.508688 0.504723
C7    C     C_R   0.278112 0.476027 0.618420 -0.105013
C8    C     C_R   0.328204 0.477399 0.619178 -0.229633
C9    C     C_R   0.327916 0.515328 0.376819 -0.201916
C10   C     C_R   0.277767 0.513798 0.376414 -0.101860
C11   C     C_R   0.253013 0.494299 0.497195 0.329185
C12   C     C_R   0.101802 0.491883 0.503787 -0.051781
C13   C     C_R   0.127355 0.379689 0.491179 -0.023022
C14   C     C_R   0.102214 0.267261 0.483097 -0.134742
C15   C     C_R   0.127457 0.605004 0.512550 -0.021789
C16   C     C_R   0.353437 0.497583 0.498472 -0.029292
H1    H     H_    0.346608 0.530949 0.282402 0.158296
H2    H     H_    0.258088 0.527851 0.282679 0.135811
H3    H     H_    0.121134 0.179630 0.475825 0.191068
C17   C     C_R   0.646199 0.496466 0.500791 -0.136683
C18   C     C_R   0.974227 0.377190 0.488653 0.046132
C19   C     C_R   0.974687 0.602241 0.537095 0.046164
C20   C     C_R   0.949208 0.489465 0.513895 0.071845
C21   C     C_R   0.947056 0.269238 0.457931 -0.215707
C22   C     C_R   0.897022 0.270659 0.456849 -0.138657
C23   C     C_R   0.872186 0.379537 0.486181 -0.025549
C24   C     C_R   0.898092 0.489136 0.515309 -0.052565
C25   C     C_R   0.872771 0.598592 0.545173 -0.021011
C26   C     C_R   0.822309 0.596556 0.544700 0.506853
N2    N     N_R   0.798022 0.489643 0.513566 -0.343411
C27   C     C_R   0.821712 0.382055 0.484952 0.513328
C28   C     C_R   0.720150 0.422635 0.603510 -0.104763
C29   C     C_R   0.670116 0.424484 0.598908 -0.314611
C30   C     C_R   0.672546 0.567405 0.406212 0.436639
C31   C     C_R   0.723000 0.561949 0.409295 -0.226421
C32   C     C_R   0.746587 0.491187 0.508727 0.268665
O10   O     O_2   0.796434 0.278423 0.453962 -0.560531
C33   C     C_R   0.025342 0.376714 0.493230 0.046112
C34   C     C_R   0.050714 0.490959 0.507722 0.071076
C35   C     C_R   0.025610 0.604317 0.526012 0.046269
C36   C     C_R   0.052183 0.265492 0.484360 -0.215390
H4    H     H_    0.650011 0.369253 0.671470 0.168483
H5    H     H_    0.738462 0.367836 0.680395 0.156195
H6    H     H_    0.877861 0.185657 0.432315 0.189809
H7    H     H_    0.963284 0.182362 0.430548 0.141106
H8    H     H_    0.035699 0.174647 0.481231 0.138771
O11   O     O_2   0.203060 0.711264 0.517106 -0.549547
C37   C     C_R   0.102415 0.716532 0.524483 -0.135030
H9    H     H_    0.347086 0.462574 0.713990 0.152947
H10   H     H_    0.258716 0.460949 0.711766 0.135663
H11   H     H_    0.121356 0.804835 0.528985 0.191019
C38   C     C_R   0.948162 0.709325 0.571445 -0.217103
C39   C     C_R   0.898165 0.707317 0.575122 -0.139482
O12   O     O_2   0.797592 0.700356 0.575240 -0.574341
C40   C     C_R   0.052455 0.716500 0.530853 -0.215763
H12   H     H_    0.964953 0.796070 0.598936 0.141570
H13   H     H_    0.879475 0.791983 0.601068 0.190111
H14   H     H_    0.744016 0.612712 0.335048 0.145279
H15   H     H_    0.035933 0.806758 0.536288 0.138971
C41   C     C_R   0.509039 0.060154 0.616578 0.028061
C42   C     C_R   0.499970 0.127332 0.498314 -0.123949
C43   C     C_R   0.485383 0.066026 0.380348 -0.294712
H16   H     H_    0.473863 0.117702 0.291787 0.164971
C44   C     C_R   0.480519 0.937589 0.380599 0.463638
C45   C     C_R   0.492386 0.871329 0.498491 -0.180105
C46   C     C_R   0.502859 0.933090 0.617021 -0.009664
C47   C     C_3   0.472025 0.935516 0.740916 0.343095
C48   C     C_3   0.482455 0.072677 0.745866 -0.460658
H17   H     H_    0.487416 0.884436 0.828602 0.081223
H18   H     H_    0.449448 0.130243 0.733357 0.232046
H19   H     H_    0.506998 0.098751 0.830345 0.142480
C49   C     C_R   0.460079 0.463250 0.070887 0.186860
N3    N     N_R   0.499670 0.499140 0.142800 -0.122329
C50   C     C_R   0.536385 0.554382 0.072808 -0.267641
H20   H     H_    0.564182 0.601558 0.129715 0.195592
C51   C     C_R   0.536894 0.554615 0.927723 0.474465
N4    N     N_R   0.499670 0.499180 0.857150 -0.146494
C52   C     C_R   0.460018 0.463313 0.929117 0.108662
C53   C     C_3   0.435843 0.339595 0.926887 -0.486193
C54   C     C_3   0.435147 0.341110 0.079928 -0.462898
H21   H     H_    0.460465 0.268554 0.888778 0.207457
H22   H     H_    0.398255 0.349240 0.122193 0.204361
H23   H     H_    0.458059 0.267993 0.126943 0.204254
O13   O     O_3   0.648343 0.637627 0.309233 -0.623685
C55   C     C_3   0.661251 0.764527 0.320153 0.106664
H24   H     H_    0.694953 0.783263 0.263032 0.161353
H25   H     H_    0.666394 0.793612 0.427212 0.146825
C56   C     C_3   0.621117 0.843707 0.259453 -0.856800
H26   H     H_    0.587551 0.829786 0.318356 0.244151
H27   H     H_    0.631467 0.943549 0.262824 0.220701
H28   H     H_    0.614403 0.817330 0.152829 0.251919
O14   O     O_3   0.452659 0.881252 0.282787 -0.589923
C57   C     C_3   0.478863 0.871177 0.162543 0.123279
H29   H     H_    0.514944 0.828762 0.180546 0.147582
H30   H     H_    0.483482 0.963699 0.112677 0.121121
C58   C     C_3   0.450271 0.786586 0.069911 -0.783194
H31   H     H_    0.420430 0.839557 0.021793 0.247077
H32   H     H_    0.474223 0.748393 0.992175 0.181865
H33   H     H_    0.434639 0.707485 0.128090 0.271595
O15   O     O_3   0.422022 0.918129 0.714169 -0.590421
C59   C     C_3   0.407933 0.791983 0.723428 0.150434
H34   H     H_    0.431055 0.735023 0.791886 0.134259
H35   H     H_    0.408480 0.750984 0.621273 0.165620
C60   C     C_3   0.356249 0.784567 0.773906 -0.790862
H36   H     H_    0.331371 0.827397 0.698494 0.280347
H37   H     H_    0.345655 0.685962 0.790195 0.205917
H38   H     H_    0.352862 0.834449 0.870823 0.253377
O16   O     O_3   0.570211 0.625933 0.857025 -0.588031
C61   C     C_3   0.617957 0.590596 0.890120 0.086575
H39   H     H_    0.624231 0.492279 0.861532 0.147359
H40   H     H_    0.626467 0.601703 0.998933 0.150950
C62   C     C_3   0.652911 0.674421 0.813246 -0.759202
H41   H     H_    0.650426 0.771093 0.850961 0.240058
H42   H     H_    0.690432 0.640773 0.828002 0.220613
H43   H     H_    0.644105 0.675055 0.703901 0.258194
H44   H     H_    0.399369 0.342760 0.879743 0.205731

loop_
_geom_bond_atom_site_label_1
_geom_bond_atom_site_label_2
_geom_bond_distance
_ccdc_geom_bond_type
C44   O14   1.378208 S    
C26   N2    1.366059 A    
C42   C43   1.403988 A    
C20   C24   1.416401 A    
C7    C8    1.387840 A    
C12   C15   1.408753 A    
C55   H24   1.111709 S    
C45   C46   1.383593 A    
C60   H36   1.110796 S    
Zn1   O7    2.013112 S    
C57   H30   1.113023 S    
N1    C11   1.421563 S    
C43   C44   1.386575 A    
C47   O15   1.420556 S    
C37   H11   1.083607 S    
C38   H12   1.076878 S    
C21   C22   1.386395 A    
Zn2   N3    2.021996 S    
C15   C37   1.394665 A    
O3    Zn1   2.007681 S    
C23   C24   1.408125 A    
O7    C4    1.297473 A    
C50   C51   1.437641 A    
C5    C13   1.398530 A    
C7    H10   1.083206 S    
C5    O9    1.350014 S    
Zn1   N4    2.021433 S    
C18   C21   1.414937 A    
C58   H31   1.108329 S    
C5    N1    1.364331 A    
C19   C20   1.419987 A    
C17   C29   1.400996 A    
C8    H9    1.082731 S    
O5    C3    1.289923 A    
O15   C59   1.411509 S    
C61   C62   1.522186 S    
C41   C46   1.375768 A    
C59   H34   1.110955 S    
C22   H6    1.083573 S    
C49   N3    1.360399 A    
C2    C16   1.459362 S    
C37   C40   1.386115 A    
C58   H32   1.103969 S    
C51   O16   1.386043 S    
C59   C60   1.521562 S    
C12   C34   1.416271 A    
C14   H3    1.083602 S    
O1    Zn1   2.010223 S    
C9    C10   1.389483 A    
C49   C52   1.404637 A    
C48   H19   1.112134 S    
C19   C38   1.414637 A    
O14   C57   1.404932 S    
C55   H25   1.117059 S    
C33   C34   1.420237 A    
C57   C58   1.515798 S    
C3    C45   1.425021 S    
C33   C36   1.414951 A    
C53   H44   1.110842 S    
C6    C15   1.398302 A    
C34   C35   1.419985 A    
C12   C13   1.408629 A    
C48   H18   1.112153 S    
C21   H7    1.076670 S    
C43   H16   1.080622 S    
C53   C54   1.516847 S    
C47   H17   1.106814 S    
C46   C47   1.500982 S    
C27   O10   1.350063 S    
C8    C16   1.403844 A    
C18   C33   1.416672 A    
N3    C50   1.365083 A    
C9    H1    1.083524 S    
C56   H28   1.110965 S    
O1    C1    1.294121 A    
C7    C11   1.396220 A    
C31   H14   1.082703 S    
C22   C23   1.394931 A    
C53   H21   1.098205 S    
C31   C32   1.398570 A    
Zn2   O8    2.007681 S    
O13   C55   1.413669 S    
C54   H22   1.111508 S    
N1    C6    1.364238 A    
N2    C32   1.425748 S    
C44   C45   1.399610 A    
C61   H39   1.111943 S    
C35   C40   1.414884 A    
C62   H43   1.108821 S    
O3    C2    1.298215 A    
C25   C26   1.398170 A    
C9    C16   1.404886 A    
O8    C4    1.294451 A    
C29   H4    1.082989 S    
C25   C39   1.394886 A    
N2    C27   1.365973 A    
C14   C36   1.386387 A    
C24   C25   1.408077 A    
C55   C56   1.520381 S    
O16   C61   1.413522 S    
C62   H42   1.110576 S    
C56   H27   1.110384 S    
Zn1   O5    2.002143 S    
C30   C31   1.399538 A    
C10   H2    1.083213 S    
C50   H20   1.079150 S    
C17   C30   1.407590 A    
O2    Zn2   2.002144 S    
C28   C29   1.386938 A    
C4    C17   1.453878 S    
C41   C42   1.391809 A    
O6    C3    1.288899 A    
O4    Zn2   2.013114 S    
C36   H8    1.076743 S    
C60   H38   1.109613 S    
C26   O12   1.350274 S    
C57   H29   1.113224 S    
C19   C35   1.415998 A    
C58   H33   1.110087 S    
C38   C39   1.386033 A    
O2    C1    1.285244 A    
C13   C14   1.394786 A    
C23   C27   1.398827 A    
C41   C48   1.489760 S    
C28   H5    1.082876 S    
C52   C53   1.486515 S    
O4    C2    1.297642 A    
C39   H13   1.083570 S    
C56   H26   1.110047 S    
C18   C20   1.420159 A    
C60   H37   1.108951 S    
C40   H15   1.076872 S    
C54   H23   1.109344 S    
C1    C42   1.426511 S    
C61   H40   1.109565 S    
C47   C48   1.502403 S    
C6    O11   1.350098 S    
C30   O13   1.386773 S    
C51   N4    1.378661 A    
Zn2   O6    2.010222 S    
C10   C11   1.396808 A    
C49   C54   1.482803 S    
N4    C52   1.365629 A    
C28   C32   1.396775 A    
C62   H41   1.110747 S    
C59   H35   1.108515 S    
