data_mof_unit_41017.cif
_audit_creation_date              2013-03-05T15:48:51-0500
_audit_creation_method            fapswitch 2.2
_symmetry_space_group_name_H-M    P1
_symmetry_Int_Tables_number       1
_space_group_crystal_system       triclinic
_cell_length_a                    17.546197
_cell_length_b                    24.307021
_cell_length_c                    15.02589
_cell_angle_alpha                 89.998359
_cell_angle_beta                  126.020296
_cell_angle_gamma                 90.000928
_cell_volume                      5183.23349214

loop_
_atom_site_label
_atom_site_type_symbol
_atom_site_description
_atom_site_fract_x
_atom_site_fract_y
_atom_site_fract_z
_atom_type_partial_charge
C1    C     C_R   0.902135 0.875661 0.091504 -0.134069
C2    C     C_R   0.901697 0.123609 0.091580 -0.141881
C3    C     C_R   0.401695 0.376398 0.091585 -0.141820
C4    C     C_R   0.402138 0.624341 0.091504 -0.133996
H1    H     H_    0.931397 0.868318 0.176660 0.150534
H2    H     H_    0.930936 0.130640 0.176895 0.110831
H3    H     H_    0.430935 0.369370 0.176902 0.110809
H4    H     H_    0.431401 0.631684 0.176659 0.150512
N1    N     N_R   0.950530 0.896220 0.057200 -0.058143
N2    N     N_R   0.950530 0.103780 0.057200 -0.050096
N3    N     N_R   0.450530 0.396220 0.057200 -0.050101
N4    N     N_R   0.450530 0.603780 0.057200 -0.058151
C5    C     C_R   0.809100 0.122648 0.907072 0.007095
C6    C     C_R   0.809420 0.876740 0.906941 0.006479
C7    C     C_R   0.309422 0.623264 0.906940 0.006473
C8    C     C_R   0.309095 0.377362 0.907079 0.007039
H5    H     H_    0.754096 0.130179 0.821627 0.193087
H6    H     H_    0.754349 0.869113 0.821488 0.192771
H7    H     H_    0.254350 0.630892 0.821487 0.192769
H8    H     H_    0.254084 0.369836 0.821635 0.193087
N5    N     N_R   0.893330 0.103780 0.942800 -0.062698
N6    N     N_R   0.893330 0.896220 0.942800 -0.064117
N7    N     N_R   0.393330 0.603780 0.942800 -0.064126
N8    N     N_R   0.393330 0.396220 0.942800 -0.062692
C9    C     C_R   0.745923 0.954286 0.694195 -0.111368
C10   C     C_R   0.745950 0.045711 0.694200 -0.153559
C11   C     C_R   0.245949 0.454291 0.694201 -0.153539
C12   C     C_R   0.245922 0.545716 0.694196 -0.111415
H9    H     H_    0.733513 0.911778 0.668429 0.137809
H10   H     H_    0.733639 0.088224 0.668505 0.129966
H11   H     H_    0.233637 0.411778 0.668507 0.129977
H12   H     H_    0.233512 0.588224 0.668430 0.137781
N9    N     N_R   0.818150 0.971400 0.792440 -0.063060
N10   N     N_R   0.818150 0.028600 0.792440 -0.060593
N11   N     N_R   0.318150 0.471400 0.792440 -0.060606
N12   N     N_R   0.318150 0.528600 0.792440 -0.063059
C13   C     C_R   0.053180 0.044980 0.306674 -0.152828
C14   C     C_R   0.052011 0.953652 0.304700 0.007587
C15   C     C_R   0.552024 0.546349 0.304700 0.007506
C16   C     C_R   0.553195 0.455023 0.306691 -0.152817
H13   H     H_    0.067974 0.087349 0.333408 0.151985
H14   H     H_    0.062482 0.910838 0.326067 0.160820
H15   H     H_    0.562483 0.589164 0.326033 0.160718
H16   H     H_    0.567973 0.412654 0.333433 0.151869
N13   N     N_R   0.025710 0.028600 0.207560 -0.065729
N14   N     N_R   0.025710 0.971400 0.207560 -0.080808
N15   N     N_R   0.525710 0.528600 0.207560 -0.080787
N16   N     N_R   0.525710 0.471400 0.207560 -0.065712
C17   C     C_R   0.812920 0.862103 0.998577 0.102806
C18   C     C_R   0.812170 0.136866 0.998686 0.095466
C19   C     C_R   0.312165 0.363146 0.998696 0.095461
C20   C     C_R   0.312924 0.637902 0.998577 0.102829
C21   C     C_R   0.700099 0.000001 0.630147 0.230334
C22   C     C_R   0.200097 0.500002 0.630150 0.230515
C23   C     C_R   0.070844 0.998678 0.370095 0.300533
C24   C     C_R   0.570888 0.501326 0.370120 0.300754
C25   C     C_R   0.267820 0.953828 0.247263 0.019428
C26   C     C_R   0.267830 0.046135 0.247224 0.028858
C27   C     C_R   0.767831 0.453867 0.247224 0.028893
C28   C     C_R   0.767819 0.546174 0.247264 0.019381
H17   H     H_    0.288834 0.911210 0.262380 0.127021
H18   H     H_    0.288822 0.088754 0.262140 0.122221
H19   H     H_    0.788826 0.411248 0.262143 0.122211
H20   H     H_    0.788830 0.588792 0.262380 0.127024
N17   N     N_R   0.181850 0.971400 0.207560 -0.067842
N18   N     N_R   0.181850 0.028600 0.207560 -0.063908
N19   N     N_R   0.681850 0.471400 0.207560 -0.063922
N20   N     N_R   0.681850 0.528600 0.207560 -0.067855
C29   C     C_R   0.019578 0.046145 0.751925 -0.122642
C30   C     C_R   0.023852 0.953996 0.757455 0.008641
C31   C     C_R   0.523860 0.546007 0.757466 0.008373
C32   C     C_R   0.519582 0.453860 0.751925 -0.122006
H21   H     H_    0.024316 0.088811 0.736427 0.129366
H22   H     H_    0.031635 0.911273 0.746099 0.184253
H23   H     H_    0.531640 0.588732 0.746124 0.184329
H24   H     H_    0.524298 0.411196 0.736398 0.129087
N21   N     N_R   0.974290 0.028600 0.792440 -0.062063
N22   N     N_R   0.974290 0.971400 0.792440 -0.070950
N23   N     N_R   0.474290 0.528600 0.792440 -0.070970
N24   N     N_R   0.474290 0.471400 0.792440 -0.062105
C33   C     C_R   0.055715 0.847057 0.909269 -0.100376
C34   C     C_R   0.056211 0.152805 0.909173 -0.073541
C35   C     C_R   0.556223 0.347202 0.909170 -0.073362
C36   C     C_R   0.555710 0.652946 0.909267 -0.100400
H25   H     H_    0.013592 0.833887 0.824376 0.137695
H26   H     H_    0.014296 0.165830 0.824214 0.112848
H27   H     H_    0.514307 0.334179 0.824211 0.112758
H28   H     H_    0.513586 0.666117 0.824374 0.137701
N25   N     N_R   0.049470 0.896220 0.942800 -0.057817
N26   N     N_R   0.049470 0.103780 0.942800 -0.049783
N27   N     N_R   0.549470 0.396220 0.942800 -0.049770
N28   N     N_R   0.549470 0.603780 0.942800 -0.057815
C37   C     C_R   0.146872 0.152745 0.092081 -0.058461
C38   C     C_R   0.146745 0.847282 0.092146 -0.057584
C39   C     C_R   0.646739 0.652718 0.092144 -0.057579
C40   C     C_R   0.646888 0.347259 0.092081 -0.058498
H29   H     H_    0.188793 0.165382 0.177218 0.105126
H30   H     H_    0.188489 0.834712 0.177311 0.111384
H31   H     H_    0.688481 0.665288 0.177308 0.111390
H32   H     H_    0.688816 0.334620 0.177219 0.105128
N29   N     N_R   0.106670 0.103780 0.057200 -0.057773
N30   N     N_R   0.106670 0.896220 0.057200 -0.059129
N31   N     N_R   0.606670 0.603780 0.057200 -0.059122
N32   N     N_R   0.606670 0.396220 0.057200 -0.057769
Ni1   Ni    Ni4+2 0.065600 0.934400 0.131190 0.263270
Ni2   Ni    Ni4+2 0.065600 0.065600 0.131190 0.259680
Ni3   Ni    Ni4+2 0.565600 0.434400 0.131190 0.259683
Ni4   Ni    Ni4+2 0.565600 0.565600 0.131190 0.263277
Ni5   Ni    Ni4+2 0.934400 0.065600 0.868810 0.254702
Ni6   Ni    Ni4+2 0.934400 0.934400 0.868810 0.275001
Ni7   Ni    Ni4+2 0.434400 0.565600 0.868810 0.274990
Ni8   Ni    Ni4+2 0.434400 0.434400 0.868810 0.254768
C41   C     C_R   0.324214 0.999967 0.274349 0.195022
C42   C     C_R   0.824214 0.500036 0.274350 0.195061
C43   C     C_R   0.051206 0.999971 0.727615 0.290120
C44   C     C_R   0.551244 0.500036 0.727652 0.290518
C45   C     C_R   0.115846 0.815415 0.001223 0.186402
C46   C     C_R   0.116165 0.184583 0.001144 0.174764
C47   C     C_R   0.616189 0.315426 0.001140 0.174782
C48   C     C_R   0.615837 0.684588 0.001219 0.186397
C49   C     C_3   0.104394 0.055964 0.528375 0.518405
C50   C     C_3   0.972998 0.987694 0.432004 0.503649
C51   C     C_3   0.473024 0.512203 0.432022 0.503670
C52   C     C_3   0.604612 0.444072 0.528554 0.518494
H33   H     H_    0.049839 0.086192 0.469645 0.005249
H34   H     H_    0.928061 0.021166 0.373115 0.032207
H35   H     H_    0.428183 0.478687 0.373202 0.032230
H36   H     H_    0.550085 0.413807 0.469918 0.005174
C53   C     C_3   0.103699 0.055769 0.630771 -0.032685
C54   C     C_3   0.964979 0.991133 0.527729 0.028684
C55   C     C_3   0.465025 0.508747 0.527760 0.028556
C56   C     C_3   0.604017 0.444293 0.631037 -0.032817
H37   H     H_    0.051792 0.088176 0.613370 0.076770
H38   H     H_    0.925408 0.029838 0.515040 0.069051
H39   H     H_    0.425604 0.469990 0.515174 0.068990
H40   H     H_    0.552332 0.411785 0.613857 0.076807
C57   C     C_3   0.149916 0.952968 0.562708 0.240710
C58   C     C_3   0.649809 0.547132 0.562627 0.240605
C59   C     C_3   0.077096 0.997502 0.472911 -0.501125
C60   C     C_3   0.577147 0.502506 0.472947 -0.501054
C61   C     C_3   0.065584 0.998750 0.639611 -0.524388
C62   C     C_3   0.565649 0.501259 0.639664 -0.524320
C63   C     C_3   0.135922 0.952300 0.658004 1.229287
C64   C     C_3   0.635852 0.547777 0.657945 1.229083
C65   C     C_3   0.647294 0.175967 0.905269 0.528481
C66   C     C_3   0.647750 0.824470 0.907713 0.535740
C67   C     C_3   0.147755 0.675533 0.907720 0.535766
C68   C     C_3   0.147285 0.324050 0.905286 0.528338
H41   H     H_    0.620554 0.140167 0.925615 0.135670
H42   H     H_    0.623186 0.860188 0.931011 0.135792
H43   H     H_    0.123195 0.639815 0.931026 0.135805
H44   H     H_    0.120555 0.359860 0.925620 0.135705
C69   C     C_3   0.095714 0.727843 0.902616 0.522076
C70   C     C_3   0.096025 0.271500 0.900649 0.516834
C71   C     C_3   0.596050 0.228527 0.900612 0.516778
C72   C     C_3   0.595708 0.772160 0.902609 0.522067
H45   H     H_    0.067624 0.749230 0.823566 0.119641
H46   H     H_    0.070213 0.249382 0.822944 0.101084
H47   H     H_    0.570286 0.250652 0.822925 0.101016
H48   H     H_    0.567622 0.750773 0.823562 0.119643
H49   H     H_    0.203861 0.809808 0.907787 0.155360
H50   H     H_    0.208113 0.190541 0.913002 0.162864
H51   H     H_    0.708199 0.309514 0.913071 0.162638
H52   H     H_    0.703862 0.690197 0.907795 0.155363
C73   C     C_3   0.294312 0.738376 0.983549 0.084785
C74   C     C_3   0.296452 0.262594 0.988103 0.087831
C75   C     C_3   0.796463 0.237419 0.988080 0.087788
C76   C     C_3   0.794311 0.761629 0.983559 0.084787
C77   C     C_3   0.766140 0.183791 0.108496 -0.549205
C78   C     C_3   0.769659 0.814288 0.109906 -0.484520
C79   C     C_3   0.269672 0.685716 0.109911 -0.484509
C80   C     C_3   0.266133 0.316219 0.108514 -0.549187
C81   C     C_3   0.755332 0.182129 0.997578 -0.127713
C82   C     C_3   0.755962 0.816991 0.997377 -0.171406
C83   C     C_3   0.255968 0.683014 0.997378 -0.171436
C84   C     C_3   0.255323 0.317885 0.997594 -0.127713
H53   H     H_    0.840398 0.191759 0.178996 0.225640
H54   H     H_    0.844129 0.805122 0.178397 0.244454
H55   H     H_    0.344142 0.694884 0.178396 0.244446
H56   H     H_    0.340394 0.308262 0.179018 0.225532
H57   H     H_    0.745136 0.143720 0.123946 0.208684
H58   H     H_    0.751058 0.854334 0.128497 0.230110
H59   H     H_    0.251075 0.645669 0.128508 0.230146
H60   H     H_    0.245110 0.356286 0.123950 0.208736
C85   C     C_3   0.164695 0.766387 0.001543 -0.197556
C86   C     C_3   0.164623 0.234015 0.001746 -0.177204
C87   C     C_3   0.664643 0.265998 0.001735 -0.177203
C88   C     C_3   0.664687 0.733616 0.001540 -0.197544
C89   C     C_3   0.241437 0.787478 0.987842 0.032842
C90   C     C_3   0.243773 0.213339 0.992103 0.034917
C91   C     C_3   0.743821 0.286679 0.992138 0.035031
C92   C     C_3   0.741434 0.712527 0.987849 0.032847
C93   C     C_3   0.209158 0.731749 0.108317 -0.300947
C94   C     C_3   0.206024 0.269675 0.106735 -0.302730
C95   C     C_3   0.706009 0.230322 0.106702 -0.302760
C96   C     C_3   0.709144 0.768254 0.108311 -0.300946
H61   H     H_    0.647793 0.212537 0.107134 0.229483
H62   H     H_    0.652602 0.786378 0.111589 0.234644
H63   H     H_    0.152619 0.713624 0.111602 0.234649
H64   H     H_    0.147827 0.287449 0.107218 0.229497
H65   H     H_    0.253992 0.756538 0.184179 0.221720
H66   H     H_    0.250320 0.245613 0.183714 0.210296
H67   H     H_    0.750279 0.254373 0.183697 0.210310
H68   H     H_    0.753976 0.743466 0.184176 0.221722
H69   H     H_    0.370073 0.741247 0.054756 0.165705
H70   H     H_    0.371618 0.260600 0.061141 0.160604
H71   H     H_    0.871641 0.239402 0.061090 0.160635
H72   H     H_    0.870070 0.758759 0.054770 0.165705
C97   C     C_3   0.476237 0.948234 0.358882 0.742132
C98   C     C_3   0.475750 0.052338 0.360422 0.752271
C99   C     C_3   0.975752 0.447670 0.360421 0.752239
C100  C     C_3   0.976233 0.551774 0.358888 0.742164
H73   H     H_    0.444389 0.909839 0.363414 0.074477
H74   H     H_    0.444350 0.090174 0.367767 0.064036
H75   H     H_    0.944361 0.409832 0.367774 0.064027
H76   H     H_    0.944376 0.590167 0.363409 0.074484
C101  C     C_3   0.580866 0.948383 0.457747 -0.495484
C102  C     C_3   0.580744 0.051705 0.457983 -0.525983
C103  C     C_3   0.080750 0.448308 0.457971 -0.525832
C104  C     C_3   0.080857 0.551630 0.457765 -0.495514
H77   H     H_    0.626670 0.947878 0.429102 0.267793
H78   H     H_    0.625620 0.051917 0.428062 0.248325
H79   H     H_    0.125618 0.448114 0.428039 0.248422
H80   H     H_    0.126672 0.552153 0.429134 0.267819
H81   H     H_    0.594921 0.909981 0.505215 0.171670
H82   H     H_    0.595861 0.090104 0.505781 0.166151
H83   H     H_    0.095884 0.409902 0.505761 0.166123
H84   H     H_    0.094894 0.590025 0.505242 0.171660
H85   H     H_    0.556235 0.963386 0.624425 0.235005
H86   H     H_    0.555027 0.036965 0.622756 0.233279
H87   H     H_    0.055021 0.463009 0.622734 0.233267
H88   H     H_    0.056235 0.536589 0.624451 0.235021
C105  C     C_3   0.436144 0.999185 0.474091 1.238236
C106  C     C_3   0.936142 0.500811 0.474092 1.238231
C107  C     C_3   0.426010 0.999941 0.363571 -0.493339
C108  C     C_3   0.926009 0.500063 0.363573 -0.493371
C109  C     C_3   0.602842 0.999995 0.530257 -0.020109
C110  C     C_3   0.102841 0.500009 0.530260 -0.020166
C111  C     C_3   0.539947 0.999907 0.571109 -0.563451
C112  C     C_3   0.039945 0.500078 0.571110 -0.563480
N33   N     N_R   0.194409 0.072337 0.732716 0.335553
O1    O     O_R   0.274494 0.054750 0.756582 -0.153497
O2    O     O_R   0.195625 0.111354 0.792732 -0.341197
N34   N     N_R   0.907152 0.946172 0.524991 0.299148
O3    O     O_R   0.927009 0.894710 0.524172 -0.209850
O4    O     O_R   0.830267 0.958055 0.515353 -0.403987
N35   N     N_R   0.407042 0.553636 0.524918 0.299186
O5    O     O_R   0.426768 0.605122 0.524067 -0.210012
O6    O     O_R   0.330183 0.541662 0.515271 -0.403987
N36   N     N_R   0.694851 0.427944 0.733052 0.335719
O7    O     O_R   0.774850 0.445364 0.756425 -0.153485
O8    O     O_R   0.696235 0.389435 0.794021 -0.340954
N37   N     N_R   0.248033 0.968776 0.606701 0.302578
O9    O     O_R   0.265534 0.988016 0.539546 -0.207637
O10   O     O_R   0.318247 0.945568 0.696294 -0.178495
N38   N     N_R   0.134610 0.896659 0.516482 0.253164
O11   O     O_R   0.057734 0.869175 0.479368 -0.227059
O12   O     O_R   0.201120 0.871874 0.517787 -0.282116
N39   N     N_R   0.634282 0.603427 0.516265 0.253183
O13   O     O_R   0.557317 0.630817 0.479129 -0.227031
O14   O     O_R   0.700675 0.628297 0.517456 -0.282371
N40   N     N_R   0.747996 0.531468 0.606692 0.302471
O15   O     O_R   0.818057 0.554963 0.695941 -0.178506
O16   O     O_R   0.765577 0.512053 0.539732 -0.207487
F1    F     F_    0.219561 0.959264 0.761386 -0.588001
F2    F     F_    0.104567 0.901146 0.663088 -0.632327
F3    F     F_    0.604399 0.598904 0.662984 -0.632374
F4    F     F_    0.719552 0.540863 0.761300 -0.588078
F5    F     F_    0.624745 0.165752 0.801853 -0.669393
F6    F     F_    0.623478 0.835799 0.803859 -0.657566
F7    F     F_    0.123479 0.664205 0.803866 -0.657550
F8    F     F_    0.124737 0.334252 0.801866 -0.669411
F9    F     F_    0.518256 0.214399 0.897973 -0.607635
F10   F     F_    0.519799 0.786632 0.903528 -0.603078
F11   F     F_    0.019809 0.713370 0.903544 -0.603047
F12   F     F_    0.018268 0.285644 0.898072 -0.607683
N41   N     N_R   0.290456 0.740637 0.883065 0.253489
O17   O     O_R   0.210745 0.745439 0.786187 -0.285056
O18   O     O_R   0.368459 0.741966 0.891256 -0.283467
N42   N     N_R   0.295892 0.259515 0.889890 0.254433
O19   O     O_R   0.217743 0.253772 0.791849 -0.317364
O20   O     O_R   0.375392 0.258671 0.901469 -0.292223
N43   N     N_R   0.795852 0.240505 0.889832 0.254348
O21   O     O_R   0.717683 0.246277 0.791817 -0.317996
O22   O     O_R   0.875328 0.241328 0.901356 -0.292287
N44   N     N_R   0.790464 0.759369 0.883080 0.253493
O23   O     O_R   0.710756 0.754568 0.786199 -0.285051
O24   O     O_R   0.868471 0.758038 0.891280 -0.283447
N45   N     N_R   0.307495 0.826929 0.073786 0.262485
O25   O     O_R   0.308990 0.877636 0.047065 -0.255441
O26   O     O_R   0.367650 0.811628 0.175618 -0.382750
N46   N     N_R   0.309720 0.174686 0.080085 0.262757
O27   O     O_R   0.313351 0.123874 0.055540 -0.250334
O28   O     O_R   0.367732 0.190823 0.181728 -0.403225
N47   N     N_R   0.809796 0.325289 0.080198 0.262747
O29   O     O_R   0.813463 0.376117 0.055756 -0.250013
O30   O     O_R   0.867797 0.309101 0.181809 -0.403284
N48   N     N_R   0.807490 0.673076 0.073798 0.262484
O31   O     O_R   0.808989 0.622369 0.047081 -0.255428
O32   O     O_R   0.867640 0.688375 0.175629 -0.382767
F13   F     F_    0.467837 0.946797 0.261215 -0.545876
F14   F     F_    0.465903 0.055569 0.262012 -0.551951
F15   F     F_    0.965896 0.444442 0.262005 -0.551902
F16   F     F_    0.967848 0.553213 0.261230 -0.545853
F17   F     F_    0.394814 0.952273 0.481166 -0.650070
F18   F     F_    0.392253 0.044635 0.481586 -0.649778
F19   F     F_    0.892240 0.455362 0.481577 -0.649775
F20   F     F_    0.894821 0.547724 0.481175 -0.650090
F21   F     F_    0.188328 0.075549 0.551202 -0.561662
F22   F     F_    0.934026 0.939813 0.371482 -0.610349
F23   F     F_    0.433899 0.560042 0.371396 -0.610282
F24   F     F_    0.688517 0.424513 0.551272 -0.561613

loop_
_geom_bond_atom_site_label_1
_geom_bond_atom_site_label_2
_geom_bond_distance
_ccdc_geom_bond_type
C43   C61   1.485087 S    
C68   F8    1.381934 S    
C80   C94   1.536167 S    
C46   C86   1.468893 S    
N4    N7    1.390330 A    
C78   H54   1.111082 S    
C79   H59   1.113257 S    
C9    C21   1.377421 A    
C50   C59   1.565356 S    
C70   H46   1.111537 S    
C24   C60   1.483416 S    
C38   C45   1.374534 A    
C39   H31   1.079349 S    
C95   H67   1.107553 S    
N36   O8    1.299934 A    
N14   Ni1   1.886870 S    
C33   C45   1.378109 A    
C23   C59   1.483335 S    
N34   O3    1.300526 A    
C35   C47   1.379556 A    
C54   C61   1.576779 S    
C66   H42   1.113363 S    
C14   C23   1.375040 A    
C30   H22   1.074052 S    
C26   C41   1.389239 A    
C76   H72   1.115300 S    
C4    N4    1.323335 A    
C72   F10   1.385478 S    
C104  C110  1.554202 S    
C54   H38   1.117069 S    
C106  C108  1.562835 S    
C48   C88   1.466300 S    
C106  F20   1.388552 S    
N2    N5    1.390330 A    
C101  H77   1.112731 S    
C110  C112  1.546404 S    
C11   H11   1.079573 S    
C66   F6    1.382271 S    
C22   C110  1.467104 S    
C73   N41   1.472123 S    
N4    Ni4   1.879819 S    
C12   C22   1.377420 A    
C100  C104  1.539327 S    
C11   N11   1.325670 A    
C93   H63   1.112770 S    
C97   H73   1.110238 S    
C63   F1    1.383539 S    
C86   C90   1.561735 S    
C97   C107  1.560242 S    
C15   C24   1.375052 A    
C8    H8    1.075152 S    
N24   Ni8   1.886827 S    
N12   Ni7   1.879701 S    
C5    N5    1.322730 A    
C98   C107  1.560313 S    
C20   C83   1.476584 S    
C58   C60   1.611621 S    
C53   H37   1.112777 S    
C40   N32   1.324392 A    
C62   C64   1.572660 S    
C64   F3    1.379836 S    
N48   O31   1.301307 A    
C34   C46   1.379588 A    
C13   N13   1.328368 A    
H50   C90   1.112030 S    
C35   N27   1.326463 A    
C15   N15   1.318024 A    
C78   C82   1.563034 S    
C16   N16   1.328474 A    
C36   H28   1.080291 S    
C105  F17   1.388549 S    
N39   O14   1.303185 A    
C42   C108  1.473510 S    
N17   Ni1   1.879700 S    
N28   Ni7   1.879818 S    
C25   H17   1.078025 S    
C30   C43   1.390430 A    
C75   C91   1.535194 S    
C27   H19   1.077959 S    
C76   C92   1.536153 S    
C28   H20   1.078023 S    
C97   C101  1.539332 S    
N46   O28   1.301577 A    
C105  C111  1.523135 S    
C71   C87   1.560782 S    
N44   O24   1.300490 A    
C66   C82   1.563535 S    
C19   C84   1.478490 S    
C67   C69   1.540795 S    
C3    N3    1.324391 A    
C53   C61   1.578052 S    
C38   N30   1.323206 A    
N33   O2    1.300223 A    
C73   H69   1.115299 S    
C102  H82   1.110553 S    
N32   Ni3   1.886517 S    
C75   N43   1.471884 S    
C29   N21   1.323959 A    
N8    Ni8   1.886475 S    
C8    C19   1.389302 A    
C79   C93   1.533001 S    
C31   N23   1.322588 A    
C93   H65   1.107522 S    
C77   C95   1.536142 S    
C76   C82   1.571990 S    
C70   C86   1.560766 S    
C68   C84   1.564397 S    
N37   O9    1.302156 A    
N16   Ni3   1.886870 S    
N1    Ni1   1.879819 S    
C52   C56   1.546067 S    
N33   O1    1.301242 A    
C2    C18   1.393148 A    
C27   N19   1.324882 A    
C54   N34   1.475266 S    
C94   H64   1.112712 S    
N38   O12   1.303188 A    
H85   C111  1.114552 S    
C91   N47   1.473150 S    
N41   O17   1.301617 A    
C78   H58   1.113256 S    
C79   H55   1.111083 S    
H86   C111  1.114532 S    
C77   H53   1.110847 S    
C100  C108  1.560245 S    
C39   N31   1.323199 A    
C92   N48   1.473173 S    
C71   H47   1.111536 S    
C72   H48   1.111511 S    
N42   O19   1.301574 A    
C21   C109  1.467110 S    
C25   C41   1.388839 A    
N6    Ni6   1.886475 S    
C15   H15   1.072527 S    
N25   Ni6   1.879820 S    
H87   C112  1.114538 S    
C97   F13   1.386441 S    
N27   Ni8   1.879820 S    
C67   H43   1.113363 S    
C49   H33   1.114169 S    
C51   H35   1.116247 S    
C56   H40   1.112688 S    
C25   N17   1.324896 A    
N45   O25   1.301307 A    
C69   F11   1.385481 S    
C106  C112  1.523139 S    
N21   Ni5   1.886869 S    
C28   N20   1.324886 A    
C89   N45   1.473173 S    
C76   N44   1.472125 S    
C10   H10   1.079575 S    
N2    Ni2   1.879819 S    
C96   H68   1.107521 S    
C37   H29   1.079446 S    
N29   Ni2   1.886473 S    
C29   C43   1.392687 A    
C86   C94   1.555611 S    
C68   H44   1.113343 S    
N5    Ni5   1.886517 S    
C85   C89   1.563441 S    
N40   O15   1.302614 A    
C99   C103  1.538434 S    
C75   C81   1.571147 S    
C88   C92   1.563441 S    
C49   C59   1.572871 S    
N41   O18   1.300491 A    
C32   N24   1.324002 A    
C58   C64   1.588717 S    
C78   C96   1.533005 S    
C40   H32   1.079444 S    
N34   O4    1.301731 A    
C31   C44   1.390462 A    
C13   H13   1.080169 S    
C47   C87   1.468846 S    
C14   N14   1.318065 A    
C5    C18   1.389282 A    
C13   C23   1.386861 A    
C16   H16   1.080171 S    
C49   F21   1.385297 S    
N15   Ni4   1.886828 S    
N43   O21   1.301574 A    
C77   C81   1.563191 S    
H51   C91   1.112131 S    
N9    Ni6   1.879701 S    
C36   N28   1.326239 A    
N26   Ni5   1.879818 S    
H52   C92   1.115107 S    
C33   H25   1.080292 S    
N11   Ni8   1.879701 S    
C80   C84   1.563195 S    
C9    N9    1.325894 A    
C95   H61   1.112713 S    
C26   H18   1.077957 S    
C35   H27   1.080062 S    
C101  C109  1.554203 S    
C40   C47   1.374919 A    
N11   N12   1.390362 A    
N21   N22   1.390362 A    
C7    H7    1.075872 S    
C57   C59   1.611571 S    
N48   O32   1.301575 A    
C18   C81   1.478462 S    
C1    H1    1.077031 S    
C3    H3    1.078076 S    
C61   C63   1.572628 S    
C67   C83   1.563530 S    
N43   O22   1.300391 A    
C38   H30   1.079350 S    
C94   H66   1.107556 S    
C104  H84   1.110818 S    
N30   Ni1   1.886517 S    
C67   F7    1.382271 S    
C28   C42   1.388830 A    
C90   N46   1.473133 S    
C58   N40   1.486545 S    
C16   C24   1.386906 A    
C73   C89   1.536158 S    
C29   H21   1.076757 S    
C105  F18   1.388618 S    
C71   F9    1.385274 S    
C52   H36   1.114168 S    
C33   N25   1.326231 A    
C80   H56   1.110846 S    
N35   O6    1.301723 A    
C9    H9    1.079693 S    
C64   F4    1.383618 S    
C68   C70   1.540012 S    
C17   C82   1.476579 S    
C72   C88   1.560856 S    
N19   N20   1.390362 A    
C1    N1    1.323338 A    
N47   O30   1.301577 A    
N47   O29   1.301222 A    
C3    C19   1.393135 A    
N36   O7    1.301185 A    
C34   H26   1.080062 S    
C99   F15   1.386395 S    
C12   H12   1.079693 S    
C36   C48   1.378114 A    
C7    C20   1.388089 A    
C77   H57   1.113118 S    
C55   N35   1.475227 S    
C96   H62   1.112768 S    
C37   N29   1.324396 A    
N7    Ni7   1.886517 S    
C41   C107  1.473515 S    
C58   N39   1.486165 S    
C51   C55   1.527621 S    
C52   C60   1.572963 S    
C49   C53   1.545802 S    
C5    H5    1.075154 S    
C39   C48   1.374522 A    
C32   C44   1.392749 A    
C34   N26   1.326496 A    
C63   F2    1.379842 S    
C45   C85   1.466306 S    
C6    N6    1.322553 A    
C53   N33   1.474576 S    
C27   C42   1.389244 A    
C52   F24   1.385247 S    
C69   H45   1.111509 S    
C57   N38   1.486127 S    
C103  H79   1.112896 S    
C12   N12   1.325890 A    
C74   H70   1.115275 S    
C102  C109  1.553786 S    
C103  H83   1.110558 S    
C65   H41   1.113343 S    
C99   H75   1.110422 S    
N25   N30   1.390330 A    
C30   N22   1.322584 A    
C6    H6    1.075869 S    
N27   N32   1.390330 A    
C4    H4    1.077027 S    
C11   C22   1.377450 A    
C56   N36   1.474571 S    
C4    C20   1.392107 A    
C103  C110  1.553787 S    
N46   O27   1.301228 A    
N42   O20   1.300394 A    
C14   H14   1.072586 S    
C55   H39   1.117060 S    
N44   O23   1.301618 A    
N1    N6    1.390330 A    
C6    C17   1.388080 A    
N3    N8    1.390330 A    
C50   F22   1.384840 S    
C99   C108  1.560306 S    
C65   F5    1.381936 S    
N28   N31   1.390330 A    
C26   N18   1.324877 A    
C100  H76   1.110236 S    
N31   Ni4   1.886473 S    
C87   C91   1.561772 S    
C7    N7    1.322560 A    
C57   C63   1.588847 S    
C8    N8    1.322750 A    
C70   F12   1.385272 S    
C2    H2    1.078076 S    
N18   Ni2   1.879700 S    
C74   N42   1.471885 S    
C10   N10   1.325670 A    
C102  H78   1.112889 S    
C56   C62   1.577977 S    
H49   C89   1.115106 S    
N37   O10   1.302938 A    
N40   O16   1.302035 A    
C98   H74   1.110418 S    
C79   C83   1.563039 S    
C51   C60   1.565299 S    
C74   C90   1.535146 S    
C75   H71   1.115273 S    
C50   H34   1.116250 S    
N26   N29   1.390330 A    
C80   H60   1.113117 S    
N15   N16   1.390362 A    
N38   O11   1.300785 A    
N9    N10   1.390362 A    
C32   H24   1.076765 S    
N22   Ni6   1.886827 S    
C105  C107  1.562834 S    
C55   C62   1.576712 S    
C65   C81   1.564391 S    
C109  C111  1.546400 S    
N3    Ni3   1.879819 S    
C44   C62   1.485178 S    
C37   C46   1.374900 A    
N39   O13   1.300770 A    
C2    N2    1.324386 A    
C10   C21   1.377452 A    
C106  F19   1.388620 S    
C104  H80   1.112736 S    
N13   Ni2   1.886828 S    
C87   C95   1.555612 S    
C98   F14   1.386395 S    
C85   C93   1.555433 S    
C51   F23   1.384833 S    
N35   O5    1.300517 A    
C73   C83   1.571987 S    
C74   C84   1.571127 S    
C98   C102  1.538431 S    
N23   Ni7   1.886869 S    
C31   H23   1.074019 S    
N19   Ni3   1.879700 S    
C69   C85   1.560860 S    
N45   O26   1.301575 A    
N23   N24   1.390362 A    
C65   C71   1.539995 S    
N13   N14   1.390362 A    
C66   C72   1.540791 S    
C88   C96   1.555438 S    
N17   N18   1.390362 A    
C101  H81   1.110810 S    
H88   C112  1.114560 S    
N10   Ni5   1.879701 S    
N20   Ni4   1.879700 S    
C100  F16   1.386444 S    
C1    C17   1.392113 A    
C50   C54   1.527640 S    
C57   N37   1.486600 S    
