data_mof_unit_66205.cif
_audit_creation_date              2013-03-05T15:59:27-0500
_audit_creation_method            fapswitch 2.2
_symmetry_space_group_name_H-M    P1
_symmetry_Int_Tables_number       1
_space_group_crystal_system       triclinic
_cell_length_a                    21.494558
_cell_length_b                    29.407744
_cell_length_c                    29.409846
_cell_angle_alpha                 90.047348
_cell_angle_beta                  90.037063
_cell_angle_gamma                 90.013647
_cell_volume                      18590.1428497

loop_
_atom_site_label
_atom_site_type_symbol
_atom_site_description
_atom_site_fract_x
_atom_site_fract_y
_atom_site_fract_z
_atom_type_partial_charge
O1    O     O_R   0.000000 0.964120 0.061970 -0.573569
O2    O     O_R   0.000000 0.964120 0.938030 -0.565860
O3    O     O_R   0.500000 0.464120 0.561970 -0.564218
O4    O     O_R   0.500000 0.464120 0.438030 -0.568203
O5    O     O_R   0.000000 0.035860 0.061950 -0.565807
O6    O     O_R   0.000000 0.035860 0.938050 -0.559938
O7    O     O_R   0.500000 0.535860 0.561950 -0.570049
O8    O     O_R   0.500000 0.535860 0.438050 -0.564390
C1    C     C_R   0.000037 0.000010 0.085539 0.818631
C2    C     C_R   0.000017 0.999981 0.914464 0.823109
C3    C     C_R   0.500070 0.500014 0.585537 0.831940
C4    C     C_R   0.499995 0.499978 0.414463 0.804085
O9    O     O_R   0.091580 0.964120 0.000000 -0.563500
O10   O     O_R   0.908420 0.964120 0.000000 -0.574977
O11   O     O_R   0.591580 0.464120 0.500000 -0.553048
O12   O     O_R   0.408420 0.464120 0.500000 -0.575622
O13   O     O_R   0.091590 0.035860 0.000000 -0.592137
O14   O     O_R   0.908410 0.035860 0.000000 -0.586333
O15   O     O_R   0.591590 0.535860 0.500000 -0.586926
O16   O     O_R   0.408410 0.535860 0.500000 -0.585596
C5    C     C_R   0.121073 0.000006 0.002624 0.852370
C6    C     C_R   0.878718 0.999947 0.001006 0.848302
C7    C     C_R   0.621097 0.499976 0.497771 0.846114
C8    C     C_R   0.378718 0.499946 0.501000 0.847480
Cu1   Cu    Cu3+1 0.000000 0.957510 0.000000 0.966502
Cu2   Cu    Cu3+1 0.500000 0.457510 0.500000 0.974302
Cu3   Cu    Cu3+1 0.000000 0.042470 0.000000 0.950576
Cu4   Cu    Cu3+1 0.500000 0.542470 0.500000 0.952470
C9    C     C_3   0.229677 0.034978 0.027459 0.177901
C10   C     C_3   0.770191 0.011585 0.959933 0.220199
C11   C     C_3   0.769370 0.029019 0.031932 0.202320
C12   C     C_3   0.228056 0.005740 0.959897 0.204999
C13   C     C_3   0.728258 0.505851 0.540193 0.210033
C14   C     C_3   0.270190 0.511658 0.459951 0.220535
C15   C     C_3   0.269372 0.528962 0.531982 0.202072
C16   C     C_3   0.729299 0.534981 0.472653 0.172786
C17   C     C_3   0.268558 0.040959 0.984288 0.258740
C18   C     C_3   0.729463 0.041342 0.990571 0.257395
C19   C     C_3   0.768432 0.541167 0.515771 0.260283
C20   C     C_3   0.229463 0.541361 0.490644 0.257530
C21   C     C_3   0.311362 0.002062 0.000228 -0.134576
C22   C     C_3   0.688623 0.999539 0.000250 -0.173084
C23   C     C_3   0.811347 0.502326 0.499745 -0.133095
C24   C     C_3   0.188623 0.499541 0.500248 -0.173090
C25   C     C_3   0.272800 0.996411 0.044632 -0.231228
C26   C     C_3   0.729094 0.969342 0.968737 -0.225406
C27   C     C_3   0.728264 0.987254 0.042640 -0.244146
C28   C     C_3   0.270910 0.966292 0.975058 -0.286974
C29   C     C_3   0.771189 0.466474 0.524942 -0.249060
C30   C     C_3   0.229092 0.469400 0.468680 -0.225507
C31   C     C_3   0.228264 0.487179 0.542615 -0.244090
C32   C     C_3   0.772568 0.496534 0.455396 -0.274716
C33   C     C_3   0.231652 0.962026 0.018781 0.251626
C34   C     C_3   0.769510 0.958517 0.010748 0.255717
C35   C     C_3   0.731744 0.462050 0.481284 0.254283
C36   C     C_3   0.269509 0.458498 0.510670 0.255456
C37   C     C_3   0.188472 0.000219 0.002763 -0.169595
C38   C     C_3   0.811147 0.999791 0.001149 -0.212192
C39   C     C_3   0.688484 0.500116 0.497436 -0.169070
C40   C     C_3   0.311146 0.499789 0.501145 -0.212150
H1    H     H_    0.291774 0.992167 0.079482 0.156024
H2    H     H_    0.711550 0.944874 0.942989 0.148585
H3    H     H_    0.710146 0.976564 0.076314 0.157560
H4    H     H_    0.288236 0.937926 0.953604 0.151426
H5    H     H_    0.788813 0.438078 0.546200 0.147395
H6    H     H_    0.211545 0.444979 0.442887 0.148513
H7    H     H_    0.210146 0.476428 0.576269 0.157731
H8    H     H_    0.791299 0.492717 0.420434 0.161376
C41   C     C_1   0.000062 0.000042 0.136668 -0.199837
C42   C     C_1   0.000032 0.999968 0.863335 -0.206445
C43   C     C_1   0.500090 0.500058 0.636668 -0.196466
C44   C     C_1   0.500013 0.499958 0.363335 -0.211670
C45   C     C_1   0.000062 0.000045 0.179047 0.002129
C46   C     C_1   0.000045 0.999971 0.820955 0.002756
C47   C     C_1   0.500091 0.500070 0.679048 0.003720
C48   C     C_1   0.500024 0.499954 0.320956 -0.000672
C49   C     C_1   0.000039 0.000037 0.229300 0.003082
C50   C     C_1   0.000056 0.999977 0.770702 0.002921
C51   C     C_1   0.500067 0.500064 0.729301 0.003717
C52   C     C_1   0.500034 0.499958 0.270703 0.001378
C53   C     C_1   0.000011 0.000027 0.271683 0.002421
C54   C     C_1   0.000060 0.999982 0.728320 0.002334
C55   C     C_1   0.500033 0.500051 0.771683 0.003022
C56   C     C_1   0.500043 0.499965 0.228320 0.001270
C57   C     C_1   0.999978 0.000013 0.321938 0.001565
C58   C     C_1   0.000060 0.999986 0.678063 0.001866
C59   C     C_1   0.499991 0.500030 0.821939 0.002102
C60   C     C_1   0.500050 0.499974 0.178064 0.000995
C61   C     C_1   0.999964 0.000002 0.364322 -0.188044
C62   C     C_1   0.000050 0.999989 0.635679 -0.187810
C63   C     C_1   0.499968 0.500012 0.864322 -0.187671
C64   C     C_1   0.500046 0.499982 0.135679 -0.188500
O17   O     O_R   0.500000 0.061920 0.964120 -0.568814
O18   O     O_R   0.500000 0.061920 0.035880 -0.567904
O19   O     O_R   0.000000 0.561920 0.464120 -0.562485
O20   O     O_R   0.000000 0.561920 0.535880 -0.574700
C65   C     C_R   0.500517 0.085492 0.000023 0.810011
C66   C     C_R   0.000482 0.585493 0.500010 0.810206
O21   O     O_R   0.408440 0.999940 0.964130 -0.584198
O22   O     O_R   0.591560 0.999940 0.035870 -0.589659
O23   O     O_R   0.591560 0.999940 0.964130 -0.577501
O24   O     O_R   0.408440 0.999940 0.035870 -0.590701
O25   O     O_R   0.908440 0.499940 0.464130 -0.589290
O26   O     O_R   0.091560 0.499940 0.535870 -0.588987
O27   O     O_R   0.091560 0.499940 0.464130 -0.578179
O28   O     O_R   0.908440 0.499940 0.535870 -0.585557
C67   C     C_R   0.378788 0.001080 0.000001 0.866444
C68   C     C_R   0.621223 0.999701 0.000035 0.861469
C69   C     C_R   0.878792 0.501298 0.499977 0.866225
C70   C     C_R   0.121223 0.499703 0.500035 0.861553
Cu5   Cu    Cu3+1 0.500000 0.999950 0.957510 0.944013
Cu6   Cu    Cu3+1 0.500000 0.999950 0.042490 0.935498
Cu7   Cu    Cu3+1 1.000000 0.499950 0.457510 0.943069
Cu8   Cu    Cu3+1 0.000000 0.499950 0.542490 0.935920
O29   O     O_R   0.500000 0.937960 0.964120 -0.567452
O30   O     O_R   0.500000 0.937960 0.035880 -0.566175
O31   O     O_R   0.000000 0.437960 0.464120 -0.567068
O32   O     O_R   0.000000 0.437960 0.535880 -0.566291
C71   C     C_R   0.500027 0.914391 0.999984 0.825010
C72   C     C_R   0.000025 0.414391 0.499984 0.825277
O33   O     O_R   0.053020 0.061970 0.500000 -0.557167
O34   O     O_R   0.946980 0.061970 0.500000 -0.556995
O35   O     O_R   0.553020 0.561970 0.000000 -0.557262
O36   O     O_R   0.446980 0.561970 0.000000 -0.557096
C73   C     C_R   0.000008 0.084511 0.500000 0.796304
C74   C     C_R   0.500008 0.584511 0.000000 0.796245
O37   O     O_R   0.053020 0.999990 0.438010 -0.557234
O38   O     O_R   0.946980 0.999990 0.561990 -0.557043
O39   O     O_R   0.946980 0.999990 0.438010 -0.557126
O40   O     O_R   0.053020 0.999990 0.561990 -0.557202
O41   O     O_R   0.553020 0.499990 0.938010 -0.557116
O42   O     O_R   0.446980 0.499990 0.061990 -0.557183
O43   O     O_R   0.446980 0.499990 0.938010 -0.557031
O44   O     O_R   0.553020 0.499990 0.061990 -0.557444
C75   C     C_R   0.999984 0.999991 0.415464 0.796019
C76   C     C_R   0.000017 0.999992 0.584537 0.796145
C77   C     C_R   0.499985 0.499993 0.915464 0.796300
C78   C     C_R   0.500017 0.499990 0.084537 0.795973
Cu9   Cu    Cu3+1 0.062770 0.999990 0.500000 0.962084
Cu10  Cu    Cu3+1 0.937230 0.999990 0.500000 0.962597
Cu11  Cu    Cu3+1 0.562770 0.499990 0.000000 0.961728
Cu12  Cu    Cu3+1 0.437230 0.499990 0.000000 0.962219
O45   O     O_R   0.053000 0.938010 0.500000 -0.557301
O46   O     O_R   0.947000 0.938010 0.500000 -0.557140
O47   O     O_R   0.553000 0.438010 0.000000 -0.557257
O48   O     O_R   0.447000 0.438010 0.000000 -0.557168
C79   C     C_R   0.999996 0.915455 0.500001 0.796104
C80   C     C_R   0.499996 0.415455 0.999999 0.796271
C81   C     C_1   0.500424 0.136627 0.000052 -0.212258
C82   C     C_1   0.000393 0.636626 0.500035 -0.212349
C83   C     C_1   0.500305 0.179007 0.000046 -0.002175
C84   C     C_1   0.000279 0.679006 0.500047 -0.002289
C85   C     C_1   0.500185 0.229264 0.000032 0.000114
C86   C     C_1   0.000166 0.729263 0.500048 0.000082
C87   C     C_1   0.000094 0.771651 0.500040 0.001222
C88   C     C_1   0.500107 0.271651 0.000022 0.001293
C89   C     C_1   0.000032 0.821915 0.500027 0.001195
C90   C     C_1   0.500038 0.321915 0.000012 0.001264
C91   C     C_1   0.999999 0.864305 0.500014 -0.188383
C92   C     C_1   0.500001 0.364305 0.000005 -0.188353
C93   C     C_1   0.500067 0.863266 0.999958 -0.212207
C94   C     C_1   0.000066 0.363266 0.499958 -0.212047
C95   C     C_1   0.500088 0.820890 0.999957 -0.002658
C96   C     C_1   0.000087 0.320890 0.499956 -0.002270
C97   C     C_1   0.500089 0.770645 0.999964 0.001794
C98   C     C_1   0.000089 0.270645 0.499962 0.002202
C99   C     C_1   0.000076 0.228267 0.499971 0.002197
C100  C     C_1   0.500076 0.728267 0.999972 0.001805
C101  C     C_1   0.000052 0.178021 0.499982 0.001777
C102  C     C_1   0.500052 0.678021 0.999983 0.001402
C103  C     C_1   0.000029 0.135642 0.499991 -0.187692
C104  C     C_1   0.500029 0.635642 0.999992 -0.188045
N1    N     N_2   0.283630 0.084574 0.964169 -0.428113
H9    H     H_    0.247595 0.107653 0.965633 0.259035
C105  C     C_3   0.344147 0.103414 0.974129 -0.691240
H10   H     H_    0.344936 0.140126 0.965315 0.224633
H11   H     H_    0.379593 0.086145 0.952969 0.250951
H12   H     H_    0.355894 0.099551 0.010679 0.212647
N2    N     N_2   0.703919 0.085484 0.979222 -0.432878
H13   H     H_    0.667761 0.095300 0.000030 0.238632
C106  C     C_3   0.748659 0.121247 0.971042 -0.670387
H14   H     H_    0.724657 0.150764 0.955399 0.227565
H15   H     H_    0.785613 0.109675 0.947388 0.261628
H16   H     H_    0.770002 0.132511 0.003488 0.217623
N3    N     N_2   0.783448 0.584590 0.536413 -0.436826
H17   H     H_    0.747657 0.607864 0.534789 0.263914
C107  C     C_3   0.844472 0.603128 0.527643 -0.692126
H18   H     H_    0.845492 0.639708 0.537033 0.224194
H19   H     H_    0.857071 0.599704 0.491192 0.213197
H20   H     H_    0.879172 0.585337 0.549044 0.252465
N4    N     N_2   0.203921 0.585524 0.479375 -0.433100
H21   H     H_    0.167764 0.595303 0.500202 0.238700
C108  C     C_3   0.248662 0.621300 0.471259 -0.670558
H22   H     H_    0.224660 0.650847 0.455671 0.227317
H23   H     H_    0.285614 0.609770 0.447581 0.261692
H24   H     H_    0.270009 0.632504 0.503724 0.217845
N5    N     N_2   0.204425 0.071131 0.055390 -0.420515
H25   H     H_    0.173429 0.091696 0.038318 0.261093
C109  C     C_3   0.248807 0.096406 0.082305 -0.675977
H26   H     H_    0.223457 0.117455 0.107568 0.228966
H27   H     H_    0.276315 0.119416 0.060271 0.226505
H28   H     H_    0.280330 0.073126 0.101062 0.232971
N6    N     N_2   0.795133 0.024321 0.916049 -0.430141
H29   H     H_    0.831503 0.003856 0.905887 0.245295
C110  C     C_3   0.749226 0.030860 0.880731 -0.651978
H30   H     H_    0.772384 0.043895 0.849631 0.222939
H31   H     H_    0.713743 0.056063 0.891527 0.261929
H32   H     H_    0.726073 0.998086 0.872500 0.216317
N7    N     N_2   0.793580 0.060151 0.065743 -0.421370
H33   H     H_    0.825257 0.083116 0.052976 0.261495
C111  C     C_3   0.747700 0.080374 0.095415 -0.678647
H34   H     H_    0.771510 0.101237 0.121653 0.227557
H35   H     H_    0.720422 0.053570 0.112978 0.235651
H36   H     H_    0.715822 0.102624 0.075778 0.222203
N8    N     N_2   0.201972 0.010800 0.914787 -0.422220
H37   H     H_    0.166284 0.988249 0.908395 0.246062
C112  C     C_3   0.247047 0.012499 0.878383 -0.635026
H38   H     H_    0.222840 0.019541 0.845783 0.220894
H39   H     H_    0.271705 0.979424 0.875486 0.213840
H40   H     H_    0.281387 0.040043 0.884433 0.258204
N9    N     N_2   0.702187 0.511124 0.585255 -0.423925
H41   H     H_    0.671021 0.537677 0.587449 0.249268
C113  C     C_3   0.746914 0.510563 0.621955 -0.637854
H42   H     H_    0.722072 0.512646 0.654978 0.220476
H43   H     H_    0.779045 0.540015 0.619170 0.241765
H44   H     H_    0.774064 0.478449 0.621400 0.230746
N10   N     N_2   0.295132 0.524472 0.416090 -0.429614
H45   H     H_    0.331501 0.504025 0.405891 0.246122
C114  C     C_3   0.249224 0.531075 0.380784 -0.653076
H46   H     H_    0.272382 0.544166 0.349707 0.222895
H47   H     H_    0.213743 0.556259 0.391626 0.261766
H48   H     H_    0.226071 0.498317 0.372494 0.216246
N11   N     N_2   0.293586 0.560032 0.565848 -0.421957
H49   H     H_    0.325265 0.583018 0.553122 0.261435
C115  C     C_3   0.247708 0.580205 0.595556 -0.678086
H50   H     H_    0.271520 0.601019 0.621832 0.227571
H51   H     H_    0.220427 0.553371 0.613071 0.235774
H52   H     H_    0.215832 0.602492 0.575960 0.222349
N12   N     N_2   0.703242 0.570290 0.444088 -0.412173
H53   H     H_    0.671340 0.557631 0.421133 0.249446
C116  C     C_3   0.747744 0.600591 0.423221 -0.672615
H54   H     H_    0.723414 0.623340 0.398897 0.222555
H55   H     H_    0.783751 0.581034 0.404443 0.220840
H56   H     H_    0.769860 0.622337 0.449384 0.245851
N13   N     N_2   0.211017 0.918865 0.036969 -0.408759
H57   H     H_    0.244422 0.893834 0.034584 0.248928
C117  C     C_3   0.182562 0.921001 0.081468 -0.642713
H58   H     H_    0.218006 0.929659 0.107586 0.208662
H59   H     H_    0.162104 0.887391 0.089900 0.224141
H60   H     H_    0.144838 0.946766 0.082206 0.232475
N14   N     N_2   0.793011 0.913858 0.022158 -0.400182
H61   H     H_    0.823448 0.914439 0.049258 0.258241
C118  C     C_3   0.745970 0.879001 0.026411 -0.677262
H62   H     H_    0.768608 0.845805 0.033416 0.228380
H63   H     H_    0.719084 0.875834 0.994307 0.232473
H64   H     H_    0.713871 0.887168 0.054875 0.217966
N15   N     N_2   0.711188 0.418837 0.463083 -0.402914
H65   H     H_    0.744690 0.393867 0.465395 0.249508
C119  C     C_3   0.682548 0.420911 0.418620 -0.655042
H66   H     H_    0.717878 0.429574 0.392468 0.207929
H67   H     H_    0.644795 0.446658 0.417947 0.225792
H68   H     H_    0.662097 0.387279 0.410188 0.228086
N16   N     N_2   0.293006 0.413817 0.522000 -0.400236
H69   H     H_    0.323435 0.414347 0.549105 0.258306
C120  C     C_3   0.245962 0.378953 0.526182 -0.676407
H70   H     H_    0.268596 0.345744 0.533130 0.228674
H71   H     H_    0.219086 0.375845 0.494067 0.232236
H72   H     H_    0.213855 0.387070 0.554656 0.218092

loop_
_geom_bond_atom_site_label_1
_geom_bond_atom_site_label_2
_geom_bond_distance
_ccdc_geom_bond_type
C24   C70   1.448750 S    
C90   C92   1.246583 T    
O27   C70   1.233186 A    
O43   C77   1.318600 A    
C61   C75   1.504064 S    
C59   C63   1.246496 T    
C87   C89   1.478143 S    
C101  C103  1.246262 T    
Cu12  O48   1.834802 S    
O24   Cu6   1.977525 S    
Cu5   Cu6   2.499246 S    
O3    C3    1.262303 A    
C52   C56   1.246481 T    
C16   C39   1.534198 S    
C64   C78   1.504093 S    
C71   C93   1.503468 S    
O28   Cu8   1.977525 S    
C113  H44   1.110396 S    
N14   H61   1.030922 S    
C105  H11   1.107229 S    
C43   C47   1.246380 T    
C106  H14   1.109897 S    
C112  H40   1.109904 S    
C7    C39   1.448492 S    
C10   N6    1.447408 S    
N6    C110  1.445226 S    
C66   C82   1.503731 S    
O43   Cu12  1.835257 S    
C114  H46   1.110126 S    
C47   C51   1.477931 S    
C29   H5    1.110107 S    
C26   H2    1.109953 S    
C14   C20   1.531082 S    
C113  H43   1.110743 S    
C11   C38   1.537821 S    
O27   Cu7   1.977523 S    
O25   Cu7   1.977776 S    
O37   C75   1.318426 A    
N15   H65   1.030867 S    
C114  H48   1.111027 S    
C35   C39   1.530890 S    
O38   C76   1.318464 A    
C27   H3    1.110046 S    
C118  H62   1.110228 S    
C107  H19   1.110373 S    
C3    C43   1.503748 S    
C23   C32   1.556630 S    
N3    C107  1.443795 S    
C13   C29   1.547216 S    
C62   C76   1.504090 S    
C10   C18   1.531078 S    
O39   Cu10  1.835257 S    
C116  H54   1.110513 S    
C22   C26   1.550582 S    
C25   H1    1.109996 S    
N5    C109  1.444573 S    
N10   H45   1.030969 S    
C45   C49   1.477937 S    
C107  H20   1.107379 S    
Cu7   Cu8   2.499246 S    
C114  H47   1.109962 S    
O33   C73   1.318394 A    
O39   C75   1.318590 A    
C12   N8    1.447740 S    
Cu9   O45   1.834703 S    
C13   C19   1.530295 S    
N12   H53   1.031234 S    
C108  H23   1.109582 S    
O20   C66   1.262829 A    
C42   C46   1.246366 T    
C109  H28   1.110176 S    
C115  H50   1.110133 S    
N11   C115  1.445073 S    
C41   C45   1.246372 T    
C15   N11   1.447533 S    
O4    C4    1.262378 A    
C21   C67   1.449611 S    
C120  H70   1.110229 S    
C112  H39   1.111056 S    
O48   C80   1.318303 A    
C26   C34   1.543367 S    
C16   C32   1.549533 S    
C32   C35   1.542651 S    
C72   C94   1.503468 S    
C119  H68   1.110037 S    
O23   C68   1.233192 A    
O11   C7    1.232302 A    
O44   C78   1.318575 A    
C4    C44   1.503655 S    
C25   C33   1.542807 S    
C109  H26   1.109953 S    
O12   C8    1.232383 A    
C11   C27   1.545580 S    
N13   H57   1.030814 S    
C14   C40   1.537540 S    
C96   C98   1.477583 S    
C12   C28   1.547225 S    
C81   C83   1.246304 T    
O9    Cu1   1.977998 S    
O37   Cu9   1.834988 S    
C12   C37   1.530144 S    
O46   C79   1.318297 A    
O40   Cu9   1.835254 S    
C31   C36   1.542756 S    
C1    C41   1.503695 S    
C93   C95   1.246186 T    
C105  H12   1.109953 S    
C94   C96   1.246186 T    
C117  H59   1.110012 S    
O42   Cu12  1.834985 S    
C28   C33   1.543659 S    
C106  H15   1.109577 S    
Cu9   Cu10  2.698425 S    
O22   C68   1.232128 A    
C14   C30   1.546250 S    
O9    C5    1.233311 A    
N4    H21   1.030697 S    
O13   Cu3   1.978306 S    
O30   C71   1.262423 A    
O16   C8    1.234243 A    
N16   H69   1.030928 S    
C36   N16   1.446876 S    
C74   C104  1.503662 S    
C113  H42   1.110251 S    
C99   C101  1.477631 S    
C58   C62   1.246510 T    
O31   C72   1.262591 A    
O32   C72   1.262419 A    
C118  H63   1.110516 S    
C57   C61   1.246499 T    
O15   C7    1.233038 A    
C23   C29   1.551617 S    
O11   Cu2   1.977998 S    
C19   C23   1.542040 S    
O16   Cu4   1.978216 S    
O18   C65   1.262516 A    
C119  H67   1.110177 S    
C112  H38   1.110191 S    
N1    H9    1.030852 S    
C34   N14   1.446872 S    
C30   C36   1.543367 S    
O7    Cu4   1.832440 S    
O35   C74   1.318394 A    
C9    C25   1.549651 S    
C15   C40   1.537818 S    
C116  H55   1.111305 S    
C56   C60   1.478036 S    
C19   N3    1.449702 S    
O7    C3    1.262400 A    
N8    H37   1.030992 S    
N4    C108  1.445326 S    
C111  H34   1.110124 S    
O5    C1    1.262510 A    
N9    H41   1.030977 S    
O41   C77   1.318414 A    
C120  H71   1.110519 S    
C50   C54   1.246475 T    
C35   N15   1.447387 S    
O6    Cu3   1.832120 S    
C11   N7    1.447536 S    
C49   C53   1.246469 T    
O42   C78   1.318456 A    
O8    C4    1.262316 A    
C108  H24   1.108867 S    
O21   Cu5   1.977776 S    
O35   Cu11  1.834747 S    
C16   N12   1.448719 S    
C34   C38   1.534371 S    
N7    H33   1.030146 S    
O1    C1    1.262233 A    
O24   C67   1.232611 A    
N12   C116  1.444600 S    
C60   C64   1.246516 T    
C12   C17   1.530591 S    
C85   C88   1.246528 T    
O15   Cu4   1.978306 S    
C30   H6    1.109960 S    
C86   C87   1.246528 T    
Cu8   O32   1.833162 S    
N1    C105  1.443504 S    
O17   Cu5   1.832577 S    
C27   C34   1.542755 S    
Cu7   O31   1.833481 S    
C2    C42   1.503708 S    
C24   C31   1.552494 S    
N10   C114  1.445223 S    
N14   C118  1.445219 S    
C84   C86   1.477951 S    
O22   Cu6   1.977774 S    
C97   C100  1.246236 T    
O29   C71   1.262591 A    
N13   C117  1.446271 S    
C115  H51   1.110295 S    
C98   C99   1.246236 T    
O8    Cu4   1.832121 S    
C115  H52   1.109732 S    
O26   Cu8   1.977774 S    
C48   C52   1.477939 S    
C119  H66   1.110923 S    
O2    C2    1.262418 A    
O17   C65   1.262689 A    
O45   C79   1.318184 A    
Cu6   O30   1.833162 S    
O47   C80   1.318179 A    
O26   C70   1.232133 A    
O36   C74   1.318409 A    
C79   C91   1.504218 S    
N11   H49   1.030151 S    
C110  H32   1.111021 S    
C24   C30   1.550588 S    
N16   C120  1.445224 S    
C110  H30   1.110122 S    
O3    Cu2   1.832702 S    
C21   C25   1.556210 S    
C18   N2    1.448720 S    
C106  H16   1.108861 S    
C116  H56   1.107044 S    
C111  H35   1.110291 S    
O14   C6    1.234236 A    
Cu2   Cu4   2.498482 S    
C10   C26   1.546250 S    
C16   C19   1.531944 S    
O40   C76   1.318564 A    
O14   Cu3   1.978216 S    
Cu10  O46   1.834802 S    
C9    C37   1.534396 S    
O36   Cu12  1.834648 S    
O12   Cu2   1.978092 S    
C32   H8    1.110107 S    
C55   C59   1.478005 S    
C6    C38   1.452441 S    
C118  H64   1.111308 S    
O4    Cu2   1.833025 S    
C117  H58   1.110896 S    
O1    Cu1   1.832702 S    
C18   C22   1.537284 S    
Cu11  O47   1.834703 S    
O23   Cu5   1.977523 S    
C80   C92   1.504218 S    
O21   C67   1.233332 A    
C5    C37   1.448714 S    
C9    N5    1.448839 S    
C11   C18   1.531775 S    
O25   C69   1.232869 A    
C100  C102  1.477634 S    
O10   C6    1.232394 A    
O34   C73   1.318409 A    
C88   C90   1.478143 S    
C14   N10   1.447412 S    
O38   Cu10  1.834985 S    
O34   Cu10  1.834648 S    
C107  H18   1.110615 S    
N9    C113  1.445058 S    
C105  H10   1.110620 S    
C54   C58   1.478030 S    
Cu11  Cu12  2.698425 S    
O44   Cu11  1.835254 S    
C15   C31   1.545589 S    
O5    Cu3   1.832440 S    
O33   Cu9   1.834747 S    
N3    H17   1.030941 S    
C31   H7    1.110055 S    
C20   N4    1.448724 S    
C102  C104  1.246259 T    
O19   Cu7   1.832577 S    
C44   C48   1.246357 T    
C63   C77   1.504061 S    
O19   C66   1.262369 A    
C10   C38   1.537539 S    
O41   Cu11  1.834988 S    
O18   Cu6   1.832896 S    
N7    C111  1.445073 S    
C21   C28   1.551753 S    
C33   C37   1.531547 S    
C15   C20   1.531777 S    
O2    Cu1   1.833025 S    
C82   C84   1.246303 T    
C22   C27   1.552501 S    
C83   C85   1.477948 S    
O10   Cu1   1.978092 S    
C17   C21   1.541279 S    
N5    H25   1.030525 S    
C73   C103  1.503662 S    
C120  H72   1.111314 S    
C33   N13   1.447429 S    
O20   Cu8   1.832896 S    
N8    C112  1.445298 S    
C28   H4    1.110075 S    
O6    C2    1.262246 A    
C17   N1    1.449644 S    
N2    H13   1.030692 S    
C51   C55   1.246467 T    
C36   C40   1.534380 S    
C20   C24   1.537287 S    
C111  H36   1.109728 S    
C13   C39   1.529325 S    
C89   C91   1.246583 T    
C108  H22   1.109902 S    
C46   C50   1.477930 S    
C9    C17   1.530700 S    
C109  H27   1.108348 S    
C65   C81   1.503740 S    
C95   C97   1.477581 S    
Cu5   O29   1.833481 S    
C8    C40   1.452441 S    
C23   C69   1.450041 S    
N6    H29   1.030963 S    
N15   C119  1.446285 S    
C29   C35   1.543587 S    
C110  H31   1.109961 S    
C22   C68   1.448754 S    
O28   C69   1.233380 A    
C53   C57   1.478013 S    
C117  H60   1.110124 S    
C13   N9    1.447429 S    
N2    C106  1.445322 S    
Cu1   Cu3   2.498482 S    
O13   C5    1.232747 A    
