data_mof_unit_45381.cif
_audit_creation_date              2012-12-11T15:23:52-0500
_audit_creation_method            fapswitch 2.2
_symmetry_space_group_name_H-M    P1
_symmetry_Int_Tables_number       1
_space_group_crystal_system       triclinic
_cell_length_a                    17.332972
_cell_length_b                    24.178943
_cell_length_c                    15.139016
_cell_angle_alpha                 89.881388
_cell_angle_beta                  125.361043
_cell_angle_gamma                 90.307095
_cell_volume                      5174.12375311

loop_
_atom_site_label
_atom_site_type_symbol
_atom_type_description
_atom_site_fract_x
_atom_site_fract_y
_atom_site_fract_z
_atom_type_partial_charge
C1    C     C_R   0.360144 0.345119 0.913746 -0.135495
C2    C     C_R   0.453044 0.497356 0.647423 0.049292
C3    C     C_3   0.670093 0.420640 0.748487 -0.894182
C4    C     C_3   0.007503 0.891978 0.445165 -0.414798
C5    C     C_3   0.057269 0.867446 0.557874 -0.951623
C6    C     C_3   0.829359 0.895489 0.449771 -0.406395
C7    C     C_3   0.726578 0.913879 0.372276 -0.893552
C8    C     C_3   0.205078 0.602014 0.676000 -1.040451
C9    C     C_3   0.774119 0.601322 0.346138 -1.048095
C10   C     C_3   0.731841 0.103271 0.658192 -1.068378
C11   C     C_3   0.266249 0.101717 0.347738 -1.034744
C12   C     C_3   0.521552 0.600827 0.322311 -1.079013
C13   C     C_R   0.988468 0.995597 0.314892 0.039393
C14   C     C_3   0.417999 0.599395 0.648965 -1.070408
C15   C     C_3   0.060215 0.093829 0.352499 -1.075977
C16   C     C_3   0.922321 0.103435 0.657627 -1.109125
C17   C     C_3   0.244953 0.395983 0.654418 -0.354220
C18   C     C_3   0.171507 0.358602 0.650584 -0.933217
C19   C     C_3   0.786539 0.398598 0.343454 -0.371923
C20   C     C_3   0.854788 0.367286 0.328982 -0.904782
C21   C     C_3   0.737272 0.896405 0.653966 -0.366143
C22   C     C_3   0.664409 0.860816 0.654632 -0.930994
C23   C     C_3   0.261531 0.898915 0.351020 -0.356334
C24   C     C_R   0.926222 0.997882 0.629666 0.027919
C25   C     C_3   0.356595 0.870097 0.401052 -0.929451
C26   C     C_R   0.198295 0.497306 0.635040 0.024409
C27   C     C_R   0.817308 0.501597 0.343949 0.019223
C28   C     C_R   0.695269 0.998583 0.636426 0.026166
C29   C     C_R   0.307342 0.000217 0.359523 0.053235
C30   C     C_2   0.967308 0.532301 0.386677 -0.116121
C31   C     C_2   0.070629 0.533396 0.456401 -0.145619
C32   C     C_2   0.454840 0.029988 0.395301 -0.148148
C33   C     C_R   0.639816 0.345459 0.086578 -0.131525
C34   C     C_2   0.556232 0.037139 0.467219 -0.127876
C35   C     C_2   0.918536 0.504612 0.417200 -0.147321
C36   C     C_2   0.114925 0.491489 0.524131 -0.177499
C37   C     C_2   0.409188 0.002682 0.429794 -0.139756
C38   C     C_2   0.608842 0.994222 0.526309 -0.184262
C39   C     C_R   0.314740 0.775354 0.918398 -0.210280
C40   C     C_R   0.849631 0.678670 0.093096 -0.219940
C41   C     C_R   0.652277 0.180142 0.907165 -0.216800
C42   C     C_R   0.351853 0.177547 0.094363 -0.217521
C43   C     C_R   0.596331 0.222057 0.905814 0.328656
C44   C     C_R   0.860594 0.845097 0.913477 -0.134552
C45   C     C_R   0.406317 0.220839 0.095249 0.335159
C46   C     C_R   0.268450 0.822414 0.918616 0.329684
C47   C     C_R   0.905581 0.721040 0.094586 0.328338
C48   C     C_R   0.634839 0.254867 0.999982 0.093453
C49   C     C_R   0.366416 0.253928 0.001032 0.091820
C50   C     C_R   0.266497 0.832707 0.009133 0.097245
C51   C     C_R   0.867290 0.753750 0.000212 0.092338
C52   C     C_R   0.712475 0.234500 0.099014 -0.226578
C53   C     C_R   0.288638 0.233068 0.902433 -0.226212
C54   C     C_R   0.331437 0.804970 0.106467 -0.227789
C55   C     C_R   0.189506 0.877316 0.090161 -0.156929
C56   C     C_R   0.789765 0.732958 0.901200 -0.227794
C57   C     C_R   0.379945 0.760013 0.107007 -0.165501
C58   C     C_R   0.737756 0.689311 0.899619 -0.165784
C59   C     C_R   0.764273 0.191092 0.100642 -0.161496
C60   C     C_R   0.238492 0.188405 0.901180 -0.156438
C61   C     C_R   0.445860 0.651901 0.090773 -0.123200
C62   C     C_R   0.599788 0.623188 0.909998 -0.145727
C63   C     C_R   0.902636 0.126202 0.090111 -0.140486
C64   C     C_R   0.103021 0.120333 0.911823 -0.142617
C65   C     C_R   0.364191 0.741740 0.010201 0.089429
C66   C     C_R   0.386765 0.684599 0.003395 0.050316
C67   C     C_R   0.761238 0.666536 0.997216 0.093586
C68   C     C_R   0.740819 0.168394 0.003041 0.093970
C69   C     C_R   0.263606 0.164668 0.998851 0.091054
C70   C     C_R   0.388397 0.504363 0.461679 -0.204540
C71   C     C_R   0.398377 0.503603 0.379124 -0.205053
C72   C     C_R   0.877836 0.040732 0.452786 -0.207517
C73   C     C_R   0.903257 0.038820 0.381516 -0.192115
C74   C     C_R   0.486908 0.493329 0.402145 0.051126
C75   C     C_R   0.467556 0.495955 0.566081 0.058660
C76   C     C_R   0.950868 0.992500 0.380331 0.045282
C77   C     C_R   0.688477 0.637227 0.999673 0.056088
C78   C     C_R   0.889333 0.993748 0.513467 0.075261
C79   C     C_R   0.568790 0.483048 0.507226 0.153984
C80   C     C_R   0.559083 0.485509 0.592681 0.135973
C81   C     C_R   0.949582 0.942776 0.430210 0.143502
C82   C     C_R   0.897408 0.942904 0.474703 0.218789
C83   C     C_R   0.503026 0.451074 0.269231 -0.238456
C84   C     C_R   0.461943 0.452004 0.705290 -0.217425
C85   C     C_R   0.994265 0.951558 0.261548 -0.241116
C86   C     C_R   0.949796 0.953119 0.697880 -0.240068
C87   C     C_R   0.242020 0.544123 0.699026 0.310823
C88   C     C_R   0.813206 0.138846 0.000818 0.057720
C89   C     C_R   0.760835 0.546385 0.292990 0.262869
C90   C     C_R   0.744520 0.044982 0.698117 0.302350
C91   C     C_R   0.255047 0.045346 0.300494 0.258945
C92   C     C_R   0.505516 0.544179 0.274539 0.337205
C93   C     C_R   0.457148 0.544201 0.700614 0.283564
C94   C     C_R   0.014894 0.042922 0.283945 0.320310
C95   C     C_R   0.945461 0.044427 0.694391 0.354227
C96   C     C_R   0.248204 0.452473 0.698220 0.167222
C97   C     C_R   0.764313 0.454550 0.291585 0.187769
C98   C     C_R   0.745035 0.953125 0.699158 0.172367
C99   C     C_R   0.191417 0.134574 0.001698 0.057978
C100  C     C_R   0.256355 0.953885 0.300609 0.145711
C101  C     C_R   0.357026 0.653662 0.912174 -0.128534
C102  C     C_R   0.690259 0.624894 0.090423 -0.138931
C103  C     C_R   0.809662 0.124190 0.910016 -0.138691
C104  C     C_R   0.191760 0.123197 0.091724 -0.138861
C105  C     C_R   0.444061 0.347172 0.092518 -0.123975
C106  C     C_R   0.556386 0.347489 0.907499 -0.139926
C107  C     C_R   0.945239 0.846770 0.092175 -0.136051
C108  C     C_R   0.098036 0.873786 0.909458 -0.123789
C109  C     C_R   0.389580 0.313040 0.003772 0.052132
C110  C     C_R   0.491867 0.496350 0.313648 0.059252
C111  C     C_R   0.610728 0.313534 0.996611 0.059261
C112  C     C_R   0.890712 0.812775 0.003293 0.057716
C113  C     C_R   0.188920 0.862716 0.001430 0.064752
C114  C     C_3   0.497612 0.229173 0.805224 -1.071374
C115  C     C_3   0.505085 0.228997 0.195396 -1.083256
C116  C     C_3   0.218517 0.857796 0.819810 -1.110059
C117  C     C_3   0.003891 0.728755 0.195794 -1.080436
C118  C     C_3   0.664187 0.470381 0.526995 -0.371055
C119  C     C_3   0.717701 0.522713 0.535466 -0.917095
C120  C     C_3   0.645379 0.480812 0.710460 -0.353872
H1    H     H_    0.333289 0.328494 0.835380 0.115713
H2    H     H_    0.873733 0.656922 0.167414 0.121610
H3    H     H_    0.929211 0.130167 0.721101 0.261334
H4    H     H_    0.176758 0.361283 0.727091 0.265486
H5    H     H_    0.098676 0.370215 0.582944 0.253164
H6    H     H_    0.183076 0.315075 0.637848 0.251221
H7    H     H_    0.227728 0.399529 0.571597 0.187764
H8    H     H_    0.316164 0.377154 0.704264 0.177385
H9    H     H_    0.828710 0.366255 0.242596 0.266405
H10   H     H_    0.925514 0.387478 0.376554 0.255882
H11   H     H_    0.862429 0.324192 0.358367 0.247193
H12   H     H_    0.819759 0.403584 0.431553 0.183654
H13   H     H_    0.627781 0.158356 0.832819 0.127786
H14   H     H_    0.720398 0.375016 0.311083 0.174661
H15   H     H_    0.675925 0.862364 0.734730 0.266534
H16   H     H_    0.591597 0.875294 0.592699 0.254643
H17   H     H_    0.669994 0.817264 0.635919 0.251232
H18   H     H_    0.716510 0.899543 0.569647 0.195051
H19   H     H_    0.807622 0.876543 0.700181 0.176716
H20   H     H_    0.381814 0.873740 0.348556 0.254895
H21   H     H_    0.410679 0.888186 0.481453 0.253372
H22   H     H_    0.349185 0.825572 0.412996 0.257849
H23   H     H_    0.249626 0.905504 0.414903 0.189218
H24   H     H_    0.376889 0.155579 0.168758 0.122663
H25   H     H_    0.203506 0.871442 0.289278 0.185879
H26   H     H_    0.740966 0.255311 0.175106 0.130863
H27   H     H_    0.258656 0.254370 0.826502 0.130737
H28   H     H_    0.337796 0.812906 0.180513 0.130554
H29   H     H_    0.761251 0.753720 0.825086 0.130320
H30   H     H_    0.420513 0.736294 0.181036 0.122474
H31   H     H_    0.673586 0.678509 0.822407 0.117072
H32   H     H_    0.827950 0.180179 0.177982 0.112819
H33   H     H_    0.667500 0.329212 0.165527 0.106369
H34   H     H_    0.174009 0.177684 0.824216 0.119033
H35   H     H_    0.319382 0.511994 0.444692 0.141237
H36   H     H_    0.337276 0.511279 0.297071 0.143387
H37   H     H_    0.851319 0.079204 0.459355 0.149776
H38   H     H_    0.889248 0.074518 0.331433 0.135461
H39   H     H_    0.498098 0.667250 0.170858 0.108322
H40   H     H_    0.575157 0.626319 0.827046 0.121566
H41   H     H_    0.930518 0.134069 0.172742 0.120416
H42   H     H_    0.082794 0.119989 0.830503 0.125557
H43   H     H_    0.504522 0.408066 0.289738 0.119346
H44   H     H_    0.833106 0.828813 0.834717 0.115095
H45   H     H_    0.454800 0.408974 0.682207 0.119117
H46   H     H_    0.975263 0.909055 0.260037 0.123790
H47   H     H_    0.939469 0.910088 0.676867 0.110993
H48   H     H_    0.327135 0.670957 0.833138 0.107708
H49   H     H_    0.748767 0.632196 0.172381 0.124172
H50   H     H_    0.749105 0.128636 0.828506 0.125520
H51   H     H_    0.250668 0.129209 0.174379 0.120856
H52   H     H_    0.485786 0.335690 0.176664 0.109537
H53   H     H_    0.515847 0.336300 0.823118 0.111139
H54   H     H_    0.987890 0.835030 0.176170 0.111198
H55   H     H_    0.248803 0.876143 0.173009 0.129995
H56   H     H_    0.069877 0.865812 0.826011 0.118111
H57   H     H_    0.930897 0.556343 0.312343 0.126941
H58   H     H_    0.107546 0.570700 0.460552 0.145058
H59   H     H_    0.416729 0.051962 0.318533 0.132943
H60   H     H_    0.580834 0.079049 0.479238 0.152258
H61   H     H_    0.463321 0.188030 0.774707 0.264104
H62   H     H_    0.452734 0.252753 0.822172 0.252097
H63   H     H_    0.499875 0.249785 0.741162 0.251178
H64   H     H_    0.540073 0.188238 0.226391 0.262731
H65   H     H_    0.549318 0.253090 0.177654 0.252738
H66   H     H_    0.952335 0.481232 0.491980 0.135723
H67   H     H_    0.502866 0.249496 0.259428 0.250717
H68   H     H_    0.262605 0.863199 0.788831 0.270308
H69   H     H_    0.152089 0.836206 0.758225 0.265017
H70   H     H_    0.203978 0.899701 0.836533 0.267577
H71   H     H_    0.037789 0.687801 0.227605 0.260667
H72   H     H_    0.049494 0.752056 0.179111 0.256754
H73   H     H_    0.000973 0.749854 0.258865 0.251966
H74   H     H_    0.685791 0.541005 0.454496 0.279990
H75   H     H_    0.717527 0.553624 0.589473 0.257421
H76   H     H_    0.792126 0.512201 0.568727 0.251222
H77   H     H_    0.078960 0.451890 0.503694 0.147906
H78   H     H_    0.710559 0.446082 0.601719 0.205454
H79   H     H_    0.655425 0.443299 0.462860 0.185675
H80   H     H_    0.623072 0.403891 0.769437 0.262603
H81   H     H_    0.663904 0.393546 0.685618 0.246109
H82   H     H_    0.743806 0.418635 0.822420 0.253763
H83   H     H_    0.707465 0.501578 0.721069 0.196407
H84   H     H_    0.635173 0.503652 0.766422 0.192239
H85   H     H_    0.096655 0.900855 0.618491 0.284952
H86   H     H_    0.006178 0.847828 0.570190 0.256636
H87   H     H_    0.107921 0.835303 0.569417 0.266437
H88   H     H_    0.446465 0.982477 0.508211 0.140816
H89   H     H_    0.961899 0.859957 0.383805 0.191782
H90   H     H_    0.066209 0.903125 0.438844 0.211807
H91   H     H_    0.709634 0.946210 0.410550 0.260733
H92   H     H_    0.713856 0.930494 0.296429 0.266862
H93   H     H_    0.678637 0.878009 0.351655 0.252786
H94   H     H_    0.840214 0.860712 0.410363 0.207531
H95   H     H_    0.838990 0.878184 0.522919 0.178565
H96   H     H_    0.250995 0.629552 0.666257 0.248118
H97   H     H_    0.131347 0.605430 0.604478 0.255938
H98   H     H_    0.200898 0.615697 0.742737 0.253895
H99   H     H_    0.577204 0.953377 0.500210 0.155725
H100  H     H_    0.709436 0.626837 0.296689 0.249111
H101  H     H_    0.788192 0.595009 0.426841 0.262284
H102  H     H_    0.835596 0.623543 0.357816 0.250167
H103  H     H_    0.793910 0.129194 0.716526 0.262469
H104  H     H_    0.724195 0.104464 0.580739 0.251669
H105  H     H_    0.667519 0.121302 0.645863 0.243589
H106  H     H_    0.205810 0.128539 0.289862 0.249191
H107  H     H_    0.269089 0.098108 0.422681 0.263763
H108  H     H_    0.332899 0.121250 0.368472 0.247990
H109  H     H_    0.455739 0.625315 0.273187 0.255670
H110  H     H_    0.308023 0.763855 0.845135 0.127828
H111  H     H_    0.540207 0.598570 0.405784 0.267165
H112  H     H_    0.581576 0.621251 0.327748 0.250821
H113  H     H_    0.464409 0.619056 0.629399 0.252368
H114  H     H_    0.346037 0.593962 0.573137 0.259782
H115  H     H_    0.412181 0.626712 0.703645 0.253345
H116  H     H_    0.009526 0.119086 0.356840 0.240712
H117  H     H_    0.119002 0.081513 0.435821 0.266625
H118  H     H_    0.089538 0.120200 0.318653 0.259709
H119  H     H_    0.970207 0.118917 0.636607 0.253573
H120  H     H_    0.848721 0.107516 0.587086 0.256535
N1    N     N_R   0.395440 0.396300 0.944370 -0.034421
N2    N     N_R   0.474910 0.470990 0.794360 -0.057339
N3    N     N_R   0.025090 0.970990 0.205640 -0.051784
N4    N     N_R   0.974910 0.970990 0.794360 -0.054929
N5    N     N_R   0.320240 0.527820 0.794510 -0.073733
N6    N     N_R   0.679760 0.527820 0.205490 -0.073488
N7    N     N_R   0.820240 0.027820 0.794510 -0.075047
N8    N     N_R   0.179760 0.027820 0.205490 -0.070820
N9    N     N_R   0.524580 0.527810 0.205160 -0.058257
N10   N     N_R   0.475420 0.527810 0.794840 -0.057985
N11   N     N_R   0.024580 0.027810 0.205160 -0.051692
N12   N     N_R   0.604560 0.396300 0.055630 -0.034587
N13   N     N_R   0.975420 0.027810 0.794840 -0.056943
N14   N     N_R   0.320750 0.470990 0.794990 -0.084294
N15   N     N_R   0.679250 0.470990 0.205010 -0.084641
N16   N     N_R   0.820750 0.970990 0.794990 -0.083339
N17   N     N_R   0.179250 0.970990 0.205010 -0.088122
N18   N     N_R   0.393580 0.602500 0.942610 -0.035348
N19   N     N_R   0.606420 0.602500 0.057390 -0.037013
N20   N     N_R   0.893580 0.102500 0.942610 -0.038557
N21   N     N_R   0.106420 0.102500 0.057390 -0.037513
N22   N     N_R   0.451750 0.396300 0.057540 -0.036442
N23   N     N_R   0.895440 0.896300 0.944370 -0.035412
N24   N     N_R   0.548250 0.396300 0.942460 -0.037517
N25   N     N_R   0.951750 0.896300 0.057540 -0.037530
N26   N     N_R   0.048250 0.896300 0.942460 -0.039950
N27   N     N_R   0.104560 0.896300 0.055630 -0.039764
N28   N     N_R   0.449890 0.602500 0.055780 -0.037526
N29   N     N_R   0.550110 0.602500 0.944220 -0.037461
N30   N     N_R   0.949890 0.102500 0.055780 -0.039837
N31   N     N_R   0.050110 0.102500 0.944220 -0.039843
N32   N     N_R   0.525090 0.470990 0.205640 -0.056031
Ni1   Ni    Ni4+2 0.435420 0.434250 0.870220 0.193048
Ni2   Ni    Ni4+2 0.564580 0.434250 0.129780 0.192420
Ni3   Ni    Ni4+2 0.935420 0.934250 0.870220 0.196135
Ni4   Ni    Ni4+2 0.064580 0.934250 0.129780 0.193580
Ni5   Ni    Ni4+2 0.563400 0.564580 0.128670 0.203188
Ni6   Ni    Ni4+2 0.436600 0.564580 0.871330 0.205707
Ni7   Ni    Ni4+2 0.063400 0.064580 0.128670 0.209741
Ni8   Ni    Ni4+2 0.936600 0.064580 0.871330 0.208723

loop_
_geom_bond_atom_site_label_1
_geom_bond_atom_site_label_2
_ccdc_geom_bond_type
C108  C113  A    
C40   C47   A    
C116  H69   S    
C80   C120  S    
C51   C112  S    
C6    C82   S    
C105  H52   S    
C63   C88   A    
N6    Ni5   S    
C39   C65   A    
C103  N20   A    
C62   C77   A    
C2    C84   A    
C19   C20   S    
C67   C77   S    
C53   H27   S    
C20   H9    S    
N18   N28   A    
C94   N11   A    
C88   C103  A    
C44   N23   A    
C41   H13   S    
C115  H64   S    
C19   C97   S    
C12   H109  S    
C92   N9    A    
C89   N6    A    
C19   H14   S    
C52   C59   A    
C116  H68   S    
C22   H17   S    
C50   C54   A    
C30   C35   D    
C85   H46   S    
N10   Ni6   S    
C49   C109  S    
N13   Ni8   S    
C63   N30   A    
C106  H53   S    
C51   C56   A    
C48   C52   A    
C61   H39   S    
C43   C114  S    
C30   C31   S    
C115  H65   S    
C33   H33   S    
N5    Ni6   S    
C5    H87   S    
N6    N15   A    
C114  H63   S    
C79   C118  S    
C85   N3    A    
C4    H90   S    
C102  N19   A    
C63   H41   S    
C119  H76   S    
C107  C112  A    
N1    Ni1   S    
N7    Ni8   S    
C45   C115  S    
C118  C119  S    
N8    Ni7   S    
C72   C78   A    
C84   H45   S    
C117  H71   S    
C14   H114  S    
C1    C109  A    
C5    H86   S    
C91   N8    A    
C34   H60   S    
C61   C66   A    
C53   C60   A    
C64   C99   A    
C120  H83   S    
C4    C81   S    
C25   H22   S    
C16   H119  S    
C16   H3    S    
C26   C87   A    
N17   Ni4   S    
C40   C67   A    
C6    H94   S    
C15   H116  S    
N18   Ni6   S    
N4    Ni3   S    
C11   H107  S    
N16   Ni3   S    
C12   H112  S    
C70   C71   A    
C33   C111  A    
C28   C38   S    
C75   C80   A    
C95   N13   A    
C14   C93   S    
C8    H98   S    
N19   N29   A    
C10   H104  S    
C97   N15   A    
N7    N16   A    
C102  H49   S    
C3    H80   S    
C23   C100  S    
C10   H105  S    
C21   C22   S    
C101  N18   A    
C41   C43   A    
N9    N32   A    
C23   H23   S    
C77   C102  A    
C21   H18   S    
C15   C94   S    
C118  H79   S    
C9    H102  S    
C98   N16   A    
C14   H115  S    
N14   Ni1   S    
C66   C101  A    
C46   C50   A    
C87   N5    A    
C41   C68   A    
N11   Ni7   S    
C106  C111  A    
C56   C58   A    
N20   Ni8   S    
C26   C96   A    
N22   Ni2   S    
N27   Ni4   S    
N3    N11   A    
C6    H95   S    
N15   Ni2   S    
C116  H70   S    
C70   H35   S    
N2    N10   A    
C25   H20   S    
C55   N27   A    
C36   H77   S    
C39   H110  S    
C64   H42   S    
N26   N27   A    
C24   C95   A    
C9    C89   S    
C86   N4    A    
N12   N24   A    
C11   H108  S    
N21   N31   A    
C47   C51   A    
C55   C113  A    
C17   H7    S    
C27   C35   S    
C59   H32   S    
N28   Ni5   S    
C42   C69   A    
C81   C82   A    
C4    H89   S    
C26   C36   S    
C24   C86   A    
C22   H16   S    
C42   C45   A    
C32   C34   S    
N30   Ni7   S    
C101  H48   S    
C13   C94   A    
C61   N28   A    
C107  N25   A    
C117  H72   S    
C9    H101  S    
C59   C68   A    
C103  H50   S    
C23   H25   S    
C78   C82   A    
N25   Ni4   S    
C1    H1    S    
C15   H118  S    
C13   C76   S    
C45   C49   A    
N26   Ni3   S    
C57   H30   S    
C72   C73   A    
C106  N24   A    
C17   C18   S    
C83   C110  A    
C32   H59   S    
C17   C96   S    
C32   C37   D    
C64   N31   A    
C108  N26   A    
C55   H55   S    
C7    H93   S    
C1    N1    A    
C10   H103  S    
C28   C90   A    
C39   C46   A    
C31   H58   S    
C69   C99   S    
C9    H100  S    
C24   C78   S    
N31   Ni8   S    
C27   C89   A    
N23   Ni3   S    
N4    N13   A    
C104  H51   S    
C115  H67   S    
C3    H81   S    
C37   H88   S    
C62   H40   S    
C79   C80   A    
N19   Ni5   S    
C119  H74   S    
C104  N21   A    
C21   H19   S    
C20   H11   S    
C29   C37   S    
C118  H78   S    
C44   C112  A    
C29   C91   A    
C33   N12   A    
C58   H31   S    
C12   H111  S    
C54   H28   S    
C43   C48   A    
C28   C98   A    
C19   H12   S    
N23   N25   A    
C83   H43   S    
C100  N17   A    
C27   C97   A    
C16   C95   S    
C52   H26   S    
C7    H92   S    
C29   C100  A    
C34   C38   D    
C38   H99   S    
C12   C92   S    
C2    C93   A    
C25   H21   S    
C86   H47   S    
N2    Ni1   S    
C57   C65   A    
C4    C5    S    
C8    H96   S    
C76   C81   A    
C8    H97   S    
C71   C74   A    
C7    H91   S    
C10   C90   S    
C17   H8    S    
C6    C7    S    
C107  H54   S    
C105  N22   A    
C114  H61   S    
C40   H2    S    
N5    N14   A    
C15   H117  S    
N24   Ni1   S    
C46   C116  S    
C22   H15   S    
C74   C79   A    
C8    C87   S    
C50   C113  S    
C56   H29   S    
C96   N14   A    
C18   H5    S    
C114  H62   S    
N1    N22   A    
C18   H6    S    
C42   H24   S    
C21   C98   S    
C120  H84   S    
C92   C110  A    
C73   H38   S    
C105  C109  A    
C60   C69   A    
C35   H66   S    
C68   C88   S    
C71   H36   S    
C108  H56   S    
C73   C76   A    
C30   H57   S    
N9    Ni5   S    
N29   Ni6   S    
C99   C104  A    
C119  H75   S    
C23   C25   S    
N20   N30   A    
C83   N32   A    
C60   H34   S    
C93   N10   A    
C49   C53   A    
C117  H73   S    
C3    C120  S    
C72   H37   S    
C62   N29   A    
C5    H85   S    
N8    N17   A    
C11   C91   S    
C58   C67   A    
C47   C117  S    
C48   C111  S    
C16   H120  S    
N32   Ni2   S    
C65   C66   S    
C13   C85   A    
N21   Ni7   S    
C3    H82   S    
C11   H106  S    
C31   C36   D    
C90   N7    A    
C70   C75   A    
C84   N2    A    
C44   H44   S    
C74   C110  S    
N12   Ni2   S    
N3    Ni4   S    
C14   H113  S    
C2    C75   S    
C18   H4    S    
C20   H10   S    
C54   C57   A    
