data_mof_unit_15076.cif
_audit_creation_date              2012-12-11T17:07:54-0500
_audit_creation_method            fapswitch 2.2
_symmetry_space_group_name_H-M    P1
_symmetry_Int_Tables_number       1
_space_group_crystal_system       triclinic
_cell_length_a                    17.403098
_cell_length_b                    17.219297
_cell_length_c                    18.045998
_cell_angle_alpha                 89.945299
_cell_angle_beta                  90.110546
_cell_angle_gamma                 90.274679
_cell_volume                      5407.75359096

loop_
_atom_site_label
_atom_site_type_symbol
_atom_type_description
_atom_site_fract_x
_atom_site_fract_y
_atom_site_fract_z
_atom_type_partial_charge
C1    C     C_R   0.407464 0.316047 0.871205 0.604298
C2    C     C_R   0.196049 0.893163 0.399745 0.571253
C3    C     C_R   0.702967 0.740178 0.347916 0.447656
C4    C     C_R   0.191740 0.303589 0.696432 0.394969
C5    C     C_R   0.299236 0.764443 0.672652 0.445900
C6    C     C_R   0.809081 0.712882 0.722921 0.480241
C7    C     C_R   0.720643 0.190670 0.728446 0.411628
C8    C     C_R   0.692936 0.202387 0.799179 0.422170
C9    C     C_R   0.798549 0.693150 0.796803 0.460631
C10   C     C_R   0.337679 0.741629 0.737673 0.399095
C11   C     C_R   0.223696 0.315672 0.765691 0.465310
C12   C     C_R   0.661096 0.710220 0.287506 0.417670
C13   C     C_R   0.103460 0.193878 0.389164 0.520871
C14   C     C_R   0.776368 0.320109 0.233830 0.429824
C15   C     C_R   0.316209 0.204158 0.211626 0.433091
C16   C     C_R   0.267328 0.657948 0.270988 0.408440
C17   C     C_3   0.397385 0.190330 0.906250 -0.189671
C18   C     C_3   0.795103 0.400914 0.976578 -0.357614
C19   C     C_3   0.635197 0.782029 0.989565 -0.135802
C20   C     C_3   0.209289 0.580464 0.960998 -0.234188
C21   C     C_3   0.440445 0.789598 0.047425 -0.295952
C22   C     C_3   0.788315 0.581699 0.048680 -0.302438
C23   C     C_3   0.575810 0.205243 0.061977 -0.216722
C24   C     C_R   0.805147 0.109400 0.395776 0.617777
C25   C     C_3   0.204082 0.395509 0.028025 -0.317030
C26   C     C_3   0.886616 0.672083 0.438362 -0.200634
C27   C     C_3   0.323264 0.880771 0.433792 -0.223859
C28   C     C_3   0.121116 0.321945 0.418918 -0.138566
C29   C     C_3   0.710826 0.053707 0.464613 -0.245669
C30   C     C_3   0.926678 0.295879 0.551486 -0.245364
C31   C     C_3   0.292514 0.059950 0.537234 -0.290226
C32   C     C_3   0.110041 0.674208 0.566962 -0.147636
C33   C     C_3   0.685727 0.864598 0.561438 -0.161755
C34   C     C_2   0.925711 0.135550 0.808256 0.456078
C35   C     C_R   0.902933 0.188468 0.621780 0.606890
C36   C     C_2   0.815423 0.954966 0.762168 0.512826
C37   C     C_2   0.129375 0.888694 0.772584 0.470237
C38   C     C_2   0.409679 0.203190 0.565384 0.598507
C39   C     C_2   0.842926 0.900661 0.235429 0.513314
C40   C     C_2   0.590425 0.171902 0.411635 0.527479
C41   C     C_2   0.078778 0.123256 0.216479 0.591673
C42   C     C_2   0.126653 0.884892 0.221498 0.390470
C43   C     C_2   0.306498 0.886167 0.109492 0.527848
C44   C     C_2   0.077783 0.296504 0.097744 0.450370
C45   C     C_2   0.578399 0.374113 0.324683 0.459393
C46   C     C_R   0.195159 0.110815 0.603796 0.615865
C47   C     C_2   0.863285 0.737941 0.099163 0.431902
C48   C     C_2   0.421977 0.384497 0.685743 0.440678
C49   C     C_2   0.108937 0.712131 0.896177 0.496389
C50   C     C_2   0.640835 0.912005 0.874663 0.465767
C51   C     C_2   0.922708 0.338047 0.891353 0.541436
C52   C     C_2   0.984987 0.264117 0.768362 0.798300
C53   C     C_2   0.674765 0.962072 0.731699 0.537462
C54   C     C_2   0.037972 0.773436 0.769625 0.591555
C55   C     C_2   0.345411 0.332514 0.553884 0.614145
C56   C     C_2   0.943578 0.797128 0.218847 0.590335
C57   C     C_R   0.105317 0.802736 0.600540 0.594436
C58   C     C_2   0.642597 0.301989 0.452250 0.488073
C59   C     C_2   0.023739 0.254970 0.237475 0.702555
C60   C     C_2   0.249776 0.959526 0.236266 0.532265
C61   C     C_2   0.187465 0.802894 0.099131 0.621847
C62   C     C_2   0.148759 0.171771 0.079438 0.582458
C63   C     C_2   0.516826 0.245134 0.290726 0.688538
C64   C     C_2   0.758897 0.838080 0.115026 0.475089
C65   C     C_2   0.484761 0.252668 0.700600 0.705518
C66   C     C_2   0.196781 0.828164 0.903581 0.574941
C67   C     C_2   0.782443 0.894900 0.902021 0.624262
C68   C     C_R   0.805608 0.894230 0.606605 0.546802
C69   C     C_2   0.876087 0.209394 0.940468 0.472243
C70   C     C_3   0.267566 0.654372 0.445157 -0.297284
C71   C     C_3   0.379726 0.114390 0.343679 0.039966
C72   C     C_3   0.872864 0.398755 0.361160 -0.122840
C73   C     C_3   0.664715 0.675161 0.451520 -0.267384
C74   C     C_3   0.130792 0.402182 0.639263 -0.119845
C75   C     C_3   0.382970 0.723579 0.581841 -0.219430
C76   C     C_3   0.799869 0.623526 0.631652 -0.187124
C77   C     C_3   0.661534 0.219231 0.619911 -0.093042
C78   C     C_3   0.637156 0.112572 0.872805 -0.080860
C79   C     C_3   0.916219 0.223303 0.803030 -0.382078
C80   C     C_3   0.887203 0.656154 0.882015 -0.003283
C81   C     C_3   0.447706 0.813694 0.744247 -0.159726
C82   C     C_3   0.164718 0.283939 0.873219 -0.180939
C83   C     C_3   0.536423 0.747482 0.303779 -0.130343
C84   C     C_3   0.843490 0.296231 0.129603 -0.077511
C85   C     C_3   0.374606 0.114324 0.139339 -0.131857
C86   C     C_3   0.215808 0.534845 0.274716 -0.056463
C87   C     C_3   0.737947 0.914130 0.767591 -0.314290
C88   C     C_3   0.119988 0.801392 0.783111 -0.301912
C89   C     C_R   0.695737 0.392106 0.896774 0.622157
C90   C     C_3   0.371051 0.268572 0.606830 -0.293675
C91   C     C_3   0.858298 0.815460 0.219376 -0.265310
C92   C     C_3   0.627460 0.247549 0.387354 -0.201865
C93   C     C_3   0.092439 0.209797 0.209016 -0.333334
C94   C     C_3   0.213286 0.881767 0.218574 -0.209666
C95   C     C_3   0.247247 0.838418 0.150811 -0.235812
C96   C     C_3   0.126955 0.235551 0.134147 -0.190115
C97   C     C_3   0.587539 0.286287 0.320061 -0.354329
C98   C     C_3   0.812699 0.781120 0.153070 -0.217182
C99   C     C_3   0.412884 0.296741 0.678083 -0.367644
C100  C     C_R   0.608708 0.696371 0.897267 0.586794
C101  C     C_3   0.159660 0.767839 0.853228 -0.250972
C102  C     C_3   0.717808 0.883567 0.845637 -0.243375
C103  C     C_3   0.882543 0.262110 0.872921 -0.229533
C104  C     C_R   0.403085 0.693114 0.885020 -0.140006
C105  C     C_R   0.320277 0.411107 0.866903 -0.230387
C106  C     C_R   0.603992 0.302845 0.897939 -0.168276
C107  C     C_R   0.694123 0.600780 0.889585 -0.224100
C108  C     C_R   0.397732 0.302807 0.103803 -0.167301
C109  C     C_R   0.311618 0.594197 0.121698 -0.143008
C110  C     C_R   0.589669 0.682983 0.130566 -0.173950
C111  C     C_R   0.309287 0.604518 0.884814 0.521675
C112  C     C_R   0.677778 0.413441 0.134690 -0.244743
C113  C     C_R   0.898461 0.197019 0.395912 -0.235149
C114  C     C_R   0.803342 0.891432 0.399854 -0.246248
C115  C     C_R   0.104003 0.803327 0.395188 -0.174483
C116  C     C_R   0.190353 0.099299 0.382710 -0.282685
C117  C     C_R   0.899540 0.807420 0.615047 -0.123319
C118  C     C_R   0.814311 0.094157 0.625297 -0.259151
C119  C     C_R   0.103043 0.198387 0.600549 -0.179822
C120  C     C_R   0.195491 0.894346 0.605121 -0.210393
C121  C     C_R   0.342489 0.341742 0.834758 -0.019969
C122  C     C_R   0.399397 0.689349 0.119418 0.554591
C123  C     C_R   0.680439 0.314390 0.880856 -0.068993
C124  C     C_R   0.683183 0.678171 0.873497 -0.077985
C125  C     C_R   0.331087 0.677064 0.858633 0.064328
C126  C     C_R   0.330809 0.665039 0.150299 0.060650
C127  C     C_R   0.659541 0.663391 0.159905 0.024630
C128  C     C_R   0.656031 0.344272 0.166539 -0.004366
C129  C     C_R   0.322428 0.313144 0.123748 -0.076653
C130  C     C_R   0.817570 0.813913 0.388264 -0.061470
C131  C     C_R   0.179737 0.817833 0.379617 -0.066358
C132  C     C_R   0.174530 0.174083 0.360162 0.018688
C133  C     C_R   0.686322 0.598314 0.124297 0.545628
C134  C     C_R   0.822589 0.186575 0.378793 -0.032626
C135  C     C_R   0.836084 0.164862 0.655460 0.002781
C136  C     C_R   0.178658 0.188628 0.618272 -0.025226
C137  C     C_R   0.180232 0.817628 0.620673 -0.035837
C138  C     C_R   0.824704 0.822952 0.636673 -0.023143
C139  C     C_R   0.807849 0.276966 0.829762 0.046574
C140  C     C_R   0.712018 0.802007 0.812121 0.014694
C141  C     C_R   0.214299 0.725761 0.801028 0.044770
C142  C     C_R   0.343929 0.266542 0.718734 0.109848
C143  C     C_R   0.773784 0.727084 0.208508 0.037175
C144  C     C_R   0.592820 0.316113 0.128825 0.612228
C145  C     C_R   0.657924 0.264068 0.277799 0.103015
C146  C     C_R   0.197153 0.268423 0.175415 0.035850
C147  C     C_R   0.281965 0.781952 0.206466 0.035295
C148  C     C_R   0.248328 0.818167 0.264655 0.045986
C149  C     C_R   0.165721 0.240878 0.241389 0.010889
C150  C     C_R   0.695744 0.230593 0.337304 0.054410
C151  C     C_R   0.812376 0.759873 0.266500 0.054463
C152  C     C_R   0.306613 0.237620 0.655875 0.074397
C153  C     C_R   0.178430 0.755651 0.739859 0.067574
C154  C     C_R   0.736070 0.829986 0.743804 0.144301
C155  C     C_R   0.305248 0.390467 0.105762 0.613677
C156  C     C_R   0.841667 0.245007 0.767160 0.087156
C157  C     C_R   0.730795 0.256746 0.846061 -0.094059
C158  C     C_R   0.739346 0.730004 0.837691 -0.122010
C159  C     C_R   0.294207 0.719983 0.800957 -0.100467
C160  C     C_R   0.302604 0.303080 0.775177 -0.251774
C161  C     C_R   0.697505 0.704088 0.217919 -0.083014
C162  C     C_R   0.697657 0.305908 0.224218 -0.213206
C163  C     C_R   0.275547 0.253996 0.162115 -0.125727
C164  C     C_R   0.289998 0.701765 0.208117 -0.116049
C165  C     C_R   0.222078 0.776685 0.325786 -0.201677
C166  C     C_R   0.893900 0.801346 0.403972 0.663181
C167  C     C_R   0.211341 0.209884 0.297634 -0.161389
C168  C     C_R   0.773909 0.246922 0.347695 -0.093585
C169  C     C_R   0.776989 0.769528 0.334857 -0.185097
C170  C     C_R   0.227603 0.250636 0.647918 -0.136282
C171  C     C_R   0.219730 0.775434 0.676379 -0.205831
C172  C     C_R   0.784764 0.786117 0.697938 -0.220787
C173  C     C_R   0.798311 0.204785 0.714622 -0.210504
C174  C     C_R   0.234049 0.696533 0.331082 0.471267
C175  C     C_R   0.288756 0.194054 0.284196 0.429214
C176  C     C_R   0.809755 0.302748 0.301248 0.419409
H1    H     H_    0.435175 0.746760 0.881224 0.179321
H2    H     H_    0.748900 0.920133 0.392338 0.188695
H3    H     H_    0.440157 0.127018 0.357835 0.158572
H4    H     H_    0.378056 0.082372 0.290914 0.174875
H5    H     H_    0.359864 0.075386 0.388470 0.124886
H6    H     H_    0.846611 0.382772 0.415282 0.127619
H7    H     H_    0.838271 0.444532 0.333224 0.136006
H8    H     H_    0.930583 0.423555 0.372800 0.169233
H9    H     H_    0.720963 0.644821 0.452255 0.111059
H10   H     H_    0.620381 0.637889 0.424877 0.203482
H11   H     H_    0.647082 0.683847 0.509952 0.153532
H12   H     H_    0.158443 0.388930 0.585217 0.105085
H13   H     H_    0.073850 0.748774 0.389238 0.235443
H14   H     H_    0.164866 0.446678 0.669952 0.130428
H15   H     H_    0.073545 0.427348 0.627238 0.179954
H16   H     H_    0.353334 0.666349 0.587436 0.116919
H17   H     H_    0.440216 0.722009 0.608729 0.204555
H18   H     H_    0.394334 0.733584 0.522165 0.130810
H19   H     H_    0.767918 0.664258 0.595062 0.092220
H20   H     H_    0.758917 0.587171 0.664134 0.151450
H21   H     H_    0.833365 0.584156 0.595527 0.164111
H22   H     H_    0.661854 0.279825 0.641858 0.100361
H23   H     H_    0.604776 0.210248 0.593868 0.187276
H24   H     H_    0.237931 0.063752 0.367525 0.202846
H25   H     H_    0.706633 0.213792 0.576994 0.155883
H26   H     H_    0.654673 0.140624 0.925639 0.133828
H27   H     H_    0.682057 0.070308 0.856209 0.092327
H28   H     H_    0.582822 0.080473 0.883037 0.187264
H29   H     H_    0.852855 0.678673 0.928782 0.148887
H30   H     H_    0.928210 0.701577 0.863085 0.158893
H31   H     H_    0.921044 0.606172 0.902710 0.142430
H32   H     H_    0.420475 0.847827 0.789502 0.137169
H33   H     H_    0.442214 0.845326 0.690872 0.192457
H34   H     H_    0.509899 0.809410 0.757134 0.175552
H35   H     H_    0.932340 0.755764 0.624429 0.250465
H36   H     H_    0.218026 0.269731 0.904300 0.101296
H37   H     H_    0.141751 0.230520 0.846275 0.120919
H38   H     H_    0.121370 0.303486 0.913821 0.212520
H39   H     H_    0.549142 0.794899 0.263468 0.142384
H40   H     H_    0.538063 0.770530 0.361182 0.161825
H41   H     H_    0.476802 0.727335 0.292846 0.159402
H42   H     H_    0.793088 0.272908 0.098669 0.131547
H43   H     H_    0.873958 0.247894 0.157893 0.133758
H44   H     H_    0.883975 0.322037 0.089116 0.194489
H45   H     H_    0.351133 0.138095 0.086684 0.131057
H46   H     H_    0.762782 0.061044 0.635265 0.202072
H47   H     H_    0.335803 0.068045 0.160119 0.154353
H48   H     H_    0.430743 0.087210 0.126691 0.177490
H49   H     H_    0.170325 0.559913 0.238343 0.120561
H50   H     H_    0.193532 0.526604 0.331749 0.172382
H51   H     H_    0.229287 0.476315 0.252754 0.161617
H52   H     H_    0.074500 0.252586 0.591408 0.213588
H53   H     H_    0.249414 0.924485 0.612982 0.200326
H54   H     H_    0.339854 0.181062 0.880701 0.148007
H55   H     H_    0.391284 0.208641 0.965067 0.082852
H56   H     H_    0.427650 0.133785 0.906044 0.186592
H57   H     H_    0.271319 0.446033 0.852633 0.234774
H58   H     H_    0.800843 0.337283 0.980610 0.173521
H59   H     H_    0.757143 0.418790 0.020985 0.177294
H60   H     H_    0.851426 0.429076 0.987354 0.197327
H61   H     H_    0.686696 0.815311 0.975339 0.164834
H62   H     H_    0.658585 0.729540 0.016551 0.096160
H63   H     H_    0.602063 0.816580 0.029973 0.203049
H64   H     H_    0.212063 0.640726 0.982931 0.190910
H65   H     H_    0.243794 0.542849 0.997219 0.157881
H66   H     H_    0.148865 0.559924 0.963578 0.189599
H67   H     H_    0.386201 0.788933 0.014737 0.197258
H68   H     H_    0.574409 0.248751 0.904210 0.217582
H69   H     H_    0.483743 0.753633 0.019407 0.183452
H70   H     H_    0.462540 0.850099 0.048619 0.199594
H71   H     H_    0.779559 0.640923 0.026058 0.133786
H72   H     H_    0.756920 0.541463 0.012614 0.173626
H73   H     H_    0.850247 0.567060 0.046427 0.187778
H74   H     H_    0.635417 0.212873 0.040623 0.139439
H75   H     H_    0.533051 0.227866 0.021922 0.109898
H76   H     H_    0.565145 0.141997 0.067924 0.191216
H77   H     H_    0.201853 0.331282 0.023582 0.116515
H78   H     H_    0.239556 0.417728 0.982711 0.177193
H79   H     H_    0.746018 0.567644 0.887352 0.235756
H80   H     H_    0.145819 0.419596 0.019299 0.199714
H81   H     H_    0.849847 0.646656 0.394229 0.145571
H82   H     H_    0.851565 0.692281 0.486080 0.112607
H83   H     H_    0.924341 0.625106 0.459200 0.163910
H84   H     H_    0.344410 0.838946 0.391893 0.157719
H85   H     H_    0.302097 0.850068 0.483967 0.167066
H86   H     H_    0.373144 0.916830 0.451004 0.167414
H87   H     H_    0.166006 0.336178 0.377358 0.175698
H88   H     H_    0.147510 0.302834 0.472015 0.156959
H89   H     H_    0.089029 0.376108 0.430400 0.140514
H90   H     H_    0.427281 0.249206 0.096555 0.213276
H91   H     H_    0.707622 0.104785 0.501831 0.169214
H92   H     H_    0.749893 0.010277 0.488312 0.183105
H93   H     H_    0.653050 0.026423 0.461909 0.193496
H94   H     H_    0.868189 0.288574 0.527150 0.158415
H95   H     H_    0.971405 0.271180 0.515067 0.145713
H96   H     H_    0.938174 0.359125 0.555785 0.180497
H97   H     H_    0.293538 0.112468 0.501342 0.193805
H98   H     H_    0.256209 0.014406 0.511987 0.186997
H99   H     H_    0.351841 0.037027 0.540789 0.184755
H100  H     H_    0.158774 0.656357 0.602784 0.128053
H101  H     H_    0.258830 0.562050 0.128998 0.188301
H102  H     H_    0.130366 0.692718 0.511473 0.155669
H103  H     H_    0.072938 0.622348 0.558831 0.167737
H104  H     H_    0.663768 0.824350 0.604617 0.164597
H105  H     H_    0.716371 0.831414 0.518051 0.163974
H106  H     H_    0.635426 0.892618 0.534942 0.182130
H107  H     H_    0.882048 0.100884 0.835721 0.052027
H108  H     H_    0.817346 0.017507 0.757360 -0.033374
H109  H     H_    0.186405 0.914561 0.773905 0.048761
H110  H     H_    0.427886 0.151238 0.594356 0.088589
H111  H     H_    0.784528 0.920298 0.244555 0.080199
H112  H     H_    0.558266 0.735099 0.141886 0.206657
H113  H     H_    0.586570 0.123610 0.373179 0.101030
H114  H     H_    0.116683 0.087188 0.248840 0.027065
H115  H     H_    0.094597 0.840712 0.250749 0.082155
H116  H     H_    0.361739 0.898364 0.135015 0.100228
H117  H     H_    0.083432 0.356976 0.113524 0.125387
H118  H     H_    0.627861 0.410320 0.337802 0.046413
H119  H     H_    0.887089 0.682184 0.114834 0.099557
H120  H     H_    0.371649 0.421458 0.682688 0.022001
H121  H     H_    0.095261 0.655506 0.873135 0.101170
H122  H     H_    0.588439 0.899574 0.844119 0.106276
H123  H     H_    0.726188 0.448798 0.149526 0.243371
H124  H     H_    0.905426 0.391331 0.863900 0.132366
H125  H     H_    0.038888 0.233765 0.761746 0.040536
H126  H     H_    0.678378 0.024720 0.732617 0.065824
H127  H     H_    0.989980 0.810036 0.784828 0.106439
H128  H     H_    0.379868 0.384638 0.546862 -0.002861
H129  H     H_    0.980142 0.827089 0.179487 0.085150
H130  H     H_    0.594188 0.323422 0.483943 0.052644
H131  H     H_    0.970070 0.224976 0.248658 0.031789
H132  H     H_    0.220718 0.012938 0.222140 0.048383
H133  H     H_    0.152676 0.840931 0.065019 0.086484
H134  H     H_    0.929343 0.250578 0.400547 0.231944
H135  H     H_    0.129314 0.174648 0.022301 0.036889
H136  H     H_    0.460264 0.269575 0.299476 0.098296
H137  H     H_    0.778748 0.870595 0.067213 0.095163
H138  H     H_    0.540126 0.281470 0.699618 0.036693
H139  H     H_    0.160669 0.870845 0.930496 0.065044
H140  H     H_    0.788652 0.950467 0.929808 0.031861
H141  H     H_    0.928140 0.190558 0.968186 0.115324
H142  H     H_    0.271819 0.712257 0.471735 0.154629
H143  H     H_    0.324023 0.636710 0.421628 0.169767
H144  H     H_    0.252466 0.611525 0.488746 0.163725
N1    N     N_R   0.425360 0.368540 0.922560 -0.106494
N2    N     N_R   0.131460 0.925360 0.422560 -0.108115
N3    N     N_R   0.074640 0.131460 0.422560 -0.097974
N4    N     N_R   0.868540 0.074640 0.422560 -0.095635
N5    N     N_R   0.925360 0.131460 0.577440 -0.102213
N6    N     N_R   0.131460 0.074640 0.577440 -0.094100
N7    N     N_R   0.074640 0.868540 0.577440 -0.087757
N8    N     N_R   0.868540 0.925360 0.577440 -0.090989
N9    N     N_R   0.425340 0.631500 0.922560 -0.093930
N10   N     N_R   0.368500 0.425340 0.922560 -0.090615
N11   N     N_R   0.574660 0.368500 0.922560 -0.083894
N12   N     N_R   0.631460 0.425360 0.922560 -0.096115
N13   N     N_R   0.631500 0.574660 0.922560 -0.078465
N14   N     N_R   0.425340 0.368500 0.077440 -0.086748
N15   N     N_R   0.368500 0.574660 0.077440 -0.093017
N16   N     N_R   0.574660 0.631500 0.077440 -0.089266
N17   N     N_R   0.631500 0.425340 0.077440 -0.091999
N18   N     N_R   0.925340 0.131500 0.422560 -0.083845
N19   N     N_R   0.868500 0.925340 0.422560 -0.070805
N20   N     N_R   0.074660 0.868500 0.422560 -0.083896
N21   N     N_R   0.131500 0.074660 0.422560 -0.081940
N22   N     N_R   0.925340 0.868500 0.577440 -0.081536
N23   N     N_R   0.574640 0.631460 0.922560 -0.088589
N24   N     N_R   0.868500 0.074660 0.577440 -0.080920
N25   N     N_R   0.074660 0.131500 0.577440 -0.078865
N26   N     N_R   0.131500 0.925340 0.577440 -0.072126
N27   N     N_R   0.368540 0.574640 0.922560 -0.103323
N28   N     N_R   0.425360 0.631460 0.077440 -0.104778
N29   N     N_R   0.631460 0.574640 0.077440 -0.105393
N30   N     N_R   0.574640 0.368540 0.077440 -0.112793
N31   N     N_R   0.368540 0.425360 0.077440 -0.094005
N32   N     N_R   0.925360 0.868540 0.422560 -0.096024
Ni1   Ni    Ni4+2 0.500000 0.369720 0.000000 0.202928
Ni2   Ni    Ni4+2 0.630280 0.500000 0.000000 0.209563
Ni3   Ni    Ni4+2 0.500000 0.630280 0.000000 0.216423
Ni4   Ni    Ni4+2 0.369720 0.500000 0.000000 0.211863
Ni5   Ni    Ni4+2 0.000000 0.869720 0.500000 0.274639
Ni6   Ni    Ni4+2 0.130280 0.000000 0.500000 0.229977
Ni7   Ni    Ni4+2 0.000000 0.130280 0.500000 0.221958
Ni8   Ni    Ni4+2 0.869720 0.000000 0.500000 0.232470
O1    O     O_3   0.441158 0.244139 0.865118 -0.612293
O2    O     O_3   0.266850 0.930100 0.403543 -0.640499
O3    O     O_3   0.069011 0.266026 0.391561 -0.652373
O4    O     O_3   0.733058 0.075866 0.392650 -0.662110
O5    O     O_3   0.931836 0.263211 0.622660 -0.611001
O6    O     O_3   0.267090 0.077966 0.608969 -0.641264
O7    O     O_3   0.065926 0.732711 0.600431 -0.613970
O8    O     O_3   0.732896 0.922882 0.592740 -0.667622
O9    O     O_2   0.981083 0.102632 0.781415 -0.544533
O10   O     O_2   0.875791 0.919360 0.766768 -0.530041
O11   O     O_2   0.074067 0.930766 0.762190 -0.516651
O12   O     O_3   0.767709 0.423985 0.906464 -0.653231
O13   O     O_2   0.418953 0.206734 0.498422 -0.551741
O14   O     O_2   0.895240 0.948127 0.238512 -0.537380
O15   O     O_2   0.564766 0.163188 0.473830 -0.624489
O16   O     O_2   0.024162 0.092873 0.185117 -0.502022
O17   O     O_2   0.091814 0.935196 0.187847 -0.526041
O18   O     O_2   0.291614 0.915815 0.049712 -0.575842
O19   O     O_2   0.025461 0.277174 0.056698 -0.595492
O20   O     O_2   0.516556 0.405275 0.313445 -0.569730
O21   O     O_2   0.883744 0.767748 0.041075 -0.551083
O22   O     O_2   0.484817 0.414802 0.695256 -0.593476
O23   O     O_3   0.589383 0.767655 0.925842 -0.685376
O24   O     O_2   0.079697 0.731095 0.954874 -0.572967
O25   O     O_2   0.636141 0.947946 0.932815 -0.634948
O26   O     O_2   0.978218 0.340010 0.932478 -0.587564
O27   O     O_2   0.980932 0.331725 0.748039 -0.516068
O28   O     O_2   0.617661 0.931587 0.704748 -0.577123
O29   O     O_2   0.024641 0.708577 0.745242 -0.544173
O30   O     O_2   0.289316 0.323378 0.514100 -0.600759
O31   O     O_2   0.971147 0.747325 0.258932 -0.581226
O32   O     O_2   0.707409 0.322382 0.469699 -0.643276
O33   O     O_2   0.027605 0.324994 0.248113 -0.532536
O34   O     O_3   0.234771 0.577079 0.887062 -0.654577
O35   O     O_2   0.314252 0.962943 0.262789 -0.622959
O36   O     O_2   0.176503 0.732934 0.095874 -0.603935
O37   O     O_2   0.188941 0.117173 0.098199 -0.614331
O38   O     O_2   0.522373 0.182538 0.259429 -0.543680
O39   O     O_2   0.695094 0.851778 0.139740 -0.622225
O40   O     O_2   0.481721 0.184779 0.720275 -0.515442
O41   O     O_2   0.265946 0.829996 0.914630 -0.591505
O42   O     O_2   0.829125 0.843984 0.914885 -0.552982
O43   O     O_2   0.814097 0.186879 0.963906 -0.628228
O44   O     O_3   0.208619 0.654950 0.391757 -0.618857
O45   O     O_3   0.427564 0.764410 0.120733 -0.674439
O46   O     O_3   0.337578 0.184396 0.344932 -0.601204
O47   O     O_3   0.881641 0.333212 0.315286 -0.575730
O48   O     O_3   0.669628 0.748489 0.416885 -0.633961
O49   O     O_3   0.120451 0.334513 0.682150 -0.569090
O50   O     O_3   0.338481 0.785927 0.608810 -0.636050
O51   O     O_3   0.851246 0.663410 0.678754 -0.560071
O52   O     O_3   0.671243 0.161910 0.675049 -0.595570
O53   O     O_3   0.623704 0.167837 0.816675 -0.574538
O54   O     O_3   0.839709 0.630601 0.823538 -0.610695
O55   O     O_3   0.417137 0.737670 0.739119 -0.632596
O56   O     O_3   0.762535 0.576487 0.122352 -0.637263
O57   O     O_3   0.177663 0.344288 0.821646 -0.573190
O58   O     O_3   0.586351 0.683544 0.296180 -0.611628
O59   O     O_3   0.821107 0.354556 0.179757 -0.597448
O60   O     O_3   0.386356 0.173018 0.192994 -0.607199
O61   O     O_3   0.284298 0.579379 0.275621 -0.610099
O62   O     O_3   0.566443 0.240489 0.131669 -0.583142
O63   O     O_3   0.232153 0.419623 0.097608 -0.663235
O64   O     O_3   0.933388 0.731736 0.409321 -0.607538

loop_
_geom_bond_atom_site_label_1
_geom_bond_atom_site_label_2
_ccdc_geom_bond_type
C81   H33   S    
N20   Ni5   S    
N2    Ni6   S    
C80   O54   S    
C66   C101  S    
C112  N17   A    
C73   H10   S    
C33   O8    S    
C66   H139  S    
C47   C98   S    
C135  C173  S    
C15   C163  A    
C83   O58   S    
C53   H126  S    
C147  C164  A    
C73   O48   S    
C18   H60   S    
C20   O34   S    
N11   Ni1   S    
C119  N25   A    
C69   H141  S    
C49   O24   D    
C118  N24   A    
C12   C161  A    
C74   H14   S    
C52   O27   D    
C68   C138  A    
C31   O6    S    
C26   H83   S    
C124  C158  S    
C111  C125  A    
N18   Ni7   S    
C64   O39   D    
C175  O46   S    
C154  C172  A    
C143  C151  A    
C36   C87   S    
C148  C165  A    
C114  C130  A    
C22   O56   S    
C107  C124  A    
C8    C157  A    
C39   C91   S    
C51   H124  S    
C25   H80   S    
N23   Ni3   S    
C20   H65   S    
C113  H134  S    
C156  C173  A    
C112  H123  S    
N19   Ni8   S    
C24   N4    A    
C12   O58   S    
C65   C99   S    
C90   C152  S    
C19   H62   S    
C37   H109  S    
C109  N15   A    
N31   Ni4   S    
C3    C169  A    
C39   H111  S    
C106  N11   A    
C10   O55   S    
C111  O34   S    
C100  C124  A    
C23   H76   S    
C32   H100  S    
C76   H19   S    
C152  C170  A    
C1    N1    A    
N14   N31   A    
C150  C168  A    
C128  C162  S    
C2    C131  A    
C95   C147  S    
C40   H113  S    
C18   H58   S    
C25   O63   S    
C49   H121  S    
C128  C144  A    
C26   O64   S    
N15   N28   A    
C84   H42   S    
C59   O33   D    
C28   O3    S    
C5    O50   S    
C24   C134  A    
N9    Ni3   S    
C97   C145  S    
C52   H125  S    
N4    Ni8   S    
C114  N19   A    
C17   H54   S    
N6    Ni6   S    
N8    Ni8   S    
C38   C90   S    
C119  C136  A    
C29   H93   S    
C70   H144  S    
C50   H122  S    
C54   C88   S    
C26   H81   S    
C9    C158  A    
C69   O43   D    
C51   O26   D    
C47   O21   D    
C91   C98   S    
C85   H48   S    
N1    Ni1   S    
C115  H13   S    
C15   O60   S    
C67   H140  S    
C139  C157  A    
C29   H92   S    
C58   O32   D    
C54   O29   D    
N12   Ni2   S    
C143  C161  A    
C174  O44   S    
C144  O62   S    
C80   H30   S    
C17   O1    S    
C118  H46   S    
C71   H5    S    
C78   O53   S    
C144  N30   A    
C147  C148  A    
C104  N9    A    
C67   O42   D    
C59   H131  S    
C83   H40   S    
C7    C8    A    
C6    C172  A    
C16   C164  A    
C4    C170  A    
C81   O55   S    
C32   O7    S    
C23   H74   S    
C76   H21   S    
C117  N22   A    
C55   H128  S    
C130  C169  S    
C166  N32   A    
C100  O23   S    
C89   N12   A    
C110  N16   A    
C84   H44   S    
C140  C158  A    
C141  C159  A    
C114  H2    S    
C14   C176  A    
C100  N23   A    
C37   O11   D    
N27   Ni4   S    
C55   O30   D    
C47   H119  S    
C77   H22   S    
C145  C150  A    
C48   H120  S    
C21   H67   S    
C45   O20   D    
C86   H51   S    
C75   O50   S    
C79   C103  S    
C19   O23   S    
C17   H56   S    
C92   C97   S    
C82   H36   S    
C69   C103  S    
C94   C148  S    
C60   O35   D    
C107  H79   S    
C30   H96   S    
C78   H27   S    
C70   H142  S    
C35   C135  A    
C25   H77   S    
N10   Ni4   S    
C123  C157  S    
C165  C174  A    
C20   H64   S    
C27   H86   S    
N2    N20   A    
C28   H89   S    
C71   H4    S    
C61   C95   S    
C44   C96   S    
C19   H63   S    
C34   C79   S    
C82   H37   S    
C104  H1    S    
C116  C132  A    
C13   O3    S    
C108  C129  A    
C57   C137  A    
N13   Ni2   S    
C53   C87   S    
C32   H103  S    
C136  C170  S    
C77   O52   S    
C134  C168  S    
C90   C99   S    
C38   H110  S    
C167  C175  A    
C16   C174  A    
C168  C176  A    
C42   H115  S    
C66   O41   D    
C76   O51   S    
C155  O63   S    
C77   H25   S    
C54   H127  S    
C73   H9    S    
C21   H70   S    
C28   H87   S    
C96   C146  S    
C35   O5    S    
C89   O12   S    
C63   C97   S    
C31   H98   S    
C141  C153  A    
C86   O61   S    
C115  N20   A    
C8    O53   S    
C1    C121  A    
C74   H15   S    
N6    N25   A    
C75   H18   S    
C109  C126  A    
C131  C165  S    
C86   H49   S    
C63   H136  S    
N16   N29   A    
N22   Ni5   S    
C58   C92   S    
N29   Ni2   S    
C74   O49   S    
C33   H104  S    
C60   C94   S    
C62   C96   S    
C23   O62   S    
C45   H118  S    
C37   C88   S    
C93   C149  S    
C117  C138  A    
C149  C167  A    
C132  C167  S    
C68   N8    A    
C31   H99   S    
C53   O28   D    
C41   H114  S    
C20   H66   S    
C27   H84   S    
C43   O18   D    
C111  N27   A    
C19   H61   S    
C49   C101  S    
C83   H41   S    
C70   O44   S    
C62   O37   D    
C51   C103  S    
C56   O31   D    
C129  C163  S    
C108  N14   A    
C13   N3    A    
C142  C152  A    
N26   Ni6   S    
C23   H75   S    
C76   H20   S    
C73   H11   S    
C33   H106  S    
C56   C91   S    
C41   C93   S    
C104  C125  A    
C64   H137  S    
C121  C160  S    
C43   C95   S    
C82   O57   S    
C44   O19   D    
C133  O56   S    
C64   C98   S    
C81   H34   S    
C34   H107  S    
N25   Ni7   S    
C122  N28   A    
C9    O54   S    
C6    C9    A    
N24   Ni8   S    
C11   C160  A    
C74   H12   S    
N3    N21   A    
C30   H95   S    
C138  C172  S    
C117  H35   S    
C35   N5    A    
C106  H68   S    
C129  C155  A    
C85   O60   S    
C18   H59   S    
N30   Ni1   S    
C48   O22   D    
N1    N10   A    
C1    O1    S    
C14   C162  A    
N11   N12   A    
C146  C149  A    
C130  C166  A    
C109  H101  S    
C26   H82   S    
C36   O10   D    
C87   C154  S    
C102  C140  S    
C4    C11   A    
C85   H47   S    
C72   H8    S    
N5    N24   A    
C81   H32   S    
C50   C102  S    
C44   H117  S    
N16   Ni3   S    
C92   C150  S    
C29   H91   S    
C107  N13   A    
C31   H97   S    
C32   H102  S    
C120  N26   A    
C68   O8    S    
C14   O59   S    
C48   C99   S    
C42   C94   S    
C127  C133  A    
C72   H7    S    
C151  C169  A    
C120  H53   S    
C83   H39   S    
C125  C159  S    
C29   O4    S    
C15   C175  A    
C55   C90   S    
C6    O51   S    
C56   H129  S    
C4    O49   S    
C22   H72   S    
C166  O64   S    
N17   N30   A    
N7    N26   A    
N19   N32   A    
C94   C95   S    
C112  C128  A    
C30   O5    S    
C122  O45   S    
N17   Ni2   S    
C65   O40   D    
C120  C137  A    
C27   O2    S    
C10   C159  A    
C2    O2    S    
C118  C135  A    
C133  N29   A    
C50   O25   D    
C98   C143  S    
C99   C142  S    
C16   O61   S    
C72   O47   S    
C88   C101  S    
C17   H55   S    
N3    Ni7   S    
C115  C131  A    
C57   N7    A    
C105  N10   A    
C84   O59   S    
C78   H28   S    
C70   H143  S    
C46   O6    S    
C22   H71   S    
C116  H24   S    
C145  C162  A    
C27   H85   S    
C71   H3    S    
C3    C12   A    
C79   C156  S    
C82   H38   S    
N9    N27   A    
C101  C141  S    
C2    N2    A    
C106  C123  A    
C61   O36   D    
C39   O14   D    
C155  N31   A    
C110  C127  A    
C80   H29   S    
N7    Ni5   S    
C127  C161  S    
N32   Ni5   S    
C57   O7    S    
C126  C164  S    
C63   O38   D    
C113  N18   A    
N5    Ni7   S    
C41   O16   D    
C33   H105  S    
C46   N6    A    
N15   Ni4   S    
C40   O15   D    
C119  H52   S    
C36   H108  S    
C22   H73   S    
C65   H138  S    
C21   H69   S    
C89   C123  A    
C62   H135  S    
C28   H88   S    
C42   O17   D    
C116  N21   A    
C122  C126  A    
C108  H90   S    
C84   H43   S    
C103  C139  S    
C60   H132  S    
C87   C102  S    
N28   Ni3   S    
C61   H133  S    
C43   H116  S    
C153  C171  A    
N14   Ni1   S    
C5    C171  A    
C105  C121  A    
C40   C92   S    
C34   O9    D    
C77   H23   S    
C3    O48   S    
C75   H17   S    
C93   C96   S    
C86   H50   S    
C71   O46   S    
C52   C79   S    
C11   O57   S    
C176  O47   S    
C38   O13   D    
C105  H57   S    
C7    O52   S    
C78   H26   S    
C142  C160  A    
N8    N22   A    
C25   H78   S    
C24   O4    S    
C21   O45   S    
C146  C163  A    
C13   C132  A    
C113  C134  A    
N4    N18   A    
C88   C153  S    
C75   H16   S    
C72   H6    S    
C5    C10   A    
C58   H130  S    
C45   C97   S    
C91   C151  S    
C85   H45   S    
C139  C156  A    
C7    C173  A    
C137  C171  S    
C46   C136  A    
C80   H31   S    
C110  H112  S    
C30   H94   S    
N13   N23   A    
C18   O12   S    
C59   C93   S    
N21   Ni6   S    
C67   C102  S    
C140  C154  A    
