data_mof_unit_25380.cif
_audit_creation_date              2013-03-05T15:58:28-0500
_audit_creation_method            fapswitch 2.2
_symmetry_space_group_name_H-M    P1
_symmetry_Int_Tables_number       1
_space_group_crystal_system       triclinic
_cell_length_a                    11.546652
_cell_length_b                    12.659209
_cell_length_c                    13.184501
_cell_angle_alpha                 82.010948
_cell_angle_beta                  91.103593
_cell_angle_gamma                 102.789834
_cell_volume                      1861.00944415

loop_
_atom_site_label
_atom_site_type_symbol
_atom_site_description
_atom_site_fract_x
_atom_site_fract_y
_atom_site_fract_z
_atom_type_partial_charge
O1    O     O_R   0.471500 0.366730 0.627160 -0.612937
O2    O     O_R   0.509620 0.544830 0.662520 -0.615616
C1    C     C_R   0.488236 0.438891 0.691019 0.853717
O3    O     O_R   0.646490 0.410960 0.482310 -0.585224
O4    O     O_R   0.684610 0.589050 0.517670 -0.612187
C2    C     C_R   0.717808 0.501204 0.500260 0.912050
Zn1   Zn    Zn3+2 0.474550 0.381080 0.476390 1.030758
Zn2   Zn    Zn3+2 0.525450 0.618920 0.523610 0.957095
O5    O     O_R   0.490380 0.455170 0.337480 -0.558250
O6    O     O_R   0.528500 0.633270 0.372840 -0.639585
O7    O     O_R   0.315390 0.410950 0.482330 -0.590810
O8    O     O_R   0.353510 0.589040 0.517690 -0.642698
C3    C     C_R   0.517711 0.561196 0.309100 0.928851
C4    C     C_R   0.282230 0.498914 0.499483 0.883159
C5    C     C_1   0.839044 0.503282 0.500164 -0.113310
C6    C     C_1   0.941047 0.501988 0.499505 0.054270
C7    C     C_1   0.059171 0.498896 0.498730 0.057173
C8    C     C_1   0.161102 0.497288 0.498638 -0.106029
C9    C     C_R   0.470355 0.713107 0.055336 -0.035747
H1    H     H_    0.481124 0.751329 0.209479 0.226957
H2    H     H_    0.345601 0.675541 0.884189 0.179073
C10   C     C_R   0.531604 0.599222 0.199652 -0.176853
C11   C     C_R   0.580340 0.329953 0.822572 -0.251405
C12   C     C_R   0.650857 0.334963 0.909810 0.330825
C13   C     C_R   0.643215 0.412688 0.973875 -0.163294
C14   C     C_R   0.554348 0.474420 0.960678 0.063118
C15   C     C_R   0.486182 0.469927 0.870844 0.095921
C16   C     C_R   0.535407 0.545819 0.030075 -0.010599
C17   C     C_R   0.473308 0.629640 0.995214 0.046404
C18   C     C_R   0.405292 0.621710 0.906627 -0.139944
C19   C     C_R   0.405152 0.538096 0.849834 -0.146805
C20   C     C_R   0.565418 0.531631 0.134859 0.273636
C21   C     C_R   0.495954 0.694746 0.159115 -0.243932
C22   C     C_R   0.506398 0.403694 0.798902 -0.146595
H3    H     H_    0.594226 0.278466 0.766849 0.195090
H4    H     H_    0.711288 0.427528 0.030378 0.214541
H5    H     H_    0.345564 0.530941 0.785418 0.154781
C23   C     C_R   0.331434 0.088150 0.346768 0.197417
N1    N     N_R   0.440320 0.222190 0.444690 -0.158605
C24   C     C_R   0.638137 0.798638 0.630572 -0.055312
C25   C     C_R   0.668981 0.903140 0.659395 0.278691
C26   C     C_R   0.615852 0.984752 0.608506 -0.234795
C27   C     C_R   0.533206 0.962110 0.529295 -0.003021
C28   C     C_R   0.507247 0.854878 0.503493 0.215801
C29   C     C_R   0.474802 0.040804 0.475682 -0.004447
C30   C     C_R   0.386628 0.008619 0.401263 -0.015880
C31   C     C_R   0.357428 0.898181 0.383383 -0.070090
C32   C     C_R   0.424673 0.826837 0.428275 -0.244564
C33   C     C_R   0.500274 0.150620 0.493937 -0.012724
C34   C     C_R   0.355540 0.193362 0.373965 0.006613
N2    N     N_R   0.559060 0.776980 0.554780 -0.147848
H6    H     H_    0.566360 0.182023 0.547211 0.140112
H7    H     H_    0.677269 0.733624 0.668158 0.184228
H8    H     H_    0.639152 0.063967 0.633623 0.185791
H9    H     H_    0.405359 0.746432 0.407606 0.217139
C35   C     C_2   0.248593 0.848459 0.330336 1.000683
O9    O     O_2   0.254282 0.788188 0.266572 -0.591767
O10   O     O_R   0.138450 0.864835 0.358470 -0.750555
H10   H     H_    0.070546 0.824871 0.318687 0.368832
N3    N     N_R   0.261495 0.067195 0.257452 0.215677
O11   O     O_R   0.312640 0.052313 0.175260 -0.325912
O12   O     O_R   0.152225 0.078844 0.252952 -0.295726
N4    N     N_R   0.753207 0.925975 0.739752 0.237391
O13   O     O_R   0.791883 0.847265 0.794273 -0.357262
O14   O     O_R   0.793717 0.025821 0.757993 -0.288297
C36   C     C_2   0.439944 0.818512 0.012419 0.964394
O15   O     O_2   0.458558 0.854479 0.921780 -0.601399
O16   O     O_R   0.395190 0.879521 0.076422 -0.720409
H11   H     H_    0.379895 0.950076 0.037879 0.394058
N5    N     N_R   0.615567 0.441775 0.179787 0.198619
O17   O     O_R   0.712068 0.460605 0.233241 -0.380967
O18   O     O_R   0.557539 0.341298 0.178626 -0.309474
N6    N     N_R   0.736191 0.267250 0.929295 0.228870
O19   O     O_R   0.747699 0.199171 0.866752 -0.310863
O20   O     O_R   0.800665 0.270529 0.011363 -0.304861
C37   C     C_2   0.286986 0.271733 0.325357 1.057976
O21   O     O_2   0.193074 0.275571 0.364336 -0.583039
O22   O     O_R   0.321961 0.331706 0.229630 -0.733963
H12   H     H_    0.265939 0.380343 0.203063 0.343889

loop_
_geom_bond_atom_site_label_1
_geom_bond_atom_site_label_2
_geom_bond_distance
_ccdc_geom_bond_type
C32   H9    1.065037 S    
C36   O16   1.396523 S    
N4    O14   1.301024 A    
C25   C26   1.402131 A    
C4    C8    1.394072 S    
C29   C30   1.433263 A    
Zn1   O7    1.961617 S    
C14   C15   1.410169 A    
C10   C20   1.406511 A    
C16   C17   1.428272 A    
C37   O22   1.396407 S    
C18   C19   1.378621 A    
O7    C4    1.303789 A    
C12   N6    1.440352 S    
C5    C6    1.181744 T    
C35   O9    1.223056 D    
C9    C36   1.487915 S    
N3    O12   1.301630 A    
N6    O19   1.301095 A    
O5    C3    1.310925 A    
C2    C5    1.394296 S    
C6    C7    1.373409 S    
C11   C12   1.396881 A    
N5    O17   1.301529 A    
C33   H6    1.075318 S    
C36   O15   1.223490 D    
N6    O20   1.301736 A    
O3    Zn1   1.939190 S    
C15   C22   1.404791 A    
C15   C19   1.406365 A    
C16   C20   1.414610 A    
C12   C13   1.400604 A    
O3    C2    1.300143 A    
C9    C21   1.392850 A    
O22   H12   1.013854 S    
O16   H11   1.013605 S    
C20   N5    1.439168 S    
C1    C22   1.455813 S    
C13   C14   1.415719 A    
C19   H5    1.083599 S    
N3    O11   1.299705 A    
O1    C1    1.307695 A    
C27   C28   1.411592 A    
C17   C18   1.397628 A    
C34   C37   1.474115 S    
C31   C32   1.383149 A    
C29   C33   1.409363 A    
Zn2   O8    1.939191 S    
C11   C22   1.399795 A    
C7    C8    1.181656 T    
C37   O21   1.222315 D    
C27   C29   1.424854 A    
Zn2   N2    2.049825 S    
C23   N3    1.436863 S    
H1    C21   1.083611 S    
C28   N2    1.359367 A    
C24   C25   1.395450 A    
N1    C33   1.348540 A    
O8    C4    1.299800 A    
C11   H3    1.083600 S    
C26   C27   1.416753 A    
C25   N4    1.439726 S    
C9    C17   1.412708 A    
Zn1   O5    1.930507 S    
C10   C21   1.396302 A    
C30   C31   1.415518 A    
O1    Zn1   1.971089 S    
O2    Zn2   1.930507 S    
O6    C3    1.308821 A    
O4    Zn2   1.961618 S    
C23   C34   1.394558 A    
C24   N2    1.355580 A    
H2    C18   1.082128 S    
C14   C16   1.423744 A    
O2    C1    1.310570 A    
O10   H10   1.013957 S    
C26   H8    1.075680 S    
O4    C2    1.303612 A    
C35   O10   1.397954 S    
C3    C10   1.456501 S    
C23   C30   1.414709 A    
C13   H4    1.076597 S    
N4    O13   1.301741 A    
N1    C34   1.364634 A    
Zn2   O6    1.971087 S    
C24   H7    1.081552 S    
Zn1   N1    2.062049 S    
N5    O18   1.301821 A    
C28   C32   1.389296 A    
C31   C35   1.484211 S    
