data_mof_unit_38970.cif
_audit_creation_date              2013-03-05T16:20:08-0500
_audit_creation_method            fapswitch 2.2
_symmetry_space_group_name_H-M    P1
_symmetry_Int_Tables_number       1
_space_group_crystal_system       triclinic
_cell_length_a                    8.234529
_cell_length_b                    18.823957
_cell_length_c                    26.996537
_cell_angle_alpha                 100.343039
_cell_angle_beta                  91.7771
_cell_angle_gamma                 88.276568
_cell_volume                      4113.37989794

loop_
_atom_site_label
_atom_site_type_symbol
_atom_site_description
_atom_site_fract_x
_atom_site_fract_y
_atom_site_fract_z
_atom_type_partial_charge
P1    P     P_3+3 0.929380 0.335110 0.452880 0.503204
O1    O     O_2   0.106080 0.324280 0.466820 -0.363051
O2    O     O_3   0.859130 0.413620 0.470620 -0.394381
O3    O     O_3   0.376230 0.370290 0.556910 -0.314298
O4    O     O_2   0.261537 0.244471 0.516239 -0.364518
O5    O     O_3   0.929793 0.312269 0.386766 -0.574956
O6    O     O_3   0.322489 0.256572 0.611405 -0.577868
C1    C     C_3   0.413350 0.188348 0.674098 -0.993115
H1    H     H_    0.302007 0.202609 0.696268 0.277235
H2    H     H_    0.393806 0.136884 0.647542 0.219732
P2    P     P_3+3 0.398530 0.559060 0.613740 0.478884
P3    P     P_3+3 0.968473 0.419343 0.648881 0.591909
O7    O     O_2   0.227190 0.537650 0.620070 -0.371399
O8    O     O_3   0.971110 0.406970 0.583250 -0.423153
O9    O     O_2   0.140119 0.444222 0.667629 -0.299864
O10   O     O_3   0.389435 0.653305 0.630784 -0.558881
O11   O     O_3   0.958818 0.334952 0.667424 -0.428203
C2    C     C_3   0.919808 0.282507 0.625186 0.557611
H3    H     H_    0.012442 0.279218 0.595737 0.122078
H4    H     H_    0.798857 0.295399 0.609550 -0.003995
C3    C     C_3   0.914482 0.208959 0.640872 -0.967519
H5    H     H_    0.036536 0.193405 0.654503 0.272871
H6    H     H_    0.826651 0.210529 0.671455 0.275375
C4    C     C_3   0.823529 0.636913 0.635085 0.393286
H7    H     H_    0.708899 0.617015 0.615839 0.106263
H8    H     H_    0.914175 0.591938 0.633977 0.097986
C5    C     C_3   0.787721 0.669693 0.689541 -0.917169
H9    H     H_    0.706585 0.718172 0.690758 0.272791
H10   H     H_    0.726038 0.630651 0.708184 0.215762
H11   H     H_    0.902737 0.685620 0.710633 0.264188
Ba1   Ba    Ba6+2 0.160810 0.465630 0.521640 1.624826
C6    C     C_3   0.916441 0.373423 0.363625 0.439172
H12   H     H_    0.037564 0.394702 0.359697 -0.009139
H13   H     H_    0.843507 0.417766 0.384686 0.154428
C7    C     C_3   0.840392 0.351384 0.311199 -0.901305
H14   H     H_    0.923920 0.313568 0.287172 0.240035
H15   H     H_    0.815943 0.399541 0.293464 0.218072
H16   H     H_    0.723988 0.324163 0.313523 0.290570
C8    C     C_3   0.328004 0.683595 0.590160 0.455839
H17   H     H_    0.205946 0.662866 0.578790 0.087465
H18   H     H_    0.409722 0.671123 0.557694 0.135316
C9    C     C_3   0.315586 0.765156 0.606529 -1.012976
H19   H     H_    0.226491 0.779244 0.637016 0.274906
H20   H     H_    0.275431 0.791192 0.574379 0.221316
H21   H     H_    0.436172 0.786181 0.620604 0.257330
P4    P     P_3+3 0.880940 0.664900 0.547160 0.460575
O12   O     O_2   0.704230 0.675760 0.533200 -0.369976
O13   O     O_3   0.951180 0.586390 0.529420 -0.402247
O14   O     O_3   0.434080 0.629720 0.443130 -0.356602
O15   O     O_3   0.888199 0.690445 0.612674 -0.574833
P5    P     P_3+3 0.840360 0.584774 0.351328 0.487806
O16   O     O_3   0.351080 0.462080 0.440130 -0.339389
O17   O     O_3   0.839200 0.593040 0.416790 -0.335713
O18   O     O_2   0.670072 0.557757 0.332430 -0.377118
O19   O     O_3   0.835688 0.672874 0.338643 -0.483047
Ba2   Ba    Ba6+2 0.649380 0.534380 0.478400 1.601917
P6    P     P_3+3 0.392881 0.276989 0.554919 0.503870
C10   C     C_3   0.452344 0.248198 0.645224 0.856699
H22   H     H_    0.568066 0.231403 0.626075 -0.085500
H23   H     H_    0.516125 0.180132 0.700282 0.238048
O20   O     O_3   0.459240 0.537930 0.559910 -0.400983
C11   C     C_3   0.335022 0.302128 0.371671 0.845197
H24   H     H_    0.223289 0.329686 0.386321 0.020801
C12   C     C_3   0.286116 0.237246 0.331885 -1.010424
H25   H     H_    0.395590 0.207590 0.315067 0.270620
H26   H     H_    0.212359 0.199971 0.348954 0.226148
H27   H     H_    0.212130 0.256101 0.301443 0.243430
P7    P     P_3+3 0.401700 0.438824 0.375864 0.475810
O21   O     O_2   0.583120 0.462390 0.379940 -0.346789
O22   O     O_3   0.430778 0.347079 0.349375 -0.612680
H28   H     H_    0.876738 0.167607 0.608203 0.209191
C13   C     C_3   0.994479 0.693795 0.332141 0.383826
H29   H     H_    0.069224 0.693349 0.367083 0.032874
H30   H     H_    0.051172 0.657709 0.300083 0.122137
C14   C     C_3   0.989027 0.769596 0.319520 -0.994270
H31   H     H_    0.980964 0.810487 0.354566 0.241855
H32   H     H_    0.100448 0.779061 0.299868 0.233287
H33   H     H_    0.883562 0.776372 0.293999 0.271419
P8    P     P_3+3 0.417951 0.723160 0.447604 0.456927
C15   C     C_3   0.397673 0.741063 0.355520 0.317626
H34   H     H_    0.288214 0.775182 0.366505 0.035270
O23   O     O_2   0.532226 0.754873 0.491511 -0.383164
O24   O     O_3   0.510760 0.746701 0.395737 -0.483662
H35   H     H_    0.363061 0.683724 0.343373 0.081937
H36   H     H_    0.386071 0.756223 0.278223 0.175498
C16   C     C_3   0.472644 0.767007 0.310972 -0.587292
H37   H     H_    0.584776 0.734704 0.299734 0.238162
C17   C     C_R   0.987119 0.045969 0.473535 -0.001576
C18   C     C_R   0.076189 0.093358 0.450497 0.103205
C19   C     C_R   0.226147 0.069775 0.429320 -0.171443
C20   C     C_R   0.287091 0.000184 0.431181 -0.191082
C21   C     C_R   0.197002 0.951749 0.452375 0.134731
C22   C     C_R   0.046343 0.974482 0.473694 0.007993
C23   C     C_R   0.255304 0.880974 0.452138 -0.258472
C24   C     C_R   0.162237 0.830609 0.471122 -0.012495
C25   C     C_R   0.014025 0.854103 0.494900 0.012818
C26   C     C_R   0.956784 0.926339 0.495981 -0.024224
C27   C     C_R   0.212913 0.757485 0.467321 0.130422
C28   C     C_R   0.116925 0.709346 0.486871 -0.480201
C29   C     C_R   0.979211 0.732577 0.514812 0.290635
C30   C     C_R   0.925812 0.806405 0.519000 -0.040141
C31   C     C_R   0.839353 0.069932 0.496351 -0.021986
C32   C     C_R   0.784703 0.142714 0.498724 0.015234
C33   C     C_R   0.877082 0.191449 0.476744 -0.050793
C34   C     C_R   0.017096 0.164118 0.450187 -0.135471
H38   H     H_    0.297849 0.105544 0.412094 0.176666
H39   H     H_    0.404754 0.983991 0.415947 0.160480
H40   H     H_    0.157897 0.653662 0.484035 0.162337
H41   H     H_    0.372556 0.865639 0.436174 0.173316
H42   H     H_    0.085864 0.198046 0.430793 0.167408
C35   C     C_R   0.786954 0.834371 0.546023 -0.132892
C36   C     C_R   0.723675 0.903985 0.543737 0.115506
C37   C     C_R   0.809408 0.950447 0.519022 0.003992
C38   C     C_R   0.749388 0.021726 0.518510 0.015539
C39   C     C_R   0.574602 0.927789 0.565552 -0.166198
C40   C     C_R   0.512019 0.997075 0.563287 -0.194156
C41   C     C_R   0.599918 0.044869 0.540658 0.139169
C42   C     C_R   0.637394 0.166399 0.523002 -0.008551
C43   C     C_R   0.542685 0.115915 0.541269 -0.252100
C44   C     C_R   0.592407 0.240444 0.529868 0.180448
C45   C     C_R   0.695725 0.289314 0.513703 -0.363910
C46   C     C_R   0.828941 0.266075 0.483650 0.276509
H43   H     H_    0.723447 0.802063 0.568040 0.171606
H44   H     H_    0.505510 0.892610 0.584056 0.137224
H45   H     H_    0.396334 0.013826 0.580268 0.134142
H46   H     H_    0.426627 0.131908 0.557895 0.160563
H47   H     H_    0.664430 0.346375 0.521306 0.180654
C47   C     C_R   0.258198 0.441414 0.167159 0.532084
O25   O     O_2   0.260105 0.384930 0.183597 -0.591480
N1    N     N_R   0.224780 0.505785 0.198837 -0.165368
C48   C     C_R   0.221441 0.570214 0.181083 0.508491
C49   C     C_2   0.037638 0.520453 0.268303 -0.268219
C50   C     C_3   0.004027 0.519880 0.323192 0.114794
C51   C     C_1   0.289357 0.491267 0.334920 0.267348
C52   C     C_2   0.323797 0.490448 0.287220 -0.184551
C53   C     C_2   0.190429 0.505729 0.251134 0.185697
C54   C     C_R   0.284373 0.505412 0.096813 -0.075424
C55   C     C_R   0.289486 0.440367 0.115992 -0.062471
C56   C     C_R   0.316657 0.374844 0.083189 -0.150049
C57   C     C_R   0.243256 0.571155 0.129084 -0.098721
C58   C     C_2   0.159778 0.526929 0.354665 -0.466087
H48   H     H_    0.446360 0.477980 0.274088 0.152232
H49   H     H_    0.305210 0.324380 0.096700 0.172121
C59   C     C_2   0.658379 0.480349 0.640368 -0.409440
C60   C     C_R   0.432529 0.440692 0.965877 0.033599
C61   C     C_R   0.339539 0.567250 0.973157 0.046428
C62   C     C_R   0.409409 0.503821 0.944495 0.100176
C63   C     C_R   0.527524 0.383344 0.939454 -0.195377
C64   C     C_R   0.576873 0.383583 0.890680 -0.069852
C65   C     C_R   0.539695 0.442686 0.867007 -0.094592
C66   C     C_R   0.458742 0.503666 0.894226 -0.058718
C67   C     C_R   0.428434 0.564616 0.871444 -0.052197
C68   C     C_R   0.477983 0.563534 0.821618 0.584549
N2    N     N_R   0.555933 0.502978 0.794998 -0.159229
C69   C     C_R   0.585864 0.442753 0.817153 0.666637
C70   C     C_2   0.764378 0.489957 0.730146 0.340134
C71   C     C_3   0.807692 0.487000 0.675016 -0.012367
C72   C     C_1   0.521968 0.513042 0.656989 0.256207
C73   C     C_2   0.480126 0.514564 0.704184 -0.122797
C74   C     C_2   0.605706 0.502405 0.743573 0.021387
O26   O     O_2   0.652397 0.388968 0.793354 -0.513049
C75   C     C_R   0.368199 0.438312 0.014044 -0.029165
C76   C     C_R   0.320334 0.504330 0.045264 0.080141
C77   C     C_R   0.307220 0.568998 0.025094 0.049495
C78   C     C_R   0.347886 0.372597 0.032307 -0.014988
H50   H     H_    0.646279 0.337339 0.871740 0.164938
H51   H     H_    0.569859 0.338441 0.956613 0.143289
O27   O     O_2   0.203240 0.626616 0.210949 -0.619339
C79   C     C_R   0.227966 0.635286 0.108264 0.040521
H52   H     H_    0.938599 0.530195 0.242675 0.142599
C80   C     C_R   0.306983 0.626986 0.948798 -0.203607
C81   C     C_R   0.349944 0.625458 0.899051 -0.047628
O28   O     O_2   0.453736 0.616877 0.802181 -0.586479
C82   C     C_R   0.262064 0.633467 0.057565 -0.263829
H53   H     H_    0.244931 0.675531 0.966817 0.127678
H54   H     H_    0.322354 0.672785 0.882354 0.164899
H55   H     H_    0.355237 0.526442 0.715076 0.191923
H56   H     H_    0.253498 0.684375 0.044566 0.129109
H57   H     H_    0.163468 0.557659 0.392778 0.158402
H58   H     H_    0.665639 0.452748 0.601536 0.164985
N3    N     N_R   0.473715 0.315552 0.680689 0.234282
O29   O     O_R   0.616400 0.343565 0.687861 -0.432039
O30   O     O_R   0.353943 0.344875 0.708153 -0.317140
N4    N     N_R   0.426476 0.280093 0.413422 0.223228
O31   O     O_R   0.494909 0.216203 0.410025 -0.473644
O32   O     O_R   0.455151 0.328928 0.452759 -0.379493
C83   C     C_R   0.512076 0.846367 0.322618 0.246784
C84   C     C_R   0.642788 0.870839 0.355419 -0.099526
C85   C     C_R   0.687582 0.943107 0.362783 -0.194714
C86   C     C_R   0.600800 0.991953 0.338084 -0.083223
C87   C     C_R   0.467686 0.968708 0.306572 -0.129502
C88   C     C_R   0.423352 0.896298 0.298870 -0.178342
H59   H     H_    0.711275 0.833953 0.374924 0.185209
H60   H     H_    0.789307 0.961231 0.387709 0.138837
H61   H     H_    0.635012 0.047982 0.344010 0.143362
H62   H     H_    0.398974 0.006784 0.288022 0.124442
H63   H     H_    0.320271 0.879193 0.274317 0.123168
N5    N     N_R   0.891255 0.492437 0.768374 0.235898
O33   O     O_R   0.010708 0.445186 0.763386 -0.302184
O34   O     O_R   0.886718 0.541818 0.808825 -0.425722
C89   C     C_R   0.330584 0.301439 0.998531 0.113026
C90   C     C_R   0.220986 0.294007 0.957014 -0.113356
C91   C     C_R   0.204145 0.227117 0.925289 -0.100675
C92   C     C_R   0.295407 0.167058 0.934908 -0.090095
C93   C     C_R   0.403378 0.173728 0.976354 -0.097419
C94   C     C_R   0.420712 0.240513 0.008200 -0.181529
H64   H     H_    0.148833 0.340008 0.949236 0.126529
H65   H     H_    0.120135 0.221826 0.893277 0.128942
H66   H     H_    0.282250 0.115313 0.910293 0.114101
H67   H     H_    0.473845 0.127129 0.983783 0.116476
H68   H     H_    0.505700 0.244980 0.039972 0.124030
C95   C     C_R   0.167713 0.705217 0.137080 0.203409
C96   C     C_R   0.269312 0.764991 0.146774 -0.152321
C97   C     C_R   0.211431 0.831091 0.173338 -0.136552
C98   C     C_R   0.052358 0.837871 0.190572 -0.100345
C99   C     C_R   0.950011 0.778812 0.180623 -0.114243
C100  C     C_R   0.006803 0.712816 0.153599 -0.065917
H69   H     H_    0.393117 0.760276 0.133894 0.111757
H70   H     H_    0.290126 0.877046 0.180681 0.116326
H71   H     H_    0.008268 0.888940 0.211495 0.115692
H72   H     H_    0.826623 0.784192 0.193792 0.112328
H73   H     H_    0.926286 0.667459 0.145907 0.100507

loop_
_geom_bond_atom_site_label_1
_geom_bond_atom_site_label_2
_geom_bond_distance
_ccdc_geom_bond_type
O5    C6    1.404983 S    
C80   C81   1.394476 A    
C28   C29   1.396765 A    
C57   C79   1.420984 A    
C5    H10   1.105701 S    
C2    C3    1.520967 S    
P2    O7    1.502053 D    
C89   C90   1.406710 A    
Ba1   O20   2.915033 S    
P8    C27   1.848812 S    
C76   C77   1.420024 A    
C4    C5    1.522892 S    
O8    Ba1   2.711127 S    
C15   H35   1.113278 S    
C47   O25   1.222970 D    
N4    O31   1.302001 A    
C24   C27   1.413068 A    
C64   C65   1.400951 A    
C52   C53   1.501066 S    
C8    H18   1.108729 S    
C93   C94   1.398233 A    
C69   O26   1.221854 D    
C65   C69   1.410063 A    
C28   H40   1.081622 S    
P1    C46   1.886192 S    
C86   C87   1.397868 A    
C49   H52   1.085811 S    
C3    H28   1.109675 S    
C10   N3    1.456784 S    
C3    H5    1.108754 S    
C70   C71   1.532102 S    
C7    H15   1.109233 S    
C34   H42   1.078369 S    
C4    H8    1.108633 S    
C45   H47   1.081546 S    
C97   H70   1.082447 S    
C41   C43   1.401996 A    
H36   C16   1.111863 S    
C67   C81   1.401333 A    
C33   C46   1.429079 A    
C60   C75   1.427773 A    
C39   C40   1.398789 A    
C68   O28   1.222334 D    
P1    Ba1   3.396831 S    
C2    H3    1.111224 S    
C40   C41   1.403730 A    
C11   O22   1.397300 S    
P1    O1    1.508666 D    
P2    O10   1.750894 S    
C56   C78   1.398288 A    
C47   C55   1.409546 A    
C42   C43   1.411089 A    
C36   C37   1.408673 A    
C15   C16   1.530054 S    
C48   C57   1.424058 A    
C1    C10   1.527276 S    
C99   H72   1.082711 S    
C56   H49   1.084549 S    
C94   H68   1.083039 S    
C52   H48   1.085084 S    
C59   H58   1.085794 S    
N4    O32   1.294435 A    
C49   C50   1.517842 S    
C92   H66   1.082379 S    
C11   C12   1.529447 S    
C79   C82   1.399912 A    
C77   C82   1.410845 A    
N5    O33   1.299759 A    
Ba1   Ba2   4.513322 S    
C82   H56   1.077788 S    
O6    C10   1.408119 S    
C2    H4    1.106878 S    
O19   C13   1.402018 S    
O16   P7    1.771052 S    
C13   H29   1.111409 S    
C66   C67   1.408388 A    
P2    Ba1   3.382609 S    
C16   C83   1.513314 S    
C61   C80   1.416072 A    
C5    H11   1.110606 S    
O6    P6    1.757206 S    
C85   C86   1.397072 A    
C9    H20   1.108179 S    
C73   H55   1.084147 S    
C13   C14   1.524424 S    
C85   H60   1.081977 S    
C33   C34   1.411080 A    
C60   C62   1.416875 A    
O7    Ba1   2.803333 S    
C8    C9    1.520731 S    
N3    O30   1.301060 A    
C4    O15   1.391484 S    
N5    O34   1.301518 A    
C54   C57   1.418135 A    
P4    O13   1.568314 S    
C90   C91   1.397878 A    
C61   C62   1.417705 A    
C35   H43   1.079274 S    
P1    O5    1.759338 S    
O3    Ba1   2.755269 S    
C6    C7    1.522236 S    
C20   H39   1.078300 S    
C70   C74   1.368922 D    
C7    H16   1.109093 S    
C4    H7    1.105535 S    
C19   H38   1.082425 S    
C13   H30   1.106013 S    
C8    H17   1.103685 S    
C54   C76   1.428223 A    
C17   C22   1.418143 A    
C97   C98   1.398205 A    
C1    H1    1.110155 S    
C10   H22   1.108600 S    
C96   C97   1.398131 A    
C79   C95   1.483624 S    
C61   C77   1.429645 A    
N1    C53   1.448661 S    
C75   C76   1.423063 A    
O14   P8    1.742596 S    
O1    Ba1   2.844261 S    
P1    O2    1.568342 S    
C7    H14   1.110385 S    
C6    H13   1.096037 S    
N3    O29   1.297126 A    
C62   C66   1.428081 A    
C14   H31   1.109682 S    
C12   H27   1.110526 S    
N2    C74   1.457781 S    
C11   H24   1.091883 S    
C31   C38   1.411714 A    
C75   C78   1.427528 A    
O2    Ba2   2.794558 S    
C73   C74   1.502477 S    
P3    O9    1.543882 D    
C49   C53   1.357831 D    
C99   C100  1.398245 A    
C25   C26   1.421292 A    
C21   C23   1.401464 A    
O11   C2    1.403631 S    
C45   C46   1.397079 A    
C23   C24   1.411128 A    
Ba2   O20   2.729957 S    
C88   H63   1.080954 S    
C92   C93   1.397406 A    
O2    Ba1   2.911480 S    
C14   H32   1.108597 S    
N2    C69   1.386073 Am   
C86   H61   1.082500 S    
P6    C44   1.861161 S    
P7    O22   1.758848 S    
C18   C34   1.405623 A    
P3    O8    1.745833 S    
C48   O27   1.220795 D    
Ba2   O21   2.803672 S    
Ba1   O13   2.793970 S    
C3    H6    1.110228 S    
C40   H45   1.083599 S    
C72   C73   1.325295 D    
P3    C71   1.872571 S    
C32   C42   1.418309 A    
C9    H19   1.110563 S    
C26   C37   1.406401 A    
C18   C19   1.402991 A    
C22   C26   1.410898 A    
C20   C21   1.401187 A    
C60   C63   1.411872 A    
C44   C45   1.405283 A    
C16   H37   1.109830 S    
C15   O24   1.399666 S    
C37   C38   1.418149 A    
C91   H65   1.082359 S    
O17   Ba2   2.711732 S    
C100  H73   1.083287 S    
O13   Ba2   2.912316 S    
P4    C29   1.883016 S    
P4    O12   1.508963 D    
C39   H44   1.082050 S    
C35   C36   1.406588 A    
C58   H57   1.086099 S    
P7    O21   1.566141 D    
C70   N5    1.441369 S    
C64   H50   1.083600 S    
C87   H62   1.082374 S    
C78   C89   1.486866 S    
C15   H34   1.107350 S    
P2    O20   1.531511 S    
C47   N1    1.377602 Am   
C84   H59   1.080149 S    
P8    O23   1.535381 D    
C17   C31   1.406107 A    
C96   H69   1.083319 S    
C51   C52   1.324432 D    
C30   C35   1.412244 A    
O14   Ba2   2.754665 S    
C54   C55   1.411456 A    
P4    O15   1.747193 S    
C23   H41   1.079666 S    
C50   C58   1.512149 S    
Ba1   O16   2.730599 S    
O4    P6    1.541142 D    
C90   H64   1.083299 S    
P5    O18   1.546143 D    
C6    H12   1.101050 S    
P7    C51   1.823631 S    
N1    C48   1.381051 Am   
C59   C71   1.515989 S    
C83   C84   1.406807 A    
C98   H71   1.082487 S    
C1    H23   1.110908 S    
C51   C58   1.317969 D    
P8    O24   1.746601 S    
P5    C50   1.875312 S    
C19   C20   1.397476 A    
C95   C96   1.404196 A    
C80   H53   1.077258 S    
C93   H67   1.082470 S    
C12   H25   1.111085 S    
C21   C22   1.406193 A    
C83   C88   1.405057 A    
C89   C94   1.406605 A    
P5    O19   1.751655 S    
C63   C64   1.390824 A    
C98   C99   1.397652 A    
C31   C32   1.420155 A    
C87   C88   1.399241 A    
C14   H33   1.110380 S    
C42   C44   1.412356 A    
C38   C41   1.407854 A    
C55   C56   1.399665 A    
O10   C8    1.398771 S    
C11   N4    1.451225 S    
C43   H46   1.079913 S    
C81   H54   1.083585 S    
P3    O11   1.753878 S    
C17   C18   1.409749 A    
P2    C72   1.839402 S    
C1    H2    1.109603 S    
C27   C28   1.401842 A    
C95   C100  1.406183 A    
P4    Ba2   3.397438 S    
C32   C33   1.427517 A    
C63   H51   1.078614 S    
C65   C66   1.408335 A    
C84   C85   1.398116 A    
C29   C30   1.430872 A    
C67   C68   1.414185 A    
C91   C92   1.397333 A    
P5    O17   1.746329 S    
C68   N2    1.385033 Am   
C25   C30   1.426677 A    
C59   C72   1.316193 D    
C9    H21   1.110514 S    
C36   C39   1.404101 A    
C24   C25   1.418225 A    
O16   Ba2   2.914127 S    
O3    P6    1.748805 S    
C12   H26   1.110229 S    
O12   Ba2   2.844716 S    
C5    H9    1.110921 S    
