data_mof_unit_26032.cif
_audit_creation_date              2012-10-26T19:25:50-0400
_audit_creation_method            fapswitch 2.2
_symmetry_space_group_name_H-M    P1
_symmetry_Int_Tables_number       1
_space_group_crystal_system       triclinic
_cell_length_a                    14.964805
_cell_length_b                    13.788636
_cell_length_c                    11.656281
_cell_angle_alpha                 91.364512
_cell_angle_beta                  90.120932
_cell_angle_gamma                 91.42106
_cell_volume                      2403.77619498

loop_
_atom_site_label
_atom_site_type_symbol
_atom_type_description
_atom_site_fract_x
_atom_site_fract_y
_atom_site_fract_z
_atom_type_partial_charge
C1    C     C_R   0.329021 0.498724 0.498132 0.578067
C2    C     C_R   0.548091 0.205385 0.419315 0.342720
C3    C     C_R   0.565357 0.795814 0.442359 0.404530
C4    C     C_R   0.447930 0.206547 0.576788 0.412171
C5    C     C_R   0.558383 0.897386 0.428908 -0.026445
C6    C     C_R   0.457412 0.104163 0.590844 -0.034231
C7    C     C_R   0.455192 0.898382 0.587661 -0.048903
C8    C     C_R   0.558949 0.103154 0.428005 -0.073900
C9    C     C_R   0.506769 0.949593 0.508208 -0.145509
C10   C     C_R   0.507954 0.052329 0.509338 -0.145081
C11   C     C_R   0.611398 0.947624 0.348506 0.280893
C12   C     C_R   0.671022 0.500811 0.502035 0.573616
C13   C     C_R   0.421420 0.054669 0.686882 0.257088
C14   C     C_R   0.422502 0.949976 0.685673 0.238900
C15   C     C_R   0.617805 0.050367 0.355012 0.249302
C16   C     C_R   0.501406 0.499360 0.284053 0.551007
C17   C     C_R   0.500227 0.500935 0.715984 0.555348
C18   C     C_1   0.503085 0.499121 0.162394 -0.042728
C19   C     C_1   0.501318 0.502579 0.837657 -0.014728
C20   C     C_1   0.503238 0.500581 0.059859 -0.069261
C21   C     C_1   0.502360 0.502180 0.940199 -0.053643
C22   C     C_R   0.813841 0.541481 0.412779 -0.196490
C23   C     C_R   0.906608 0.539923 0.410267 -0.003397
C24   C     C_R   0.187267 0.471032 0.596762 -0.202823
C25   C     C_R   0.767511 0.501992 0.504943 -0.011778
C26   C     C_R   0.232622 0.495952 0.496885 -0.011996
C27   C     C_R   0.812864 0.460742 0.596981 0.226491
C28   C     C_R   0.186282 0.519157 0.396904 0.226847
C29   C     C_R   0.906712 0.466934 0.600306 0.016116
C30   C     C_R   0.093353 0.530542 0.402426 0.012020
C31   C     C_R   0.953431 0.503497 0.504587 0.018742
C32   C     C_R   0.047095 0.502192 0.502262 0.018736
C33   C     C_3   0.761692 0.316560 0.665781 0.010577
C34   C     C_R   0.094304 0.470447 0.598773 -0.005883
C35   C     C_3   0.693846 0.270577 0.747175 -0.248543
C36   C     C_3   0.686745 0.160641 0.728562 -0.491910
C37   C     C_3   0.212085 0.438153 0.228299 0.000034
C38   C     C_3   0.281620 0.425239 0.133994 -0.252059
C39   C     C_3   0.254350 0.343734 0.049063 -0.497321
C40   C     C_3   0.293098 0.751992 0.569671 0.049119
C41   C     C_3   0.236554 0.836946 0.610544 -0.283239
C42   C     C_3   0.141686 0.828130 0.562192 -0.499872
C43   C     C_3   0.529416 0.228263 0.227066 0.055114
C44   C     C_3   0.580579 0.256649 0.119006 -0.256729
C45   C     C_R   0.954781 0.436877 0.696343 -0.132009
C46   C     C_3   0.523325 0.239795 0.011546 -0.470483
C47   C     C_3   0.700785 0.765819 0.524617 0.024990
C48   C     C_3   0.758420 0.859445 0.531408 -0.303818
C49   C     C_3   0.814456 0.864366 0.641095 -0.487442
C50   C     C_3   0.293901 0.220814 0.592622 0.027750
C51   C     C_3   0.281547 0.208667 0.461057 -0.294799
C52   C     C_3   0.182895 0.195438 0.429345 -0.498786
C53   C     C_3   0.732058 0.896029 0.237693 0.060351
C54   C     C_3   0.756597 0.922511 0.114877 -0.257831
C55   C     C_3   0.857267 0.918635 0.095393 -0.499657
C56   C     C_R   0.045867 0.568447 0.310339 -0.138582
C57   C     C_3   0.344578 0.076137 0.868720 0.047491
C58   C     C_3   0.248644 0.049911 0.830374 -0.251257
C59   C     C_3   0.199269 0.991631 0.921146 -0.476817
C60   C     C_3   0.469106 0.865473 0.839638 0.017925
C61   C     C_3   0.436980 0.806076 0.941336 -0.259799
C62   C     C_3   0.515312 0.772626 0.013132 -0.464559
C63   C     C_3   0.748953 0.138990 0.354667 0.022561
C64   C     C_3   0.815633 0.193027 0.278636 -0.251370
C65   C     C_3   0.890597 0.242131 0.349682 -0.485144
C66   C     C_R   0.047888 0.439544 0.695913 -0.148077
C67   C     C_R   0.953212 0.573939 0.314769 -0.145762
C68   C     C_R   0.442305 0.795587 0.569834 0.365534
Cu1   Cu    Cu3+1 0.500000 0.597420 0.500000 1.030572
Cu2   Cu    Cu3+1 0.500000 0.402580 0.500000 1.020429
H1    H     H_    0.777179 0.570855 0.341619 0.133169
H2    H     H_    0.627196 0.301689 0.732406 0.205455
H3    H     H_    0.667065 0.142279 0.638619 0.141249
H4    H     H_    0.635237 0.129877 0.786738 0.158064
H5    H     H_    0.751786 0.127203 0.747284 0.136271
H6    H     H_    0.145126 0.442731 0.187651 0.134366
H7    H     H_    0.212734 0.372121 0.281891 0.121498
H8    H     H_    0.290797 0.493980 0.087006 0.185154
H9    H     H_    0.345776 0.406466 0.174370 0.160579
H10   H     H_    0.247663 0.273666 0.093790 0.132382
H11   H     H_    0.306160 0.336832 0.981523 0.160169
H12   H     H_    0.224607 0.451206 0.672219 0.120585
H13   H     H_    0.189859 0.359907 0.007122 0.143390
H14   H     H_    0.254140 0.684864 0.588862 0.163709
H15   H     H_    0.301230 0.753260 0.474430 0.131208
H16   H     H_    0.232950 0.837885 0.705726 0.207722
H17   H     H_    0.267016 0.906055 0.580950 0.145082
H18   H     H_    0.143175 0.826837 0.466880 0.152804
H19   H     H_    0.102743 0.891363 0.592153 0.139914
H20   H     H_    0.107699 0.760758 0.591994 0.157459
H21   H     H_    0.464926 0.266538 0.230650 0.126425
H22   H     H_    0.512866 0.149185 0.219114 0.124579
H23   H     H_    0.920702 0.411704 0.772309 0.143945
H24   H     H_    0.602188 0.334089 0.125757 0.173575
H25   H     H_    0.641507 0.212664 0.110790 0.187056
H26   H     H_    0.506460 0.161309 0.999626 0.153032
H27   H     H_    0.560732 0.264705 0.935252 0.162519
H28   H     H_    0.460782 0.281132 0.018346 0.155672
H29   H     H_    0.748368 0.705594 0.524551 0.168421
H30   H     H_    0.660250 0.758455 0.604505 0.124118
H31   H     H_    0.804616 0.861130 0.457277 0.145136
H32   H     H_    0.716263 0.924294 0.531367 0.143877
H33   H     H_    0.770421 0.864068 0.717725 0.142753
H34   H     H_    0.080260 0.594530 0.235014 0.142801
H35   H     H_    0.855812 0.932390 0.643455 0.138884
H36   H     H_    0.859626 0.801711 0.643967 0.153564
H37   H     H_    0.244154 0.272764 0.625772 0.148294
H38   H     H_    0.276749 0.150808 0.632176 0.132529
H39   H     H_    0.309191 0.271990 0.415436 0.191079
H40   H     H_    0.317303 0.143600 0.429532 0.124916
H41   H     H_    0.153420 0.131169 0.472383 0.142944
H42   H     H_    0.176110 0.184236 0.335036 0.136391
H43   H     H_    0.145523 0.261032 0.455315 0.154667
H44   H     H_    0.754171 0.821083 0.252942 0.165056
H45   H     H_    0.083599 0.415903 0.770841 0.104543
H46   H     H_    0.769510 0.944925 0.298312 0.123539
H47   H     H_    0.722264 0.870984 0.053582 0.154556
H48   H     H_    0.733811 0.996840 0.097439 0.195384
H49   H     H_    0.893177 0.970390 0.154814 0.140759
H50   H     H_    0.872826 0.938687 0.005790 0.142476
H51   H     H_    0.881099 0.844178 0.109496 0.144982
H52   H     H_    0.339069 0.134389 0.935646 0.124279
H53   H     H_    0.378502 0.018604 0.914842 0.164083
H54   H     H_    0.211991 0.117650 0.815601 0.132746
H55   H     H_    0.248474 0.007260 0.748935 0.167308
H56   H     H_    0.917853 0.603119 0.242578 0.108660
H57   H     H_    0.233067 0.922005 0.934862 0.168071
H58   H     H_    0.129699 0.975321 0.892013 0.137679
H59   H     H_    0.197156 0.033732 0.003513 0.132491
H60   H     H_    0.510423 0.928706 0.872244 0.111760
H61   H     H_    0.511714 0.818554 0.784524 0.146695
H62   H     H_    0.392790 0.850750 0.996630 0.151704
H63   H     H_    0.397792 0.741456 0.909091 0.194988
H64   H     H_    0.559942 0.726614 0.960151 0.149633
H65   H     H_    0.489782 0.729533 0.085928 0.178433
H66   H     H_    0.554068 0.836357 0.048162 0.184305
H67   H     H_    0.828324 0.285480 0.681920 0.116128
H68   H     H_    0.784474 0.082010 0.401555 0.088125
H69   H     H_    0.723427 0.191571 0.419377 0.152667
H70   H     H_    0.844911 0.141175 0.215636 0.151423
H71   H     H_    0.780286 0.249344 0.230675 0.181093
H72   H     H_    0.862802 0.296264 0.411110 0.151441
H73   H     H_    0.938046 0.280288 0.292016 0.147700
H74   H     H_    0.927654 0.187352 0.397928 0.137464
H75   H     H_    0.741047 0.297150 0.576226 0.140903
H76   H     H_    0.714202 0.287314 0.837395 0.157598
N1    N     N_R   0.500000 0.743810 0.500000 -0.252569
N2    N     N_R   0.500000 0.256190 0.500000 -0.245737
O1    O     O_R   0.370260 0.582280 0.500020 -0.481214
O2    O     O_3   0.231921 0.524232 0.293699 -0.579517
O3    O     O_3   0.375691 0.747374 0.629878 -0.509930
O4    O     O_3   0.582078 0.253569 0.325529 -0.512028
O5    O     O_3   0.648111 0.756116 0.422128 -0.535767
O6    O     O_3   0.379761 0.256487 0.630056 -0.494423
O7    O     O_3   0.638161 0.897276 0.250168 -0.554274
O8    O     O_3   0.397393 0.115368 0.779912 -0.563549
O9    O     O_3   0.393723 0.897556 0.778862 -0.569731
O10   O     O_3   0.678913 0.097921 0.285525 -0.561483
O11   O     O_R   0.629740 0.417720 0.499980 -0.476458
O12   O     O_R   0.629740 0.582280 0.499980 -0.491729
O13   O     O_R   0.370260 0.417720 0.500020 -0.489622
O14   O     O_R   0.500010 0.582270 0.337200 -0.472338
O15   O     O_R   0.499990 0.417730 0.662800 -0.470697
O16   O     O_R   0.499990 0.582270 0.662800 -0.484694
O17   O     O_R   0.500010 0.417730 0.337200 -0.484205
O18   O     O_3   0.764744 0.418384 0.684980 -0.578493

loop_
_geom_bond_atom_site_label_1
_geom_bond_atom_site_label_2
_ccdc_geom_bond_type
C40   H15   S    
C4    O6    S    
C55   H51   S    
C28   O2    S    
C57   H52   S    
C27   C29   A    
C41   C42   S    
C40   H14   S    
C33   O18   S    
Cu1   O16   S    
C37   O2    S    
C45   H23   S    
Cu2   O15   S    
C34   C66   A    
C61   H63   S    
C55   H49   S    
C52   H43   S    
C3    N1    A    
C41   H16   S    
C19   C21   T    
C24   C26   A    
C5    C11   A    
Cu1   Cu2   S    
C38   C39   S    
C65   H73   S    
C38   H9    S    
C52   H42   S    
C59   H57   S    
C4    N2    A    
C3    O5    S    
Cu1   O12   S    
C47   H29   S    
Cu2   O11   S    
C62   H66   S    
C24   H12   S    
C17   O15   A    
C61   H62   S    
C17   C19   S    
C7    C68   A    
C11   C15   A    
C7    C14   A    
C59   H59   S    
C35   C36   S    
C33   H67   S    
C22   C25   A    
C1    O1    A    
C9    C10   A    
C53   H46   S    
C11   O7    S    
C46   H28   S    
C1    O13   A    
C51   H39   S    
C13   C14   A    
C50   H38   S    
C36   H5    S    
C60   H61   S    
C26   C28   A    
C44   C46   S    
C55   H50   S    
C2    O4    S    
C41   H17   S    
C57   O8    S    
C66   H45   S    
C14   O9    S    
C51   C52   S    
C47   C48   S    
C60   O9    S    
C39   H11   S    
C15   O10   S    
C4    C6    A    
C36   H3    S    
Cu2   O17   S    
C60   H60   S    
Cu1   O14   S    
C65   H74   S    
C49   H35   S    
C47   O5    S    
C52   H41   S    
C16   O14   A    
C59   H58   S    
C53   C54   S    
C37   H7    S    
C43   H21   S    
C47   H30   S    
C40   O3    S    
C29   C45   A    
C60   C61   S    
C42   H20   S    
C35   H76   S    
C32   C34   A    
C62   H65   S    
C43   C44   S    
C13   O8    S    
C5    C9    A    
C37   C38   S    
C17   O16   A    
C57   H53   S    
C31   C32   A    
C16   O17   A    
C48   H32   S    
C50   C51   S    
C12   O12   A    
C56   H34   S    
C68   N1    A    
C36   H4    S    
C16   C18   S    
C40   C41   S    
C37   H6    S    
C35   H2    S    
C53   O7    S    
C51   H40   S    
C54   H48   S    
C50   H37   S    
Cu1   N1    S    
C63   H68   S    
C67   H56   S    
C42   H18   S    
Cu2   O13   S    
C22   H1    S    
C53   H44   S    
C64   H70   S    
C7    C9    A    
C54   C55   S    
C48   C49   S    
C63   H69   S    
C46   H27   S    
C2    C8    A    
C3    C5    A    
C49   H33   S    
C30   C56   A    
C49   H36   S    
C8    C15   A    
C56   C67   A    
C38   H8    S    
Cu2   N2    S    
C58   H54   S    
C43   H22   S    
C12   C25   S    
C42   H19   S    
Cu1   O1    S    
C64   C65   S    
C62   H64   S    
C28   C30   A    
C58   C59   S    
C39   H13   S    
C29   C31   A    
C68   O3    S    
C39   H10   S    
C6    C13   A    
C30   C32   A    
C65   H72   S    
C57   C58   S    
C1    C26   S    
C23   C67   A    
C50   O6    S    
C48   H31   S    
C33   C35   S    
C18   C20   T    
C12   O11   A    
C61   C62   S    
C24   C34   A    
C44   H24   S    
C6    C10   A    
C27   O18   S    
C63   C64   S    
C46   H26   S    
C20   C21   S    
C58   H55   S    
C8    C10   A    
C64   H71   S    
C54   H47   S    
C45   C66   A    
C44   H25   S    
C22   C23   A    
C63   O10   S    
C2    N2    A    
C43   O4    S    
C33   H75   S    
C23   C31   A    
C25   C27   A    
