data_mof_unit_31724.cif
_audit_creation_date              2012-12-10T19:45:40-0500
_audit_creation_method            fapswitch 2.2
_symmetry_space_group_name_H-M    P1
_symmetry_Int_Tables_number       1
_space_group_crystal_system       triclinic
_cell_length_a                    10.79789
_cell_length_b                    14.676913
_cell_length_c                    14.699024
_cell_angle_alpha                 65.361099
_cell_angle_beta                  103.253812
_cell_angle_gamma                 102.648636
_cell_volume                      2040.86211579

loop_
_atom_site_label
_atom_site_type_symbol
_atom_type_description
_atom_site_fract_x
_atom_site_fract_y
_atom_site_fract_z
_atom_type_partial_charge
C1    C     C_R   0.477468 0.119569 0.312290 0.798150
C2    C     C_R   0.522166 0.880372 0.687718 0.793497
C3    C     C_R   0.870605 0.999133 0.497894 -0.091422
C4    C     C_R   0.129336 0.001315 0.501629 -0.073952
C5    C     C_R   0.907020 0.965684 0.431935 0.024877
C6    C     C_R   0.092821 0.035140 0.567285 0.064627
C7    C     C_R   0.458309 0.187026 0.204901 -0.047241
C8    C     C_R   0.532353 0.812673 0.795151 -0.046581
C9    C     C_R   0.387889 0.215798 0.027941 -0.203911
C10   C     C_R   0.572250 0.783817 0.972930 -0.204203
C11   C     C_R   0.407747 0.149261 0.128871 -0.211370
C12   C     C_R   0.568088 0.850295 0.871971 -0.211829
C13   C     C_R   0.487384 0.291542 0.179162 -0.241338
C14   C     C_R   0.503606 0.708182 0.820319 -0.235529
C15   C     C_R   0.462350 0.360403 0.078646 0.089077
C16   C     C_R   0.504113 0.639488 0.921267 0.088157
C17   C     C_R   0.415306 0.320771 0.002266 0.164455
C18   C     C_R   0.540342 0.679087 0.998131 0.165985
C19   C     C_R   0.484959 0.467126 0.052033 0.064974
C20   C     C_R   0.471593 0.532927 0.947836 0.062695
C21   C     C_R   0.424376 0.489980 0.873972 -0.211993
C22   C     C_R   0.517680 0.510142 0.126135 -0.210570
C23   C     C_R   0.262756 0.000097 0.501137 0.812223
C24   C     C_R   0.737219 0.999966 0.498806 0.810605
C25   C     C_R   0.395937 0.386075 0.901076 -0.222391
C26   C     C_R   0.544448 0.614019 0.099375 -0.222786
C27   C     C_R   0.692905 0.275211 0.682054 -0.282987
C28   C     C_R   0.307054 0.724837 0.317902 -0.288085
C29   C     C_R   0.668519 0.197599 0.646818 0.123413
C30   C     C_R   0.331491 0.802439 0.353162 0.125114
C31   C     C_R   0.524470 0.288058 0.505201 0.042453
C32   C     C_R   0.475439 0.711906 0.494803 0.038858
C33   C     C_R   0.547595 0.371103 0.535623 -0.018679
C34   C     C_R   0.452181 0.628844 0.464400 -0.016966
C35   C     C_R   0.631302 0.361382 0.627734 0.143776
C36   C     C_R   0.368536 0.638611 0.372251 0.155254
C37   C     C_R   0.488818 0.461442 0.479938 0.109170
C38   C     C_R   0.510904 0.538492 0.520101 0.094127
C39   C     C_R   0.590271 0.522334 0.614764 -0.128572
C40   C     C_R   0.409257 0.477532 0.385363 -0.152767
C41   C     C_R   0.650883 0.436453 0.666276 -0.144913
C42   C     C_R   0.348851 0.563505 0.333744 -0.166440
C43   C     C_R   0.336106 0.022478 0.800619 -0.114568
C44   C     C_R   0.655325 0.979307 0.202946 -0.118847
C45   C     C_R   0.246706 0.994646 0.728268 -0.198901
C46   C     C_R   0.749642 0.006893 0.272996 -0.176708
C47   C     C_R   0.186691 0.068260 0.642466 -0.007563
C48   C     C_R   0.812398 0.933098 0.356746 -0.000547
C49   C     C_R   0.217281 0.171388 0.630010 0.482780
C50   C     C_R   0.780247 0.830047 0.369023 0.449668
C51   C     C_R   0.308863 0.198090 0.702917 -0.213758
C52   C     C_R   0.684460 0.803695 0.298022 -0.198376
C53   C     C_R   0.367958 0.124038 0.787530 -0.210856
C54   C     C_R   0.622027 0.877848 0.215925 -0.206473
C55   C     C_R   0.963136 0.032243 0.565419 -0.156469
C56   C     C_R   0.036745 0.968341 0.433915 -0.164659
Cu1   Cu    Cu3+1 0.466270 0.918260 0.475690 0.970729
Cu2   Cu    Cu3+1 0.533730 0.081740 0.524310 0.974756
H1    H     H_    0.438407 0.145463 0.843200 0.140496
H2    H     H_    0.547360 0.856532 0.162406 0.135204
H3    H     H_    0.350145 0.185222 0.969929 0.136306
H4    H     H_    0.600571 0.814297 0.031407 0.133523
H5    H     H_    0.404664 0.534233 0.794025 0.150724
H6    H     H_    0.520472 0.465839 0.206021 0.141223
H7    H     H_    0.712633 0.428134 0.737941 0.147382
H8    H     H_    0.287069 0.571792 0.262096 0.141968
H9    H     H_    0.544321 0.713903 0.559850 0.149509
H10   H     H_    0.455700 0.286071 0.440099 0.148393
H11   H     H_    0.286349 0.870044 0.309996 0.119476
H12   H     H_    0.713741 0.130032 0.689967 0.119003
H13   H     H_    0.757783 0.267095 0.752345 0.139607
H14   H     H_    0.242237 0.733004 0.247575 0.139432
H15   H     H_    0.607822 0.574986 0.651430 0.145828
H16   H     H_    0.391081 0.424608 0.348990 0.130828
H17   H     H_    0.380624 0.965186 0.867081 0.137824
H18   H     H_    0.607497 0.036655 0.138763 0.137140
H19   H     H_    0.223952 0.915496 0.739104 0.137487
H20   H     H_    0.772950 0.085899 0.262671 0.140923
H21   H     H_    0.335142 0.276382 0.694536 0.169908
H22   H     H_    0.656762 0.725480 0.306385 0.167455
H23   H     H_    0.934147 0.054745 0.618128 0.162835
H24   H     H_    0.065706 0.945868 0.381186 0.169319
H25   H     H_    0.359360 0.356610 0.842058 0.151069
H26   H     H_    0.569333 0.643580 0.158659 0.146797
H27   H     H_    0.482919 0.682264 0.759353 0.149710
H28   H     H_    0.532032 0.317368 0.239091 0.154392
H29   H     H_    0.592701 0.930846 0.854110 0.151277
H30   H     H_    0.383816 0.068578 0.147290 0.149170
N1    N     N_R   0.584450 0.204570 0.560790 -0.184351
N2    N     N_R   0.415550 0.795430 0.439210 -0.183747
O1    O     O_R   0.455540 0.022090 0.338120 -0.595270
O2    O     O_R   0.544460 0.977910 0.661880 -0.595980
O3    O     O_R   0.512510 0.160150 0.379180 -0.589018
O4    O     O_R   0.487490 0.839850 0.620820 -0.590307
O5    O     O_R   0.291160 0.930970 0.479480 -0.574507
O6    O     O_R   0.708840 0.069030 0.520520 -0.569259
O7    O     O_R   0.348130 0.069020 0.520540 -0.558027
O8    O     O_R   0.651870 0.930980 0.479460 -0.564981
S1    S     S_3+6 0.145875 0.268102 0.523438 -0.021261
O9    O     O_2   0.003966 0.253492 0.524365 -0.286621
O10   O     O_2   0.203542 0.370342 0.525360 -0.304052
O11   O     O_3   0.170066 0.262004 0.417228 -0.564731
H31   H     H_    0.133720 0.320571 0.361151 0.371481
S2    S     S_3+6 0.853646 0.732731 0.473629 -0.012105
O12   O     O_2   0.796016 0.630838 0.470835 -0.268900
O13   O     O_2   0.995039 0.747638 0.470337 -0.303691
O14   O     O_3   0.831826 0.735592 0.582128 -0.554261
H32   H     H_    0.912952 0.771749 0.605823 0.358213

loop_
_geom_bond_atom_site_label_1
_geom_bond_atom_site_label_2
_ccdc_geom_bond_type
C50   S2    S    
C27   C29   A    
C5    C56   A    
C36   C42   A    
C19   C20   A    
C18   C26   A    
C6    C55   A    
C30   N2    A    
C49   C51   A    
S2    O13   D    
C53   H1    S    
C39   C41   A    
C54   H2    S    
C15   C19   A    
C23   O5    A    
C9    H3    S    
Cu2   O3    S    
C37   C40   A    
C24   O6    A    
C38   C39   A    
C44   H18   S    
Cu2   O6    S    
C3    C55   A    
C43   C53   A    
C32   N2    A    
C52   C54   A    
C31   N1    A    
C13   H28   S    
C50   C52   A    
O14   H32   S    
C31   C33   A    
C55   H23   S    
C34   C36   A    
C16   C20   A    
C40   C42   A    
C1    O1    A    
C34   C38   A    
C4    C56   A    
C3    C24   S    
C28   H14   S    
Cu2   O7    S    
C29   N1    A    
S2    O12   D    
C44   C46   A    
C45   C47   A    
C43   H17   S    
C31   H10   S    
C5    C48   S    
C46   C48   A    
Cu1   N2    S    
C2    O4    A    
C19   C22   A    
C4    C6    A    
C6    C47   S    
C46   H20   S    
C4    C23   S    
C41   H7    S    
C27   C35   A    
C33   C37   A    
C51   C53   A    
C32   C34   A    
C7    C11   A    
C37   C38   A    
C49   S1    S    
C9    C11   A    
S1    O9    D    
C11   H30   S    
C8    C12   A    
C16   C18   A    
C2    O2    A    
C43   C45   A    
C10   C12   A    
C32   H9    S    
C9    C17   A    
S1    O10   D    
Cu1   O4    S    
C13   C15   A    
Cu1   O5    S    
C24   O8    A    
C10   H4    S    
C30   H11   S    
C27   H13   S    
C25   H25   S    
C29   H12   S    
C15   C17   A    
C21   C25   A    
C8    C14   A    
Cu1   O1    S    
C12   H29   S    
C23   O7    A    
C1    C7    S    
C2    C8    S    
C14   H27   S    
C3    C5    A    
C56   H24   S    
C47   C49   A    
C17   C25   A    
C28   C30   A    
C26   H26   S    
Cu1   Cu2   S    
C10   C18   A    
Cu1   O8    S    
C48   C50   A    
C33   C35   A    
C40   H16   S    
C14   C16   A    
C39   H15   S    
O11   H31   S    
C35   C41   A    
Cu2   N1    S    
C51   H21   S    
C21   H5    S    
C22   H6    S    
C44   C54   A    
C7    C13   A    
S1    O11   S    
C20   C21   A    
C28   C36   A    
C1    O3    A    
C22   C26   A    
C42   H8    S    
C45   H19   S    
C52   H22   S    
Cu2   O2    S    
S2    O14   S    
