data_mof_unit_50326.cif
_audit_creation_date              2013-03-05T16:10:46-0500
_audit_creation_method            fapswitch 2.2
_symmetry_space_group_name_H-M    P1
_symmetry_Int_Tables_number       1
_space_group_crystal_system       triclinic
_cell_length_a                    22.434642
_cell_length_b                    7.088757
_cell_length_c                    19.456517
_cell_angle_alpha                 89.754984
_cell_angle_beta                  99.21767
_cell_angle_gamma                 89.911243
_cell_volume                      3054.25040627

loop_
_atom_site_label
_atom_site_type_symbol
_atom_site_description
_atom_site_fract_x
_atom_site_fract_y
_atom_site_fract_z
_atom_type_partial_charge
O1    O     O_R   0.443980 0.494320 0.557430 -0.591038
O2    O     O_R   0.556020 0.994320 0.442570 -0.580600
O3    O     O_R   0.441210 0.822520 0.414610 -0.589704
O4    O     O_R   0.558790 0.322520 0.585390 -0.611483
C1    C     C_R   0.425205 0.655711 0.389968 0.949043
C2    C     C_R   0.574483 0.154670 0.610107 0.988227
O5    O     O_R   0.436920 0.823940 0.555180 -0.590002
O6    O     O_R   0.563080 0.323940 0.444820 -0.599105
O7    O     O_R   0.551700 0.995760 0.584140 -0.578193
O8    O     O_R   0.448300 0.495760 0.415860 -0.580236
C3    C     C_R   0.422212 0.655472 0.575662 0.935702
C4    C     C_R   0.577342 0.155676 0.423788 0.965311
O9    O     O_3   0.537660 0.661290 0.509340 -0.277264
O10   O     O_3   0.462340 0.161290 0.490660 -0.275524
V1    V     V_3+5 0.493010 0.935560 0.498270 1.177626
V2    V     V_3+5 0.506990 0.435560 0.501730 1.163325
H1    H     H_    0.677012 0.839299 0.258933 0.172828
H2    H     H_    0.318646 0.332709 0.735923 0.173372
C5    C     C_R   0.751462 0.934145 0.209052 0.339810
C6    C     C_R   0.245208 0.429824 0.786956 0.335651
C7    C     C_R   0.791725 0.085776 0.202874 -0.059799
C8    C     C_R   0.206424 0.584392 0.794786 -0.058085
C9    C     C_R   0.787071 0.251161 0.241272 -0.102981
C10   C     C_R   0.212166 0.751889 0.757542 -0.097774
H3    H     H_    0.817303 0.368239 0.237149 0.196584
H4    H     H_    0.182911 0.870919 0.762746 0.199853
C11   C     C_R   0.743644 0.267925 0.285355 -0.123362
C12   C     C_R   0.255577 0.768501 0.713424 -0.120742
H5    H     H_    0.741274 0.396924 0.314472 0.137210
H6    H     H_    0.258980 0.899535 0.685458 0.139300
C13   C     C_R   0.703760 0.119601 0.291881 0.114124
C14   C     C_R   0.294249 0.617670 0.705572 0.108954
C15   C     C_R   0.707716 0.954242 0.253478 -0.286739
C16   C     C_R   0.288930 0.449643 0.742463 -0.285801
C17   C     C_1   0.837281 0.077684 0.157104 0.152165
C18   C     C_1   0.161511 0.577345 0.841370 0.154616
C19   C     C_1   0.659184 0.135479 0.338457 0.012769
C20   C     C_1   0.339197 0.634183 0.659479 0.011432
C21   C     C_1   0.621996 0.146302 0.377435 -0.283428
C22   C     C_1   0.376861 0.645545 0.621111 -0.287858
C23   C     C_1   0.875569 0.070680 0.119419 -0.176184
C24   C     C_1   0.123778 0.570956 0.879768 -0.164659
C25   C     C_R   0.632647 0.110705 0.800791 0.593281
C26   C     C_R   0.362558 0.743328 0.201840 0.595516
H7    H     H_    0.547284 0.152167 0.735582 0.158663
H8    H     H_    0.443637 0.803324 0.272770 0.160442
C27   C     C_R   0.619054 0.146152 0.675071 -0.294666
C28   C     C_R   0.380604 0.654100 0.324674 -0.295554
C29   C     C_R   0.916046 0.123237 0.761939 0.345379
C30   C     C_R   0.087222 0.542501 0.240451 0.346117
C31   C     C_R   0.880039 0.185467 0.701016 -0.224921
C32   C     C_R   0.124280 0.555177 0.305054 -0.215115
C33   C     C_R   0.817666 0.193991 0.695995 -0.160000
C34   C     C_R   0.185840 0.587858 0.309884 -0.159863
C35   C     C_R   0.787481 0.128790 0.749508 0.173718
C36   C     C_R   0.214287 0.597076 0.250630 0.180205
C37   C     C_R   0.824108 0.081181 0.814096 0.018029
C38   C     C_R   0.176348 0.600670 0.184507 0.022157
C39   C     C_R   0.722468 0.124885 0.742612 -0.140977
C40   C     C_R   0.278483 0.621683 0.255904 -0.134941
C41   C     C_R   0.696267 0.103107 0.804691 -0.217171
C42   C     C_R   0.301750 0.682859 0.195343 -0.209347
C43   C     C_R   0.734062 0.070877 0.869485 0.571117
C44   C     C_R   0.263759 0.680647 0.129546 0.597980
C45   C     C_R   0.796239 0.048419 0.872320 -0.379187
C46   C     C_R   0.202177 0.640352 0.125202 -0.371471
C47   C     C_R   0.682820 0.136757 0.676393 0.486779
C48   C     C_R   0.319944 0.587044 0.319289 0.494041
C49   C     C_R   0.595685 0.141132 0.736996 -0.417054
C50   C     C_R   0.399030 0.740910 0.267229 -0.387198
C51   C     C_R   0.888425 0.078277 0.820252 -0.311830
C52   C     C_R   0.112808 0.570063 0.179272 -0.320685
H9    H     H_    0.794629 0.265951 0.651590 0.168050
H10   H     H_    0.209664 0.619783 0.360489 0.159208
H11   H     H_    0.900476 0.232928 0.657212 0.180283
H12   H     H_    0.104920 0.546678 0.352517 0.175797
H13   H     H_    0.822852 0.010406 0.921882 0.127590
H14   H     H_    0.174095 0.648649 0.074583 0.120809
O11   O     O_R   0.051730 0.724670 0.084120 -0.576426
O12   O     O_R   0.948270 0.224670 0.915880 -0.596984
O13   O     O_R   0.063080 0.393540 0.944820 -0.569099
O14   O     O_R   0.936920 0.893540 0.055180 -0.559280
C53   C     C_R   0.078243 0.562165 0.924959 0.945990
C54   C     C_R   0.921626 0.061992 0.074881 0.943891
O15   O     O_R   0.058800 0.395030 0.085390 -0.594290
O16   O     O_R   0.941200 0.895030 0.914610 -0.579817
O17   O     O_R   0.943980 0.223310 0.057440 -0.577431
O18   O     O_R   0.056020 0.723310 0.942560 -0.566523
C55   C     C_R   0.072835 0.563164 0.111017 1.018020
C56   C     C_R   0.927564 0.064270 0.888809 1.009745
O19   O     O_3   0.962360 0.556290 0.990650 -0.277678
O20   O     O_3   0.037640 0.056290 0.009350 -0.273929
V3    V     V_3+5 0.006980 0.281990 0.001730 1.247374
V4    V     V_3+5 0.993020 0.781990 0.998270 1.261152
N1    N     N_R   0.753712 0.760604 0.171006 0.224619
O21   O     O_R   0.803472 0.703851 0.151276 -0.401679
O22   O     O_R   0.706743 0.650727 0.160159 -0.437613
N2    N     N_R   0.241635 0.253828 0.823639 0.221798
O23   O     O_R   0.191624 0.200345 0.843582 -0.396858
O24   O     O_R   0.287700 0.139484 0.833477 -0.431110
O25   O     O_3   0.709829 0.044645 0.929999 -0.604237
C57   C     C_3   0.725509 0.199305 0.974897 0.323402
H15   H     H_    0.714198 0.336286 0.947416 0.099773
H16   H     H_    0.774490 0.196193 0.996604 0.067030
C58   C     C_3   0.690351 0.187675 0.035434 -0.801372
H17   H     H_    0.698577 0.049379 0.062299 0.251635
H18   H     H_    0.705039 0.301930 0.073218 0.243849
H19   H     H_    0.641286 0.203895 0.016135 0.260289
O26   O     O_3   0.286038 0.727600 0.069196 -0.586478
C59   C     C_3   0.285118 0.566354 0.026374 0.255438
H20   H     H_    0.238200 0.517122 0.008191 0.092122
H21   H     H_    0.311815 0.448991 0.054646 0.094923
C60   C     C_3   0.312629 0.615230 0.962020 -0.787940
H22   H     H_    0.360387 0.658136 0.977034 0.243529
H23   H     H_    0.311173 0.489814 0.927865 0.220525
H24   H     H_    0.286914 0.732172 0.932675 0.272392
O27   O     O_3   0.605960 0.096617 0.860045 -0.605507
C61   C     C_3   0.578478 0.917512 0.861323 0.336457
H25   H     H_    0.610870 0.801875 0.854777 0.096769
H26   H     H_    0.538382 0.907214 0.819661 0.074302
C62   C     C_3   0.557356 0.889055 0.931121 -0.847257
H27   H     H_    0.525865 0.004002 0.940199 0.253480
H28   H     H_    0.533615 0.751792 0.931478 0.206506
H29   H     H_    0.596686 0.888511 0.973767 0.276599
O28   O     O_3   0.383638 0.832865 0.146982 -0.584551
C63   C     C_3   0.431215 0.726880 0.126359 0.305786
H30   H     H_    0.413144 0.595553 0.099824 0.095946
H31   H     H_    0.466793 0.687657 0.170799 0.070837
C64   C     C_3   0.461382 0.844167 0.076020 -0.862690
H32   H     H_    0.483131 0.969918 0.103114 0.251594
H33   H     H_    0.496446 0.758514 0.056257 0.214807
H34   H     H_    0.427586 0.892112 0.031347 0.269902
O29   O     O_3   0.705446 0.095615 0.615467 -0.636005
C65   C     C_3   0.697857 0.249201 0.567884 0.215583
H35   H     H_    0.707706 0.387908 0.594004 0.090286
H36   H     H_    0.651819 0.252796 0.538923 0.108807
C66   C     C_3   0.738922 0.222251 0.513270 -0.857913
H37   H     H_    0.729095 0.084892 0.486653 0.261964
H38   H     H_    0.730825 0.337251 0.473907 0.215247
H39   H     H_    0.787240 0.224393 0.536973 0.250603
O30   O     O_3   0.303965 0.453081 0.365869 -0.619293
C67   C     C_3   0.309135 0.521440 0.434798 0.215217
H40   H     H_    0.297287 0.673858 0.437026 0.055219
H41   H     H_    0.355113 0.498062 0.462398 0.129652
C68   C     C_3   0.268657 0.405800 0.474876 -0.841338
H42   H     H_    0.282900 0.255445 0.476794 0.258287
H43   H     H_    0.272482 0.458995 0.528970 0.212094
H44   H     H_    0.220674 0.414492 0.450127 0.249540
N3    N     N_R   0.980707 0.117638 0.765184 0.232027
O31   O     O_R   0.006869 0.228373 0.725620 -0.380084
O32   O     O_R   0.013050 0.989470 0.802118 -0.390738
N4    N     N_R   0.023639 0.507699 0.238411 0.228084
O33   O     O_R   0.005404 0.407685 0.287285 -0.385183
O34   O     O_R   0.983408 0.591884 0.192874 -0.386308

loop_
_geom_bond_atom_site_label_1
_geom_bond_atom_site_label_2
_geom_bond_distance
_ccdc_geom_bond_type
C43   C45   1.395977 A    
O25   C57   1.414126 S    
O14   V4    1.971353 S    
C35   C39   1.443469 A    
C11   H5    1.083475 S    
C18   C24   1.216243 T    
N1    O21   1.301039 A    
O1    C3    1.313988 A    
C54   O17   1.314278 A    
C43   O25   1.385599 S    
O2    C4    1.313315 A    
C65   C66   1.526166 S    
C68   H42   1.110983 S    
O3    V1    2.012499 S    
O5    C3    1.316493 A    
C58   H18   1.110535 S    
C63   H30   1.111660 S    
C5    C7    1.422110 A    
C10   H4    1.083187 S    
C60   H22   1.107846 S    
N3    O32   1.301413 A    
N3    O31   1.301622 A    
C39   C47   1.445651 A    
C57   C58   1.520932 S    
C40   C42   1.429098 A    
C41   C43   1.419496 A    
C30   C52   1.414847 A    
C61   H25   1.115773 S    
C27   C49   1.389179 A    
C62   H29   1.110143 S    
C42   C44   1.419935 A    
O16   V4    2.005711 S    
C68   H43   1.109871 S    
C59   H20   1.112555 S    
O15   V3    2.012698 S    
C38   C46   1.399381 A    
C29   C31   1.392797 A    
C30   C32   1.394845 A    
C13   C15   1.403067 A    
C26   C50   1.398099 A    
C14   C20   1.457409 S    
C60   H24   1.111287 S    
C6    C16   1.415178 A    
O5    V1    1.969154 S    
C53   O18   1.314155 A    
O6    V2    1.971390 S    
C34   H10   1.067718 S    
C67   C68   1.525915 S    
C57   H15   1.115568 S    
H1    C15   1.083563 S    
C2    O7    1.307426 A    
C27   C47   1.428116 A    
C58   H19   1.110272 S    
C32   C34   1.389043 A    
C34   C36   1.405655 A    
C33   C35   1.406765 A    
C46   H14   1.082104 S    
C1    C28   1.485986 S    
O18   V4    1.959187 S    
C26   O28   1.386563 S    
C39   C41   1.433306 A    
C45   H13   1.082501 S    
C2    C27   1.481687 S    
H7    C49   1.084505 S    
C12   C14   1.400076 A    
O11   V4    1.994417 S    
O4    C2    1.307874 A    
O16   C56   1.315062 A    
C28   C50   1.393455 A    
O15   C55   1.313105 A    
C65   H36   1.094649 S    
C63   C64   1.521747 S    
O3    C1    1.306921 A    
C23   C54   1.452395 S    
C11   C13   1.400164 A    
C37   C51   1.428746 A    
C13   C19   1.457675 S    
C31   C33   1.388231 A    
C61   C62   1.521055 S    
C44   C46   1.400531 A    
O4    V2    2.005509 S    
H8    C50   1.084459 S    
C30   N4    1.442321 S    
O19   V3    2.179601 S    
O13   V3    1.969119 S    
O14   C54   1.317330 A    
O6    C4    1.318137 A    
O20   V4    2.184008 S    
C48   O30   1.396231 S    
O1    V2    1.959360 S    
C28   C48   1.430270 A    
C57   H16   1.112461 S    
O2    V1    1.958318 S    
C66   H38   1.110733 S    
C59   C60   1.520935 S    
C62   H27   1.110725 S    
C25   O27   1.384894 S    
C61   H26   1.112957 S    
N4    O34   1.301296 A    
C9    C11   1.402569 A    
C7    C9    1.405555 A    
C5    C15   1.415280 A    
O29   C65   1.418365 S    
C8    C10   1.405174 A    
C6    C8    1.421886 A    
C31   H11   1.083045 S    
C68   H44   1.108119 S    
C5    N1    1.443417 S    
C25   C41   1.418034 A    
C64   H32   1.110649 S    
C66   H37   1.110539 S    
C63   H31   1.112729 S    
C47   O29   1.393983 S    
O10   V1    1.737167 S    
C33   H9    1.061185 S    
C24   C53   1.451918 S    
C10   C12   1.402312 A    
C37   C45   1.397593 A    
C32   H12   1.083118 S    
O13   C53   1.316556 A    
N1    O22   1.301635 A    
C65   H35   1.114841 S    
C7    C17   1.460386 S    
C8    C18   1.460000 S    
C58   H17   1.110180 S    
N2    O24   1.301674 A    
C29   N3    1.442360 S    
C26   C42   1.416981 A    
C64   H34   1.109689 S    
C4    C21   1.452977 S    
C35   C37   1.425829 A    
O7    V1    2.002546 S    
C1    O8    1.310548 A    
C19   C21   1.216589 T    
O8    V2    1.998630 S    
O30   C67   1.415190 S    
O19   V4    1.740018 S    
C20   C22   1.216348 T    
C52   C55   1.479648 S    
C38   C52   1.429717 A    
C44   O26   1.387281 S    
O28   C63   1.414932 S    
C51   C56   1.477660 S    
H2    C16   1.083564 S    
C66   H39   1.108111 S    
O17   V3    1.958144 S    
C12   H6    1.083469 S    
O20   V3    1.736890 S    
C36   C38   1.424468 A    
C67   H41   1.095929 S    
C9    H3    1.083430 S    
O12   C56   1.309364 A    
C3    C22   1.452588 S    
C17   C23   1.216518 T    
C59   H21   1.114666 S    
C62   H28   1.110516 S    
C36   C40   1.438328 A    
C6    N2    1.443371 S    
N4    O33   1.301533 A    
C40   C48   1.440683 A    
C25   C49   1.393630 A    
N2    O23   1.301029 A    
C29   C51   1.412650 A    
O9    V2    1.740294 S    
O26   C59   1.415565 S    
C67   H40   1.114955 S    
O11   C55   1.312482 A    
C64   H33   1.110296 S    
O12   V3    1.998153 S    
O27   C61   1.414127 S    
C14   C16   1.403119 A    
C60   H23   1.109634 S    
