data_mof_unit_23276.cif
_audit_creation_date              2012-10-26T17:11:30-0400
_audit_creation_method            fapswitch 2.2
_symmetry_space_group_name_H-M    P1
_symmetry_Int_Tables_number       1
_space_group_crystal_system       triclinic
_cell_length_a                    27.934158
_cell_length_b                    18.741089
_cell_length_c                    16.871159
_cell_angle_alpha                 90.000012
_cell_angle_beta                  62.830543
_cell_angle_gamma                 90.0
_cell_volume                      7857.77067239

loop_
_atom_site_label
_atom_site_type_symbol
_atom_type_description
_atom_site_fract_x
_atom_site_fract_y
_atom_site_fract_z
_atom_type_partial_charge
C1    C     C_R   0.295080 0.728541 0.329576 0.822818
C2    C     C_R   0.705807 0.273230 0.669706 0.831855
C3    C     C_R   0.704863 0.728649 0.670458 0.822392
C4    C     C_R   0.294170 0.273269 0.330288 0.832955
C5    C     C_R   0.795137 0.228649 0.329542 0.822393
C6    C     C_R   0.205830 0.773269 0.669712 0.832965
C7    C     C_R   0.204920 0.228541 0.670424 0.822816
C8    C     C_R   0.794193 0.773230 0.330294 0.831853
C9    C     C_R   0.387929 0.000064 0.537920 0.068547
C10   C     C_R   0.582526 0.999974 0.565635 0.070090
C11   C     C_R   0.917474 0.499974 0.434366 0.070090
C12   C     C_R   0.112071 0.500064 0.462080 0.068547
C13   C     C_R   0.576848 0.871031 0.580884 -0.253800
C14   C     C_R   0.382444 0.128345 0.558254 -0.247020
C15   C     C_R   0.383018 0.871658 0.556594 -0.253620
C16   C     C_R   0.576447 0.128772 0.582712 -0.242787
C17   C     C_R   0.116982 0.371658 0.443406 -0.253620
C18   C     C_R   0.923553 0.628772 0.417287 -0.242787
C19   C     C_R   0.923152 0.371031 0.419116 -0.253799
C20   C     C_R   0.117556 0.628345 0.441746 -0.247020
C21   C     C_R   0.214576 0.753509 0.957036 0.128460
C22   C     C_R   0.773058 0.220741 0.051753 0.128565
C23   C     C_R   0.785062 0.754244 0.043272 0.128139
C24   C     C_R   0.227371 0.219739 0.947871 0.128729
C25   C     C_R   0.714937 0.254243 0.956728 0.128139
C26   C     C_R   0.272629 0.719739 0.052129 0.128730
C27   C     C_R   0.285424 0.253509 0.042964 0.128460
C28   C     C_R   0.726941 0.720742 0.948247 0.128565
C29   C     C_R   0.271101 0.755865 0.914991 -0.178832
C30   C     C_R   0.716490 0.217818 0.094025 -0.177546
C31   C     C_R   0.728539 0.756599 0.085400 -0.178145
C32   C     C_R   0.283949 0.216793 0.905663 -0.178612
C33   C     C_R   0.771461 0.256597 0.914600 -0.178145
C34   C     C_R   0.216051 0.716793 0.094337 -0.178611
C35   C     C_R   0.228899 0.255866 0.085009 -0.178832
C36   C     C_R   0.783510 0.717817 0.905975 -0.177545
C37   C     C_R   0.299732 0.739224 0.961903 -0.181059
C38   C     C_R   0.687681 0.234548 0.046963 -0.177908
C39   C     C_R   0.699866 0.740080 0.038514 -0.181449
C40   C     C_R   0.312724 0.233668 0.952764 -0.177662
C41   C     C_R   0.800134 0.240078 0.961485 -0.181449
C42   C     C_R   0.187276 0.733668 0.047237 -0.177663
C43   C     C_R   0.200268 0.239225 0.038097 -0.181059
C44   C     C_R   0.812319 0.734547 0.953037 -0.177909
C45   C     C_R   0.140683 0.822224 0.946044 -0.271235
C46   C     C_R   0.851225 0.163078 0.060287 -0.282862
C47   C     C_R   0.859073 0.822666 0.054155 -0.270527
C48   C     C_R   0.148994 0.162551 0.939449 -0.281477
C49   C     C_R   0.640927 0.322666 0.945845 -0.270526
C50   C     C_R   0.351005 0.662551 0.060551 -0.281476
C51   C     C_R   0.359317 0.322224 0.053956 -0.271239
C52   C     C_R   0.648775 0.663079 0.939713 -0.282863
C53   C     C_R   0.119926 0.855144 0.893296 -0.159398
C54   C     C_R   0.881921 0.148130 0.104947 -0.159062
C55   C     C_R   0.880112 0.855150 0.106742 -0.159376
C56   C     C_R   0.118117 0.148015 0.894971 -0.160544
C57   C     C_R   0.619888 0.355150 0.893258 -0.159377
C58   C     C_R   0.381883 0.648015 0.105029 -0.160542
C59   C     C_R   0.380074 0.355144 0.106704 -0.159392
C60   C     C_R   0.618079 0.648131 0.895053 -0.159063
C61   C     C_R   0.145379 0.844469 0.800918 0.400962
C62   C     C_R   0.867028 0.177625 0.189418 0.384065
C63   C     C_R   0.854959 0.844101 0.199048 0.396507
C64   C     C_R   0.132998 0.177647 0.810547 0.382537
C65   C     C_R   0.645041 0.344101 0.800952 0.396507
C66   C     C_R   0.367002 0.677647 0.189453 0.382538
C67   C     C_R   0.354621 0.344469 0.199082 0.400964
C68   C     C_R   0.632972 0.677625 0.810581 0.384065
C69   C     C_R   0.184001 0.790613 0.764405 -0.161479
C70   C     C_R   0.817368 0.212579 0.234029 -0.165065
C71   C     C_R   0.816057 0.790580 0.235620 -0.162264
C72   C     C_R   0.182850 0.212153 0.765808 -0.162130
C73   C     C_R   0.683943 0.290580 0.764380 -0.162263
C74   C     C_R   0.317150 0.712153 0.234192 -0.162126
C75   C     C_R   0.315999 0.290612 0.235595 -0.161485
C76   C     C_R   0.682632 0.712578 0.765971 -0.165066
C77   C     C_R   0.204371 0.757475 0.817333 -0.281708
C78   C     C_R   0.786957 0.227420 0.188565 -0.269856
C79   C     C_R   0.795449 0.757818 0.182808 -0.279420
C80   C     C_R   0.213500 0.226438 0.811010 -0.275568
C81   C     C_R   0.704551 0.257817 0.817192 -0.279420
C82   C     C_R   0.286500 0.726438 0.188990 -0.275569
C83   C     C_R   0.295628 0.257475 0.182667 -0.281705
C84   C     C_R   0.713043 0.727420 0.811435 -0.269856
C85   C     C_R   0.201035 0.631206 0.511526 0.810663
C86   C     C_R   0.803614 0.368217 0.471640 0.787841
C87   C     C_R   0.803650 0.631791 0.471511 0.798880
C88   C     C_R   0.200938 0.368828 0.511819 0.801489
C89   C     C_R   0.696350 0.131791 0.528489 0.798879
C90   C     C_R   0.299062 0.868828 0.488181 0.801494
C91   C     C_R   0.298965 0.131206 0.488474 0.810666
C92   C     C_R   0.696386 0.868217 0.528360 0.787839
C93   C     C_R   0.185073 0.776261 0.907157 0.080698
C94   C     C_R   0.804260 0.204053 0.100846 0.077853
C95   C     C_R   0.814647 0.776786 0.093076 0.079493
C96   C     C_R   0.196154 0.203137 0.898752 0.080330
C97   C     C_R   0.685353 0.276786 0.906924 0.079494
C98   C     C_R   0.303846 0.703137 0.101248 0.080330
C99   C     C_R   0.314926 0.276261 0.092844 0.080699
C100  C     C_R   0.695740 0.704053 0.899154 0.077853
C101  C     C_R   0.925490 0.904728 0.067336 0.821035
C102  C     C_R   0.073314 0.097178 0.933611 0.804123
C103  C     C_R   0.074547 0.904762 0.932644 0.821501
C104  C     C_R   0.926665 0.097162 0.066391 0.806572
C105  C     C_R   0.425453 0.404762 0.067356 0.821511
C106  C     C_R   0.573335 0.597162 0.933609 0.806573
C107  C     C_R   0.574510 0.404728 0.932664 0.821033
C108  C     C_R   0.426686 0.597178 0.066389 0.804129
C109  C     C_R   0.070639 0.628715 0.431233 0.094313
C110  C     C_R   0.972608 0.370849 0.421442 0.101793
C111  C     C_R   0.973379 0.628936 0.418533 0.098037
C112  C     C_R   0.069832 0.371206 0.433858 0.095446
C113  C     C_R   0.526621 0.128936 0.581467 0.098037
C114  C     C_R   0.430168 0.871206 0.566142 0.095446
C115  C     C_R   0.429361 0.128715 0.568767 0.094314
C116  C     C_R   0.527392 0.870849 0.578558 0.101793
C117  C     C_R   0.050261 0.692571 0.414903 -0.204234
C118  C     C_R   0.000354 0.306841 0.414539 -0.205195
C119  C     C_R   0.001924 0.692713 0.408899 -0.196720
C120  C     C_R   0.048790 0.307058 0.419964 -0.204890
C121  C     C_R   0.498076 0.192713 0.591101 -0.196719
C122  C     C_R   0.451210 0.807058 0.580036 -0.204889
C123  C     C_R   0.449739 0.192571 0.585097 -0.204235
C124  C     C_R   0.499646 0.806841 0.585461 -0.205196
C125  C     C_R   0.995010 0.564526 0.430078 0.029893
C126  C     C_R   0.043215 0.435517 0.438319 0.032074
C127  C     C_R   0.043619 0.564501 0.436971 0.032161
C128  C     C_R   0.994628 0.435427 0.431453 0.030150
C129  C     C_R   0.456381 0.064501 0.563029 0.032161
C130  C     C_R   0.505372 0.935427 0.568547 0.030150
C131  C     C_R   0.504990 0.064526 0.569922 0.029893
C132  C     C_R   0.456784 0.935517 0.561681 0.032073
C133  C     C_R   0.433772 0.000044 0.553780 -0.050110
C134  C     C_R   0.531074 0.999984 0.567925 -0.051626
C135  C     C_R   0.968926 0.499984 0.432075 -0.051626
C136  C     C_R   0.066228 0.500044 0.446220 -0.050110
C137  C     C_R   0.364677 0.934489 0.531445 0.046080
C138  C     C_R   0.607905 0.065697 0.564907 0.045647
C139  C     C_R   0.608046 0.934231 0.564302 0.046388
C140  C     C_R   0.364464 0.065618 0.532096 0.048502
C141  C     C_R   0.891954 0.434231 0.435698 0.046387
C142  C     C_R   0.135536 0.565618 0.467905 0.048503
C143  C     C_R   0.135323 0.434489 0.468556 0.046081
C144  C     C_R   0.892095 0.565697 0.435093 0.045647
C145  C     C_R   0.323374 0.934926 0.502931 -0.111379
C146  C     C_R   0.663130 0.065532 0.547463 -0.107253
C147  C     C_R   0.663186 0.934448 0.547243 -0.110006
C148  C     C_R   0.323260 0.065157 0.503293 -0.107601
C149  C     C_R   0.836814 0.434448 0.452757 -0.110006
C150  C     C_R   0.176740 0.565157 0.496707 -0.107604
C151  C     C_R   0.176626 0.434926 0.497069 -0.111384
C152  C     C_R   0.836870 0.565532 0.452537 -0.107253
C153  C     C_R   0.304431 0.000048 0.488380 -0.299597
C154  C     C_R   0.689222 0.999994 0.539379 -0.285223
C155  C     C_R   0.810778 0.499994 0.460620 -0.285222
C156  C     C_R   0.195569 0.500048 0.511620 -0.299600
Cu1   Cu    Cu3+1 0.209920 0.785290 0.495070 0.944212
Cu2   Cu    Cu3+1 0.790080 0.214710 0.504930 0.938431
Cu3   Cu    Cu3+1 0.790080 0.785290 0.504930 0.946682
Cu4   Cu    Cu3+1 0.209920 0.214710 0.495070 0.929181
Cu5   Cu    Cu3+1 0.709920 0.285290 0.495070 0.946682
Cu6   Cu    Cu3+1 0.290080 0.714710 0.504930 0.929182
Cu7   Cu    Cu3+1 0.290080 0.285290 0.504930 0.944211
Cu8   Cu    Cu3+1 0.709920 0.714710 0.495070 0.938431
Cu9   Cu    Cu3+1 0.495240 0.500000 0.924150 0.959410
Cu10  Cu    Cu3+1 0.504760 0.500000 0.075850 0.966346
Cu11  Cu    Cu3+1 0.995240 0.000000 0.924150 0.966348
Cu12  Cu    Cu3+1 0.004760 0.000000 0.075850 0.959409
H1    H     H_    0.515974 0.756384 0.592819 0.136559
H2    H     H_    0.428984 0.242667 0.591113 0.136558
H3    H     H_    0.430983 0.756805 0.584302 0.135151
H4    H     H_    0.513642 0.242896 0.601503 0.142338
H5    H     H_    0.069017 0.256805 0.415699 0.135151
H6    H     H_    0.986358 0.742896 0.398497 0.142338
H7    H     H_    0.984026 0.256384 0.407181 0.136559
H8    H     H_    0.071015 0.742667 0.408886 0.136558
H9    H     H_    0.273760 0.000053 0.465905 0.188334
H10   H     H_    0.731411 1.000000 0.523628 0.186916
H11   H     H_    0.768589 0.500000 0.476372 0.186916
H12   H     H_    0.226240 0.500053 0.534095 0.188340
H13   H     H_    0.589178 0.821308 0.597823 0.177161
H14   H     H_    0.360350 0.177599 0.574140 0.178891
H15   H     H_    0.361096 0.822298 0.572505 0.180234
H16   H     H_    0.588961 0.178353 0.599721 0.177660
H17   H     H_    0.138904 0.322298 0.427495 0.180234
H18   H     H_    0.911039 0.678354 0.400279 0.177660
H19   H     H_    0.910822 0.321308 0.402177 0.177161
H20   H     H_    0.139650 0.677599 0.425860 0.178890
H21   H     H_    0.143759 0.731000 0.081200 0.133861
H22   H     H_    0.843611 0.243979 0.927488 0.131212
H23   H     H_    0.855834 0.731857 0.919023 0.134213
H24   H     H_    0.156792 0.243196 0.072041 0.131811
H25   H     H_    0.644166 0.231860 0.080978 0.134213
H26   H     H_    0.343207 0.743195 0.927958 0.131811
H27   H     H_    0.356241 0.231000 0.918800 0.133861
H28   H     H_    0.656388 0.743983 0.072511 0.131212
H29   H     H_    0.293284 0.772674 0.846204 0.132864
H30   H     H_    0.694548 0.202032 0.163210 0.133943
H31   H     H_    0.706395 0.773280 0.154234 0.134989
H32   H     H_    0.305927 0.200928 0.836499 0.131872
H33   H     H_    0.793605 0.273276 0.845765 0.134988
H34   H     H_    0.194073 0.700928 0.163501 0.131872
H35   H     H_    0.206716 0.272675 0.153796 0.132863
H36   H     H_    0.805452 0.702030 0.836791 0.133943
H37   H     H_    0.124255 0.835376 0.016095 0.168662
H38   H     H_    0.862866 0.140953 0.994696 0.171565
H39   H     H_    0.875346 0.836055 0.984194 0.169736
H40   H     H_    0.137328 0.140404 0.005038 0.170442
H41   H     H_    0.624654 0.336056 0.015806 0.169736
H42   H     H_    0.362672 0.640403 0.994962 0.170442
H43   H     H_    0.375745 0.335376 0.983905 0.168662
H44   H     H_    0.637134 0.640954 0.005304 0.171566
H45   H     H_    0.236646 0.718855 0.788030 0.168890
H46   H     H_    0.749607 0.256877 0.221514 0.169722
H47   H     H_    0.763084 0.719327 0.212131 0.170230
H48   H     H_    0.251008 0.255539 0.777892 0.166041
H49   H     H_    0.736915 0.219326 0.787869 0.170229
H50   H     H_    0.248992 0.755539 0.222108 0.166041
H51   H     H_    0.263354 0.218856 0.211970 0.168890
H52   H     H_    0.750394 0.756877 0.778486 0.169722
O1    O     O_R   0.255040 0.869590 0.478480 -0.588955
O2    O     O_R   0.744960 0.130410 0.521520 -0.589545
O3    O     O_R   0.744960 0.869590 0.521520 -0.588984
O4    O     O_R   0.255040 0.130410 0.478480 -0.589615
O5    O     O_R   0.755040 0.369590 0.478480 -0.588985
O6    O     O_R   0.244960 0.630410 0.521520 -0.589616
O7    O     O_R   0.244960 0.369590 0.521520 -0.588949
O8    O     O_R   0.755040 0.630410 0.478480 -0.589545
O9    O     O_R   0.182050 0.796550 0.624440 -0.527753
O10   O     O_R   0.817950 0.203450 0.375560 -0.544306
O11   O     O_R   0.817950 0.796550 0.375560 -0.537470
O12   O     O_R   0.182050 0.203450 0.624440 -0.537947
O13   O     O_R   0.682050 0.296550 0.624440 -0.537468
O14   O     O_R   0.317950 0.703450 0.375560 -0.537945
O15   O     O_R   0.317950 0.296550 0.375560 -0.527759
O16   O     O_R   0.682050 0.703450 0.624440 -0.544306
O17   O     O_R   0.250530 0.763330 0.367210 -0.610040
O18   O     O_R   0.749470 0.236670 0.632790 -0.599341
O19   O     O_R   0.749470 0.763330 0.632790 -0.596615
O20   O     O_R   0.250530 0.236670 0.367210 -0.611852
O21   O     O_R   0.750530 0.263330 0.367210 -0.596615
O22   O     O_R   0.249470 0.736670 0.632790 -0.611854
O23   O     O_R   0.249470 0.263330 0.632790 -0.610039
O24   O     O_R   0.750530 0.736670 0.367210 -0.599341
O25   O     O_R   0.177260 0.690030 0.513710 -0.598307
O26   O     O_R   0.822740 0.309970 0.486290 -0.598454
O27   O     O_R   0.822740 0.690030 0.486290 -0.596592
O28   O     O_R   0.177260 0.309970 0.513710 -0.604486
O29   O     O_R   0.677260 0.190030 0.513710 -0.596592
O30   O     O_R   0.322740 0.809970 0.486290 -0.604487
O31   O     O_R   0.322740 0.190030 0.486290 -0.598307
O32   O     O_R   0.677260 0.809970 0.513710 -0.598454
O33   O     O_R   0.051640 0.926880 0.885090 -0.532021
O34   O     O_R   0.948360 0.073120 0.114910 -0.540177
O35   O     O_R   0.948360 0.926880 0.114910 -0.533791
O36   O     O_R   0.051640 0.073120 0.885090 -0.540659
O37   O     O_R   0.551640 0.426880 0.885090 -0.533792
O38   O     O_R   0.448360 0.573120 0.114910 -0.540669
O39   O     O_R   0.448360 0.426880 0.114910 -0.532017
O40   O     O_R   0.551640 0.573120 0.885090 -0.540175
O41   O     O_R   0.940620 0.926560 0.986760 -0.601785
O42   O     O_R   0.059380 0.073440 0.013240 -0.609068
O43   O     O_R   0.059380 0.926560 0.013240 -0.602941
O44   O     O_R   0.940620 0.073440 0.986760 -0.607094
O45   O     O_R   0.440620 0.426560 0.986760 -0.602943
O46   O     O_R   0.559380 0.573440 0.013240 -0.607094
O47   O     O_R   0.559380 0.426560 0.013240 -0.601785
O48   O     O_R   0.440620 0.573440 0.986760 -0.609067
O49   O     O_3   0.134044 0.888681 0.745735 -0.548497
C157  C     C_3   0.169038 0.948188 0.722711 0.076610
H53   H     H_    0.211903 0.931102 0.686092 0.118407
H54   H     H_    0.163123 0.978827 0.783139 0.124052
C158  C     C_3   0.157259 0.997831 0.662485 -0.672407
H55   H     H_    0.114891 0.016504 0.697353 0.265380
H56   H     H_    0.184390 0.044861 0.644691 0.204547
H57   H     H_    0.163973 0.969473 0.600463 0.233211
O50   O     O_3   0.899368 0.167874 0.230785 -0.555022
C159  C     C_3   0.935447 0.225877 0.208707 0.105506
H58   H     H_    0.913490 0.275334 0.242433 0.125272
H59   H     H_    0.957136 0.235102 0.135308 0.114193
C160  C     C_3   0.977182 0.209606 0.240407 -0.787157
H60   H     H_    0.002399 0.163665 0.202612 0.250993
H61   H     H_    0.003449 0.256808 0.229872 0.194877
H62   H     H_    0.956719 0.195982 0.312341 0.238630
O51   O     O_3   0.867166 0.887319 0.254068 -0.549848
C161  C     C_3   0.832691 0.947403 0.278348 0.083675
H63   H     H_    0.789771 0.930932 0.316464 0.121800
H64   H     H_    0.837933 0.978311 0.218460 0.123158
C162  C     C_3   0.846101 0.996413 0.337268 -0.682455
H65   H     H_    0.888539 0.014569 0.300809 0.266086
H66   H     H_    0.819279 0.043807 0.356339 0.207629
H67   H     H_    0.840253 0.967728 0.398645 0.231792
O52   O     O_3   0.100514 0.168718 0.769223 -0.555643
C163  C     C_3   0.064567 0.226936 0.792287 0.105546
H68   H     H_    0.086837 0.278304 0.769638 0.126795
H69   H     H_    0.038323 0.228993 0.865666 0.117120
C164  C     C_3   0.028775 0.218231 0.746896 -0.754036
H70   H     H_    0.005528 0.167763 0.768915 0.242981
H71   H     H_    0.000214 0.263670 0.764641 0.188188
H72   H     H_    0.053764 0.217017 0.673421 0.248945
O53   O     O_3   0.632834 0.387319 0.745931 -0.549848
C165  C     C_3   0.667308 0.447404 0.721654 0.083678
H73   H     H_    0.710229 0.430934 0.683541 0.121796
H74   H     H_    0.662063 0.478313 0.781542 0.123161
C166  C     C_3   0.653900 0.496412 0.662729 -0.682457
H75   H     H_    0.611461 0.514564 0.699183 0.266082
H76   H     H_    0.680719 0.543808 0.643663 0.207631
H77   H     H_    0.659753 0.467727 0.601350 0.231791
O54   O     O_3   0.399487 0.668719 0.230776 -0.555652
C167  C     C_3   0.435433 0.726937 0.207711 0.105542
H78   H     H_    0.413163 0.778305 0.230361 0.126796
H79   H     H_    0.461677 0.728994 0.134333 0.117121
C168  C     C_3   0.471226 0.718233 0.253103 -0.754038
H80   H     H_    0.494472 0.667764 0.231083 0.242981
H81   H     H_    0.499786 0.763672 0.235357 0.188189
H82   H     H_    0.446237 0.717018 0.326578 0.248946
O55   O     O_3   0.365957 0.388681 0.254263 -0.548497
C169  C     C_3   0.330957 0.448182 0.277299 0.076601
H83   H     H_    0.288094 0.431090 0.313938 0.118423
H84   H     H_    0.336857 0.478816 0.216876 0.124035
C170  C     C_3   0.342746 0.497835 0.337506 -0.672405
H85   H     H_    0.385110 0.516528 0.302609 0.265396
H86   H     H_    0.315602 0.544852 0.355327 0.204538
H87   H     H_    0.336061 0.469476 0.399515 0.233217
O56   O     O_3   0.600632 0.667874 0.769215 -0.555021
C171  C     C_3   0.564554 0.725878 0.791292 0.105507
H88   H     H_    0.586510 0.775334 0.757564 0.125272
H89   H     H_    0.542865 0.735104 0.864691 0.114192
C172  C     C_3   0.522818 0.709606 0.759594 -0.787159
H90   H     H_    0.497601 0.663666 0.797391 0.250994
H91   H     H_    0.496551 0.756808 0.770129 0.194877
H92   H     H_    0.543280 0.695981 0.687661 0.238630

loop_
_geom_bond_atom_site_label_1
_geom_bond_atom_site_label_2
_ccdc_geom_bond_type
C85   O25   A    
C22   C94   S    
C34   C42   A    
C16   C113  A    
C110  C118  A    
C80   H48   S    
O53   C165  S    
C160  H62   S    
C90   O30   A    
C27   C99   S    
C13   C139  A    
C117  C119  A    
C88   O7    A    
C29   C37   A    
C8    O24   A    
C158  H57   S    
C30   C38   A    
C109  C127  A    
C111  C125  A    
C102  O42   A    
C171  H88   S    
Cu5   O21   S    
C169  C170  S    
C125  C135  A    
C143  C151  A    
C126  C136  A    
C19   C141  A    
C92   C147  S    
C82   C98   A    
C78   H46   S    
C130  C134  A    
Cu4   O28   S    
Cu7   O7    S    
C73   C81   A    
C14   H14   S    
C66   O54   S    
C165  H74   S    
C7    O12   A    
C167  H79   S    
C115  C123  A    
C77   H45   S    
C84   C100  A    
Cu4   Cu7   S    
C127  C136  A    
C128  C135  A    
C112  C120  A    
C27   C35   A    
C21   C29   A    
Cu3   O11   S    
C24   C32   A    
C5    C70   S    
C2    O13   A    
C146  C154  A    
Cu12  O34   S    
C48   H40   S    
C171  C172  S    
Cu10  O46   S    
Cu2   O18   S    
C129  C133  A    
Cu4   O4    S    
C63   C71   A    
C157  H54   S    
C36   C44   A    
C148  C153  A    
C32   C40   A    
C54   C104  S    
C8    C71   S    
C48   C96   A    
C161  C162  S    
C16   C138  A    
C16   H16   S    
C87   O27   A    
C52   C100  A    
C38   H25   S    
C65   O53   S    
C24   C96   S    
C149  C155  A    
C161  H64   S    
C156  H12   S    
C21   C93   S    
C78   C94   A    
Cu7   O31   S    
Cu9   O37   S    
C118  C120  A    
C121  C123  A    
C63   O51   S    
C49   C97   A    
C21   C42   A    
C164  H70   S    
C116  C130  A    
C87   O8    A    
C52   H44   S    
C24   C43   A    
C4    O15   A    
C10   C138  A    
C91   O4    A    
Cu12  O42   S    
Cu1   Cu6   S    
C110  C128  A    
C15   C137  A    
C9    C133  A    
C6    C69   S    
Cu11  O33   S    
C69   C77   A    
C45   C93   A    
C71   C79   A    
Cu1   O9    S    
C62   C70   A    
C1    C74   S    
C101  O35   A    
C119  H6    S    
C9    C140  A    
C168  H81   S    
C20   H20   S    
C105  O45   A    
C66   C74   A    
C49   C57   A    
C111  C119  A    
C108  O48   A    
C169  H84   S    
C52   C60   A    
C59   C67   A    
C53   C61   A    
C23   C95   S    
C166  H76   S    
C55   C63   A    
C56   C64   A    
Cu7   O23   S    
C35   C43   A    
C45   C53   A    
O50   C159  S    
Cu1   O1    S    
C164  H71   S    
Cu6   O6    S    
C92   O32   A    
C153  H9    S    
C50   C98   A    
Cu2   O2    S    
C90   O1    A    
C7    C72   S    
C1    O17   A    
Cu9   O48   S    
O52   C163  S    
C25   C38   A    
C88   O28   A    
C83   H51   S    
C46   C94   A    
C27   C40   A    
C170  H87   S    
C81   H49   S    
C162  H65   S    
Cu5   O13   S    
C11   C141  A    
C60   C68   A    
C2    C73   S    
C25   C97   S    
C30   H30   S    
C14   C140  A    
C43   H24   S    
C170  H85   S    
C13   H13   S    
C87   C152  S    
C88   C151  S    
C67   C75   A    
C122  C124  A    
C60   C106  S    
C125  C127  A    
C46   H38   S    
C126  C128  A    
C22   C30   A    
C160  H61   S    
C104  O44   A    
C12   C143  A    
C107  O37   A    
C56   C102  S    
C72   C80   A    
Cu5   O29   S    
C138  C146  A    
C158  H56   S    
C102  O36   A    
C123  H2    S    
Cu7   O15   S    
C121  H4    S    
C113  C121  A    
C50   H42   S    
C122  H3    S    
C12   C136  A    
C3    O19   A    
C86   O5    A    
C159  H58   S    
C6    O22   A    
C171  H89   S    
Cu1   O25   S    
C25   C33   A    
C40   H27   S    
C67   O55   S    
Cu8   O16   S    
C131  C134  A    
C76   C84   A    
C31   H31   S    
C109  C117  A    
C91   O31   A    
C59   C105  S    
C89   O29   A    
Cu10  O38   S    
C137  C145  A    
C90   C145  S    
C163  H68   S    
C8    O11   A    
C22   C41   A    
C14   C115  A    
C162  H67   S    
Cu11  O41   S    
C85   C150  S    
C4    C75   S    
Cu2   Cu5   S    
C19   H19   S    
C9    C137  A    
C124  H1    S    
C17   H17   S    
C159  C160  S    
C15   H15   S    
Cu10  O47   S    
C64   O52   S    
C62   O50   S    
Cu6   O22   S    
C113  C131  A    
C112  C126  A    
C83   C99   A    
O49   C157  S    
C157  C158  S    
C140  C148  A    
C74   C82   A    
C61   O49   S    
C155  H11   S    
C106  O46   A    
C141  C149  A    
C50   C58   A    
C163  C164  S    
Cu11  Cu12  S    
C54   C62   A    
C28   C39   A    
C23   C44   A    
C130  C132  A    
C79   C95   A    
O51   C161  S    
C11   C135  A    
C3    O16   A    
C152  C155  A    
C1    O14   A    
C46   C54   A    
C4    O20   A    
C151  C156  A    
C18   C111  A    
Cu1   O17   S    
C154  H10   S    
C103  O33   A    
C68   C76   A    
C10   C139  A    
Cu8   O24   S    
C167  H78   S    
C45   H37   S    
Cu11  O36   S    
C116  C124  A    
Cu8   O32   S    
C92   O3    A    
C57   C65   A    
C26   C37   A    
C39   H28   S    
C5    O10   A    
C17   C143  A    
C33   C41   A    
C37   H26   S    
C142  C150  A    
C18   C144  A    
C32   H32   S    
C42   H21   S    
C75   C83   A    
C168  H80   S    
C53   C103  S    
C77   C93   A    
C12   C142  A    
C58   C108  S    
O56   C171  S    
C13   C116  A    
Cu6   O14   S    
C28   C36   A    
C144  C152  A    
C166  H75   S    
C49   H41   S    
Cu3   O19   S    
C157  H53   S    
C23   C31   A    
C167  C168  S    
Cu9   Cu10  S    
C101  O41   A    
C70   C78   A    
C172  H90   S    
C108  O38   A    
Cu2   O10   S    
C104  O34   A    
O54   C167  S    
C165  C166  S    
C139  C147  A    
C41   H22   S    
C34   H34   S    
C44   H23   S    
C161  H63   S    
C65   C73   A    
C147  C154  A    
C58   C66   A    
C132  C133  A    
C170  H86   S    
C80   C96   A    
C84   H52   S    
C11   C144  A    
C145  C153  A    
C28   C100  S    
C79   H47   S    
C105  O39   A    
Cu9   O45   S    
C106  O40   A    
C91   C148  S    
C26   C34   A    
Cu5   O5    S    
C51   C99   A    
C89   C146  S    
C20   C142  A    
C86   C149  S    
C89   O2    A    
C2    O18   A    
C168  H82   S    
C164  H72   S    
C160  H60   S    
Cu12  O35   S    
C18   H18   S    
C169  H83   S    
C82   H50   S    
C166  H77   S    
Cu4   O12   S    
C158  H55   S    
C172  H91   S    
C15   C114  A    
Cu8   O8    S    
C3    C76   S    
Cu3   O27   S    
C26   C98   S    
C117  H8    S    
C57   C107  S    
C118  H7    S    
C29   H29   S    
C107  O47   A    
C172  H92   S    
C159  H59   S    
C51   C59   A    
C17   C112  A    
C47   C55   A    
C115  C129  A    
C19   C110  A    
C61   C69   A    
C48   C56   A    
C165  H73   S    
C103  O43   A    
Cu4   O20   S    
Cu3   Cu8   S    
C114  C132  A    
C10   C134  A    
C68   O56   S    
Cu2   O26   S    
C55   C101  S    
Cu9   O40   S    
C47   H39   S    
Cu10  O39   S    
Cu6   O30   S    
C163  H69   S    
C35   H35   S    
C81   C97   A    
Cu3   O3    S    
C33   H33   S    
C162  H66   S    
C31   C39   A    
Cu11  O44   S    
C64   C72   A    
O55   C169  S    
Cu12  O43   S    
C20   C109  A    
C114  C122  A    
C51   H43   S    
C120  H5    S    
C86   O26   A    
C6    O9    A    
C7    O23   A    
C47   C95   A    
C150  C156  A    
C85   O6    A    
C36   H36   S    
C5    O21   A    
C129  C131  A    
