data_mof_unit_13476.cif
_audit_creation_date              2012-12-10T16:54:52-0500
_audit_creation_method            fapswitch 2.2
_symmetry_space_group_name_H-M    P1
_symmetry_Int_Tables_number       1
_space_group_crystal_system       triclinic
_cell_length_a                    7.800372
_cell_length_b                    8.610849
_cell_length_c                    15.733731
_cell_angle_alpha                 91.733858
_cell_angle_beta                  85.244408
_cell_angle_gamma                 93.135815
_cell_volume                      1051.23405601

loop_
_atom_site_label
_atom_site_type_symbol
_atom_type_description
_atom_site_fract_x
_atom_site_fract_y
_atom_site_fract_z
_atom_type_partial_charge
C1    C     C_R   0.544582 0.794044 0.496336 0.871382
C2    C     C_2   0.436862 0.044430 0.517516 0.219030
C3    C     C_R   0.501159 0.500711 0.661464 0.875393
C4    C     C_R   0.455423 0.205959 0.503691 0.859863
C5    C     C_R   0.498793 0.499046 0.338535 0.867293
C6    C     C_3   0.422261 0.649395 0.956411 0.531286
C7    C     C_3   0.688327 0.486648 0.943124 0.161111
C8    C     C_3   0.690448 0.500609 0.042588 0.551258
C9    C     C_1   0.496064 0.495176 0.249951 -0.071129
C10   C     C_3   0.499114 0.495488 0.916981 -0.290648
C11   C     C_3   0.404687 0.635623 0.056251 0.096092
C12   C     C_3   0.497780 0.488964 0.082962 -0.284514
C13   C     C_3   0.403246 0.334283 0.048789 0.676690
C14   C     C_3   0.382068 0.353919 0.952122 0.257580
C15   C     C_1   0.495866 0.491516 0.174726 0.126406
C16   C     C_1   0.502145 0.498467 0.825242 0.242816
C17   C     C_1   0.503031 0.499960 0.750029 -0.032447
C18   C     C_2   0.563175 0.955579 0.482547 0.212605
Cl1   Cl    Cl    0.219023 0.685566 0.913952 -0.460337
Cl2   Cl    Cl    0.793449 0.320188 0.895297 -0.366457
Cl3   Cl    Cl    0.797498 0.683848 0.070537 -0.459139
Cl4   Cl    Cl    0.822096 0.360668 0.085637 -0.390644
Cl5   Cl    Cl    0.405548 0.175157 0.890569 -0.373275
H1    H     H_    0.469573 0.741126 0.084004 0.236081
H2    H     H_    0.483882 0.872111 0.956711 0.429040
H3    H     H_    0.249178 0.282896 0.150998 0.356125
H4    H     H_    0.767320 0.586061 0.914288 0.225194
H5    H     H_    0.245955 0.379614 0.944920 0.184588
H6    H     H_    0.161271 0.560097 0.062724 0.427740
H7    H     H_    0.503443 0.185727 0.120347 0.350577
H8    H     H_    0.767013 0.929503 0.402514 0.362858
H9    H     H_    0.233144 0.070540 0.597615 0.367876
H10   H     H_    0.936764 0.302538 0.393622 0.371911
H11   H     H_    0.063254 0.697536 0.606333 0.376392
N1    N     N_2   0.950340 0.457950 0.477370 0.183059
N2    N     N_2   0.049660 0.542050 0.522630 0.181861
O1    O     O_R   0.389240 0.738570 0.505550 -0.581452
O2    O     O_3   0.500521 0.203395 0.058462 -0.624183
O3    O     O_3   0.696740 0.015111 0.426824 -0.758519
O4    O     O_3   0.303340 0.984910 0.573266 -0.743660
O5    O     O_3   0.030430 0.357406 0.423289 -0.627235
O6    O     O_3   0.969578 0.642633 0.576688 -0.619291
O7    O     O_3   0.537077 0.776067 0.933387 -0.680588
O8    O     O_3   0.237363 0.307304 0.090641 -0.689475
O9    O     O_R   0.678400 0.711630 0.491050 -0.595874
O10   O     O_R   0.355360 0.513470 0.630110 -0.613549
O11   O     O_R   0.644510 0.486530 0.615610 -0.570090
O12   O     O_R   0.321600 0.288370 0.508950 -0.598003
O13   O     O_R   0.610760 0.261430 0.494450 -0.577994
O14   O     O_R   0.355490 0.513470 0.384390 -0.574601
O15   O     O_R   0.644640 0.486530 0.369890 -0.611915
O16   O     O_3   0.233464 0.638152 0.092747 -0.624206
Zn1   Zn    Zn3+2 0.306930 0.517990 0.509680 1.107084
Zn2   Zn    Zn3+2 0.693070 0.482010 0.490320 1.110034

loop_
_geom_bond_atom_site_label_1
_geom_bond_atom_site_label_2
_ccdc_geom_bond_type
C14   Cl5   S    
C6    C10   S    
C7    C10   S    
C2    C4    S    
C11   C12   S    
C5    C9    S    
N2    Zn1   S    
C8    C12   S    
C2    C18   D    
C3    O10   A    
N2    O6    S    
N1    N2    D    
H11   O6    S    
C12   C15   S    
C1    O1    A    
C4    O13   A    
C18   O3    S    
O15   Zn2   S    
O1    Zn1   S    
H2    O7    S    
C8    Cl3   S    
C1    C18   S    
H3    O8    S    
C7    C8    S    
C10   C16   S    
C13   C14   S    
C12   C13   S    
N1    Zn2   S    
C6    Cl1   S    
C1    O9    A    
C13   O2    S    
O11   Zn2   S    
O10   Zn1   S    
C3    O11   A    
H8    O3    S    
O9    Zn2   S    
C3    C17   S    
C6    O7    S    
H9    O4    S    
C4    O12   A    
O12   Zn1   S    
N1    O5    S    
C5    O14   A    
O14   Zn1   S    
O13   Zn2   S    
C2    O4    S    
C11   H1    S    
C7    H4    S    
H10   O5    S    
H7    O2    S    
C7    Cl2   S    
C10   C14   S    
C6    C11   S    
C5    O15   A    
C11   O16   S    
C14   H5    S    
C9    C15   T    
C8    Cl4   S    
C13   O8    S    
C16   C17   T    
H6    O16   S    
