data_mof_unit_62115.cif
_audit_creation_date              2012-10-26T18:14:25-0400
_audit_creation_method            fapswitch 2.2
_symmetry_space_group_name_H-M    P1
_symmetry_Int_Tables_number       1
_space_group_crystal_system       triclinic
_cell_length_a                    27.814101
_cell_length_b                    27.697775
_cell_length_c                    27.825373
_cell_angle_alpha                 109.459406
_cell_angle_beta                  109.712139
_cell_angle_gamma                 109.407248
_cell_volume                      16467.8970475

loop_
_atom_site_label
_atom_site_type_symbol
_atom_type_description
_atom_site_fract_x
_atom_site_fract_y
_atom_site_fract_z
_atom_type_partial_charge
C1    C     C_R   0.920061 0.919778 0.499951 0.553738
C2    C     C_3   0.797051 0.732625 0.480725 -0.094853
C3    C     C_R   0.631092 0.665044 0.386150 0.015866
C4    C     C_R   0.647364 0.641851 0.344438 -0.112193
C5    C     C_R   0.605973 0.590417 0.289766 -0.113702
C6    C     C_R   0.547593 0.559843 0.275422 -0.107972
C7    C     C_R   0.530501 0.580256 0.315999 -0.110053
C8    C     C_R   0.571493 0.631766 0.370642 -0.079626
C9    C     C_1   0.209376 0.921091 0.628234 0.166278
C10   C     C_1   0.352779 0.009492 0.741031 0.181617
C11   C     C_R   0.135137 0.964941 0.743056 0.032155
C12   C     C_R   0.151369 0.010083 0.797983 -0.090300
C13   C     C_3   0.747449 0.682554 0.479415 -0.097125
C14   C     C_R   0.108345 0.017549 0.809461 -0.107696
C15   C     C_R   0.048716 0.980481 0.766393 -0.097799
C16   C     C_R   0.031942 0.935860 0.711681 -0.106376
C17   C     C_R   0.074757 0.928082 0.700064 -0.097632
C18   C     C_R   0.750055 0.938290 0.140472 0.031902
C19   C     C_R   0.789542 0.916685 0.144525 -0.088619
C20   C     C_R   0.793466 0.888572 0.095094 -0.108362
C21   C     C_R   0.758291 0.882081 0.041230 -0.110188
C22   C     C_R   0.719153 0.903686 0.036769 -0.120183
C23   C     C_R   0.714792 0.931454 0.086011 -0.092446
C24   C     C_R   0.919845 0.999942 0.419780 0.555564
C25   C     C_1   0.246555 0.355256 0.511291 0.186094
C26   C     C_1   0.158455 0.268832 0.507692 0.210757
C27   C     C_1   0.287724 0.219565 0.593226 0.194465
C28   C     C_R   0.380374 0.296067 0.591003 0.029023
C29   C     C_R   0.386772 0.340675 0.640513 -0.077661
C30   C     C_R   0.439624 0.376451 0.694585 -0.105028
C31   C     C_R   0.486845 0.366635 0.702424 -0.094603
C32   C     C_R   0.480089 0.319001 0.657171 -0.102882
C33   C     C_R   0.427219 0.283138 0.603148 -0.092031
C34   C     C_1   0.230923 0.291500 0.598251 0.183117
C35   C     C_1   0.624674 0.623285 0.498623 -0.018027
C36   C     C_R   0.336579 0.221993 0.482459 0.017126
C37   C     C_R   0.385894 0.255168 0.479342 -0.107614
C38   C     C_R   0.400445 0.228894 0.438368 -0.105974
C39   C     C_R   0.366320 0.168486 0.398571 -0.092088
C40   C     C_R   0.317550 0.134303 0.399692 -0.112916
C41   C     C_R   0.302495 0.160194 0.440505 -0.105418
C42   C     C_1   0.394925 0.251615 0.220581 0.165917
C43   C     C_1   0.570845 0.286274 0.195078 0.173140
C44   C     C_R   0.578849 0.380084 0.293378 0.031643
C45   C     C_R   0.637067 0.390125 0.315660 -0.039441
C46   C     C_3   0.790073 0.789100 0.496291 0.021262
C47   C     C_R   0.685507 0.447632 0.350600 -0.079610
C48   C     C_R   0.676958 0.496211 0.364500 -0.092957
C49   C     C_R   0.619895 0.487407 0.343293 -0.108061
C50   C     C_R   0.571304 0.430035 0.307725 -0.096882
C51   C     C_R   0.558117 0.177960 0.278954 0.033500
C52   C     C_R   0.512388 0.128915 0.271477 -0.062445
C53   C     C_R   0.520192 0.082489 0.274581 -0.100164
C54   C     C_R   0.573491 0.083967 0.284973 -0.090644
C55   C     C_R   0.619306 0.132088 0.292652 -0.096499
C56   C     C_R   0.611836 0.178712 0.289760 -0.088691
C57   C     C_3   0.747583 0.761662 0.557542 -0.238599
C58   C     C_1   0.518873 0.239246 0.350168 0.187489
C59   C     C_1   0.602477 0.319359 0.372473 0.188242
C60   C     C_R   0.504358 0.740776 0.859249 0.035928
C61   C     C_R   0.463556 0.728185 0.878925 -0.085033
C62   C     C_R   0.481786 0.736868 0.935913 -0.099137
C63   C     C_R   0.540851 0.757806 0.974094 -0.100091
C64   C     C_R   0.581726 0.769921 0.955286 -0.113861
C65   C     C_R   0.563839 0.761921 0.898507 -0.092031
C66   C     C_R   0.614817 0.767675 0.750729 0.025190
C67   C     C_R   0.632597 0.767563 0.708803 -0.091182
C68   C     C_3   0.706928 0.704996 0.495059 0.027592
C69   C     C_R   0.682829 0.763703 0.714320 -0.100056
C70   C     C_R   0.716309 0.760053 0.761801 -0.095540
C71   C     C_R   0.699562 0.760238 0.803782 -0.108385
C72   C     C_R   0.649241 0.763927 0.798369 -0.090525
C73   C     C_1   0.752707 0.049790 0.352420 0.201441
C74   C     C_R   0.457845 0.624848 0.733065 0.025319
C75   C     C_R   0.395630 0.596270 0.703493 -0.088441
C76   C     C_R   0.361872 0.535468 0.680793 -0.093961
C77   C     C_R   0.389382 0.502258 0.687074 -0.092859
C78   C     C_R   0.450782 0.529750 0.716143 -0.103562
C79   C     C_3   0.676581 0.721685 0.448253 -0.004031
C80   C     C_R   0.484786 0.590489 0.739090 -0.087767
C81   C     C_1   0.441118 0.725010 0.630448 0.177135
C82   C     C_3   0.727451 0.770104 0.447549 -0.104578
C83   C     C_1   0.661813 0.659832 0.497215 -0.054004
C84   C     C_3   0.789526 0.993859 0.287887 0.018306
C85   C     C_1   0.837149 0.836260 0.498119 -0.051516
C86   C     C_1   0.875152 0.874553 0.499245 -0.013924
C87   C     C_3   0.252385 0.062229 0.761968 -0.232811
C88   C     C_R   0.080061 0.080207 0.500143 0.557546
C89   C     C_3   0.246351 0.978641 0.683888 -0.105324
C90   C     C_3   0.293540 0.976009 0.731964 -0.092497
C91   C     C_1   0.375616 0.999797 0.875540 -0.015686
C92   C     C_3   0.208818 0.998843 0.707803 0.039241
C93   C     C_3   0.300297 0.062148 0.810841 -0.225313
C94   C     C_3   0.291983 0.999076 0.790659 0.029604
C95   C     C_3   0.763077 0.051050 0.261224 -0.113322
C96   C     C_3   0.230025 0.957580 0.777836 -0.226114
C97   C     C_3   0.180644 0.955887 0.727956 -0.085161
C98   C     C_1   0.337909 0.999481 0.837551 -0.058358
C99   C     C_1   0.163094 0.000066 0.662274 -0.047081
C100  C     C_R   0.080328 0.000167 0.580212 0.555055
C101  C     C_1   0.125397 0.000373 0.624960 -0.008013
C102  C     C_3   0.216673 0.273045 0.536602 -0.011820
C103  C     C_3   0.194628 0.195564 0.439402 -0.254001
C104  C     C_3   0.241321 0.244670 0.438436 -0.232341
C105  C     C_1   0.375538 0.375495 0.500368 -0.019211
C106  C     C_3   0.708510 0.995375 0.204409 0.016723
C107  C     C_3   0.210776 0.210624 0.504035 0.006583
C108  C     C_3   0.266786 0.320755 0.535689 -0.111302
C109  C     C_3   0.294491 0.291328 0.502584 0.030511
C110  C     C_3   0.321477 0.255906 0.528721 0.005764
C111  C     C_3   0.270858 0.211764 0.533439 -0.100188
C112  C     C_3   0.695679 0.965502 0.240058 -0.118328
C113  C     C_1   0.339055 0.337579 0.501109 -0.052491
C114  C     C_1   0.163383 0.163418 0.502036 -0.047680
C115  C     C_1   0.125200 0.125314 0.500934 -0.001504
C116  C     C_R   0.500691 0.080188 0.080479 0.554470
C117  C     C_3   0.802075 0.023680 0.252084 -0.120485
C118  C     C_R   0.580884 0.000096 0.080948 0.553751
C119  C     C_R   0.500839 0.919803 0.920861 0.552956
C120  C     C_R   0.420550 0.000014 0.920548 0.553745
C121  C     C_R   0.499850 0.579834 0.579825 0.555959
C122  C     C_R   0.580033 0.579645 0.499644 0.553681
C123  C     C_R   0.499851 0.419624 0.420018 0.553039
C124  C     C_3   0.734843 0.938465 0.230958 0.003383
C125  C     C_R   0.419990 0.420091 0.500109 0.552497
C126  C     C_3   0.440834 0.188827 0.201749 -0.241185
C127  C     C_3   0.519628 0.267943 0.203917 -0.112732
C128  C     C_3   0.746906 0.968125 0.194832 0.013973
C129  C     C_3   0.523506 0.317911 0.256270 -0.113313
C130  C     C_1   0.499830 0.374708 0.375690 -0.003436
C131  C     C_3   0.503811 0.210936 0.209721 0.010052
C132  C     C_3   0.438982 0.236818 0.248973 -0.120782
C133  C     C_3   0.502804 0.292433 0.293502 0.012302
C134  C     C_3   0.543825 0.269927 0.322517 -0.009234
C135  C     C_3   0.550722 0.228800 0.273067 -0.098130
C136  C     C_1   0.874604 0.999087 0.374657 -0.018347
C137  C     C_1   0.500669 0.337373 0.338804 -0.037151
C138  C     C_1   0.502188 0.163976 0.162724 -0.041931
C139  C     C_1   0.836286 0.997119 0.335823 -0.056606
C140  C     C_1   0.501175 0.125518 0.125016 -0.008751
C141  C     C_3   0.482544 0.732159 0.796945 -0.087877
C142  C     C_3   0.562250 0.814005 0.797223 -0.225044
C143  C     C_3   0.558227 0.769986 0.741326 -0.109133
C144  C     C_1   0.499863 0.624494 0.624574 -0.002246
C145  C     C_3   0.500676 0.790397 0.793230 0.024230
C146  C     C_3   0.497149 0.690954 0.757278 -0.098863
C147  C     C_3   0.500583 0.708233 0.709206 0.035582
C148  C     C_1   0.625514 0.999193 0.124814 -0.031818
C149  C     C_3   0.447334 0.718044 0.682286 -0.115010
C150  C     C_1   0.662999 0.997741 0.161008 -0.069977
C151  C     C_3   0.454108 0.773031 0.730890 -0.243250
C152  C     C_1   0.500091 0.662062 0.662407 -0.028874
C153  C     C_1   0.500742 0.836837 0.838986 -0.051679
C154  C     C_1   0.500777 0.874724 0.876365 -0.019031
C155  C     C_3   0.750942 0.020778 0.296606 0.011288
C156  C     C_R   0.713240 0.873389 0.208825 0.033441
C157  C     C_R   0.659592 0.831765 0.155655 -0.090902
C158  C     C_R   0.638448 0.771167 0.133719 -0.109708
C159  C     C_R   0.670692 0.751564 0.164529 -0.096487
C160  C     C_R   0.724143 0.792535 0.217286 -0.108551
C161  C     C_3   0.792289 0.812047 0.556490 -0.229565
C162  C     C_R   0.745442 0.853180 0.239400 -0.091325
C163  C     C_R   0.860573 0.745950 0.515458 0.046971
C164  C     C_R   0.888687 0.764523 0.576155 -0.068917
C165  C     C_R   0.946557 0.776387 0.606033 -0.116807
C166  C     C_R   0.977502 0.770413 0.576142 -0.105122
C167  C     C_R   0.950650 0.752569 0.516266 -0.098628
C168  C     C_R   0.892686 0.740323 0.486073 -0.094486
C169  C     C_1   0.769772 0.657871 0.515763 0.180938
C170  C     C_1   0.720946 0.822330 0.451731 0.199177
C171  C     C_1   0.643459 0.748443 0.468545 0.195248
Cu1   Cu    Cu3+1 0.999890 0.041260 0.541240 0.998314
Cu2   Cu    Cu3+1 0.000110 0.958740 0.458760 0.949365
Cu3   Cu    Cu3+1 0.459450 0.958710 0.000750 0.944722
Cu4   Cu    Cu3+1 0.542080 0.041260 0.000670 0.979256
Cu5   Cu    Cu3+1 0.541380 0.499870 0.541250 0.971166
Cu6   Cu    Cu3+1 0.458620 0.499880 0.458500 0.978595
H1    H     H_    0.720010 0.643944 0.434081 0.090263
H2    H     H_    0.156294 0.910200 0.689678 0.117904
H3    H     H_    0.228118 0.971824 0.819166 0.124871
H4    H     H_    0.228602 0.081047 0.779734 0.133244
H5    H     H_    0.297917 0.078364 0.851846 0.114964
H6    H     H_    0.223061 0.912020 0.763727 0.109540
H7    H     H_    0.190537 0.152288 0.414696 0.117532
H8    H     H_    0.150535 0.190166 0.414921 0.143331
H9    H     H_    0.220109 0.265802 0.418099 0.146086
H10   H     H_    0.255491 0.224732 0.408089 0.140614
H11   H     H_    0.261795 0.166341 0.510682 0.097751
H12   H     H_    0.725939 0.752287 0.404897 0.090186
H13   H     H_    0.845899 0.047572 0.257028 0.120472
H14   H     H_    0.301648 0.356785 0.580230 0.079437
H15   H     H_    0.409057 0.176121 0.156382 0.129073
H16   H     H_    0.482350 0.255986 0.162018 0.110915
H17   H     H_    0.488279 0.325805 0.232880 0.123620
H18   H     H_    0.774510 0.097515 0.273813 0.120695
H19   H     H_    0.593272 0.257612 0.278468 0.107975
H20   H     H_    0.424949 0.147502 0.203411 0.109900
H21   H     H_    0.422144 0.217320 0.272869 0.125173
H22   H     H_    0.542221 0.701707 0.786139 0.115993
H23   H     H_    0.781458 0.848148 0.564245 0.147138
H24   H     H_    0.576572 0.857871 0.799832 0.120609
H25   H     H_    0.596111 0.821983 0.838512 0.117302
H26   H     H_    0.551633 0.788845 0.711595 0.132582
H27   H     H_    0.410495 0.762311 0.727779 0.112410
H28   H     H_    0.468020 0.811710 0.724082 0.141235
H29   H     H_    0.405563 0.678572 0.666022 0.113159
H30   H     H_    0.433760 0.709820 0.775899 0.106667
H31   H     H_    0.771774 0.751670 0.590236 0.126928
H32   H     H_    0.837401 0.832499 0.593733 0.111442
H33   H     H_    0.786534 0.714876 0.434031 0.079655
H34   H     H_    0.721108 0.777114 0.573860 0.133447
H35   H     H_    0.634186 0.846323 0.131176 0.105549
H36   H     H_    0.597041 0.739336 0.092867 0.102738
H37   H     H_    0.654290 0.704645 0.147511 0.110704
H38   H     H_    0.749169 0.777295 0.241081 0.110065
H39   H     H_    0.786971 0.883541 0.280006 0.117272
H40   H     H_    0.865757 0.768210 0.600454 0.109647
H41   H     H_    0.967405 0.790115 0.652480 0.113564
H42   H     H_    0.022333 0.779690 0.599415 0.113148
H43   H     H_    0.974749 0.748145 0.493138 0.122801
H44   H     H_    0.873055 0.726682 0.439631 0.097652
H45   H     H_    0.344788 0.093616 0.821710 0.143964
H46   H     H_    0.692192 0.661464 0.353559 0.083629
H47   H     H_    0.619550 0.573686 0.258751 0.114222
H48   H     H_    0.515818 0.519761 0.233232 0.116323
H49   H     H_    0.485368 0.555861 0.305324 0.120118
H50   H     H_    0.556109 0.644756 0.400993 0.134601
H51   H     H_    0.197096 0.039660 0.832229 0.097389
H52   H     H_    0.121306 0.052264 0.851818 0.111541
H53   H     H_    0.015525 0.986477 0.775347 0.111263
H54   H     H_    0.985732 0.907430 0.678113 0.110922
H55   H     H_    0.060817 0.893848 0.657010 0.106200
H56   H     H_    0.651942 0.941940 0.235436 0.115288
H57   H     H_    0.817178 0.921454 0.186017 0.110701
H58   H     H_    0.823833 0.871865 0.098584 0.109562
H59   H     H_    0.761313 0.860292 0.002952 0.105576
H60   H     H_    0.691814 0.898528 0.994962 0.110706
H61   H     H_    0.683977 0.947339 0.080891 0.118832
H62   H     H_    0.350336 0.344904 0.641213 0.116929
H63   H     H_    0.443063 0.410431 0.731296 0.108762
H64   H     H_    0.527561 0.394043 0.744496 0.112506
H65   H     H_    0.515488 0.308996 0.664251 0.117415
H66   H     H_    0.423567 0.244598 0.571509 0.126187
H67   H     H_    0.274241 0.092215 0.748206 0.128483
H68   H     H_    0.415271 0.301878 0.510490 0.127417
H69   H     H_    0.438621 0.255610 0.437806 0.141695
H70   H     H_    0.377597 0.148144 0.366760 0.132144
H71   H     H_    0.290658 0.087310 0.368200 0.112456
H72   H     H_    0.262765 0.130056 0.435701 0.094505
H73   H     H_    0.645875 0.354008 0.307271 0.120577
H74   H     H_    0.729843 0.454490 0.367437 0.122846
H75   H     H_    0.714555 0.540650 0.391969 0.116035
H76   H     H_    0.613277 0.525088 0.354780 0.129378
H77   H     H_    0.527545 0.424694 0.292295 0.108283
H78   H     H_    0.268520 0.011435 0.672806 0.124619
H79   H     H_    0.470891 0.126332 0.264350 0.112692
H80   H     H_    0.484775 0.045277 0.268978 0.113263
H81   H     H_    0.579342 0.047887 0.287209 0.121246
H82   H     H_    0.660666 0.133223 0.300696 0.120360
H83   H     H_    0.648133 0.215231 0.295512 0.109066
H84   H     H_    0.417435 0.712152 0.850391 0.097489
H85   H     H_    0.450032 0.727388 0.950477 0.110777
H86   H     H_    0.554891 0.764568 0.018197 0.100321
H87   H     H_    0.627394 0.785491 0.984790 0.121887
H88   H     H_    0.596742 0.771989 0.885950 0.077257
H89   H     H_    0.283910 0.929495 0.716863 0.116387
H90   H     H_    0.607048 0.769666 0.671125 0.113344
H91   H     H_    0.695667 0.763351 0.681601 0.109366
H92   H     H_    0.755208 0.757052 0.766054 0.111198
H93   H     H_    0.725616 0.757467 0.840660 0.103220
H94   H     H_    0.638248 0.764130 0.831831 0.076901
H95   H     H_    0.372408 0.620148 0.698033 0.087117
H96   H     H_    0.314202 0.514050 0.658304 0.126339
H97   H     H_    0.363143 0.455276 0.669566 0.107336
H98   H     H_    0.472156 0.503997 0.720820 0.109085
H99   H     H_    0.532362 0.610545 0.760991 0.100168
N1    N     N_1   0.786859 0.638248 0.543929 -0.289807
N2    N     N_1   0.360484 0.263211 0.198411 -0.297656
N3    N     N_1   0.610634 0.300219 0.187653 -0.294687
N4    N     N_1   0.499528 0.215741 0.372128 -0.332008
N5    N     N_1   0.648277 0.357696 0.412163 -0.283825
N6    N     N_1   0.754088 0.072675 0.396445 -0.277637
N7    N     N_1   0.436291 0.730443 0.589881 -0.276215
N8    N     N_1   0.715981 0.862985 0.454951 -0.264224
N9    N     N_1   0.617907 0.769154 0.484322 -0.286635
N10   N     N_1   0.180404 0.876068 0.584695 -0.292677
N11   N     N_1   0.399146 0.035703 0.748150 -0.279919
N12   N     N_1   0.231013 0.382182 0.492454 -0.274028
N13   N     N_1   0.113132 0.265459 0.485193 -0.276185
N14   N     N_1   0.300833 0.225088 0.639680 -0.264750
N15   N     N_1   0.241845 0.306220 0.646526 -0.274074
O1    O     O_R   0.939620 0.974560 0.534830 -0.497949
O2    O     O_R   0.464910 0.560090 0.525130 -0.493375
O3    O     O_R   0.595230 0.560150 0.534820 -0.494426
O4    O     O_R   0.939810 0.904870 0.465170 -0.509829
O5    O     O_R   0.525340 0.560160 0.464940 -0.510081
O6    O     O_R   0.535090 0.439670 0.474620 -0.495076
O7    O     O_R   0.465200 0.439670 0.404750 -0.505787
O8    O     O_R   0.474660 0.439590 0.534810 -0.511951
O9    O     O_R   0.404770 0.439600 0.464940 -0.493023
O10   O     O_R   0.939530 0.034830 0.474440 -0.489045
O11   O     O_R   0.939720 0.965140 0.404790 -0.514363
O12   O     O_R   0.535560 0.095110 0.060860 -0.494708
O13   O     O_R   0.060190 0.095130 0.534830 -0.490923
O14   O     O_R   0.060380 0.025440 0.465170 -0.509016
O15   O     O_R   0.060280 0.034860 0.595210 -0.501151
O16   O     O_R   0.060470 0.965170 0.525560 -0.499495
O17   O     O_R   0.465780 0.025400 0.060920 -0.506686
O18   O     O_R   0.526250 0.965140 0.061120 -0.503887
O19   O     O_R   0.596030 0.034850 0.061050 -0.502027
O20   O     O_R   0.465970 0.904870 0.940560 -0.504605
O21   O     O_R   0.535750 0.974580 0.940490 -0.502042
O22   O     O_R   0.405500 0.965130 0.940370 -0.508110
O23   O     O_R   0.475290 0.034840 0.940300 -0.493956
O24   O     O_R   0.534800 0.560080 0.595010 -0.506471

loop_
_geom_bond_atom_site_label_1
_geom_bond_atom_site_label_2
_ccdc_geom_bond_type
C73   N6    T    
C133  C137  S    
C157  C158  A    
C19   C20   A    
C3    C79   S    
C114  C115  T    
C58   C134  S    
C158  H36   S    
C34   C102  S    
Cu3   O18   S    
C112  C124  S    
C5    C6    A    
C112  H56   S    
C80   H99   S    
C37   H68   S    
C108  C109  S    
C110  C111  S    
C66   C72   A    
Cu1   O13   S    
C84   C117  S    
C112  C155  S    
C108  H14   S    
Cu4   O19   S    
C141  C145  S    
C159  H37   S    
C21   C22   A    
C149  C151  S    
C56   H83   S    
C74   C146  S    
C45   C47   A    
Cu5   O6    S    
C142  H24   S    
C3    C8    A    
C43   C127  S    
C66   C143  S    
C160  H38   S    
Cu4   O23   S    
C120  O23   A    
C48   H75   S    
C75   C76   A    
C37   C38   A    
C60   C141  S    
C73   C155  S    
C132  H21   S    
C96   H3    S    
C94   C96   S    
C138  C140  T    
C129  C133  S    
C24   O10   A    
C99   C101  T    
C28   C33   A    
C119  O21   A    
C15   H53   S    
Cu6   O7    S    
C54   H81   S    
C146  C147  S    
C44   C50   A    
C23   H61   S    
C164  C165  A    
C32   H65   S    
C68   C83   S    
C35   C122  S    
C30   H63   S    
C4    C5    A    
C149  H29   S    
C6    C7    A    
C104  H9    S    
C105  C125  S    
C25   N12   T    
C61   H84   S    
C131  C138  S    
C64   C65   A    
C81   C149  S    
C76   H96   S    
C27   N14   T    
C69   C70   A    
C117  C128  S    
C127  C131  S    
C43   N3    T    
C20   C21   A    
Cu6   O5    S    
C118  O18   A    
C22   C23   A    
C103  C107  S    
C166  H42   S    
C26   C102  S    
C164  H40   S    
C143  H26   S    
C57   H34   S    
C106  C150  S    
Cu5   O8    S    
C121  O2    A    
C88   O13   A    
C168  H44   S    
C7    C8    A    
C162  H39   S    
C85   C86   T    
C95   C117  S    
C1    O4    A    
C111  H11   S    
C105  C113  T    
C36   C37   A    
C148  C150  T    
C127  H16   S    
C38   C39   A    
C78   C80   A    
C21   H59   S    
C75   H95   S    
C13   H1    S    
C6    H48   S    
C49   H76   S    
Cu3   Cu4   S    
C18   C128  S    
C135  H19   S    
C46   C82   S    
Cu6   O9    S    
C47   H74   S    
C22   H60   S    
C24   C136  S    
C68   C79   S    
C13   C169  S    
C66   C67   A    
C27   C111  S    
C91   C98   T    
Cu2   O11   S    
C121  C144  S    
C123  O6    A    
C17   H55   S    
C92   C97   S    
C39   C40   A    
C125  O9    A    
Cu4   O21   S    
Cu1   O1    S    
C28   C110  S    
Cu4   O12   S    
C160  C162  A    
C170  N8    T    
C127  C129  S    
C29   C30   A    
C95   C106  S    
C103  H8    S    
C31   C32   A    
C126  C132  S    
C57   C161  S    
C102  C107  S    
C151  H28   S    
C70   C71   A    
C82   H12   S    
C36   C110  S    
C33   H66   S    
C122  O5    A    
C57   C68   S    
C3    C4    A    
C19   H57   S    
C52   C53   A    
C34   N15   T    
C1    C86   S    
C54   C55   A    
Cu5   Cu6   S    
C161  H23   S    
C107  C111  S    
C87   H4    S    
C79   C82   S    
C134  C135  S    
C4    H46   S    
C16   H54   S    
Cu2   O14   S    
C11   C97   S    
C88   C115  S    
C163  C168  A    
C71   C72   A    
C123  C130  S    
C87   H67   S    
C87   C93   S    
C100  C101  S    
C55   H82   S    
C61   C62   A    
C63   C64   A    
C5    H47   S    
Cu1   O10   S    
Cu5   O24   S    
C49   C50   A    
C14   C15   A    
C74   C80   A    
C96   H6    S    
C92   C99   S    
C13   C68   S    
C55   C56   A    
Cu6   O2    S    
C151  H27   S    
C65   H88   S    
C129  H17   S    
C77   C78   A    
Cu2   O4    S    
C57   H31   S    
C93   C94   S    
C142  H25   S    
C28   C29   A    
C147  C149  S    
C30   C31   A    
C42   N2    T    
C12   H51   S    
C94   C98   S    
C38   H69   S    
C106  C128  S    
C18   C19   A    
C79   C171  S    
C100  O16   A    
C84   C139  S    
C16   C17   A    
C46   C161  S    
C81   N7    T    
C72   H94   S    
C93   H45   S    
C122  O3    A    
C124  C128  S    
C46   C85   S    
C24   O11   A    
C59   N5    T    
C119  O20   A    
C87   C92   S    
C142  C145  S    
C36   C41   A    
C136  C139  T    
C90   C94   S    
C116  O17   A    
C53   H80   S    
Cu2   O16   S    
C103  H7    S    
Cu3   O17   S    
Cu5   O3    S    
C9    C89   S    
C167  C168  A    
C35   C83   T    
C70   H92   S    
C44   C129  S    
C53   C54   A    
C161  H32   S    
C51   C52   A    
C60   C61   A    
C141  H30   S    
C107  C114  S    
C62   C63   A    
C50   H77   S    
C93   H5    S    
C159  C160  A    
C20   H58   S    
C141  C146  S    
C39   H70   S    
C48   C49   A    
C58   N4    T    
C119  C154  S    
C118  O19   A    
C133  C134  S    
C84   C124  S    
C44   C45   A    
C11   C17   A    
C95   H18   S    
C59   C134  S    
C77   H97   S    
C31   H64   S    
C171  N9    T    
C63   H86   S    
C2    C163  S    
C64   H87   S    
C32   C33   A    
C118  C148  S    
C52   H79   S    
C109  C110  S    
C71   H93   S    
Cu3   O22   S    
C10   C90   S    
C144  C152  T    
C103  C104  S    
C142  C143  S    
C42   C132  S    
C89   C90   S    
C130  C137  T    
C25   C108  S    
C82   C170  S    
C165  C166  A    
C26   N13   T    
C163  C164  A    
C62   H85   S    
C69   H91   S    
C106  C112  S    
C2    C46   S    
C143  C147  S    
C9    N10   T    
C156  C157  A    
C90   H89   S    
C131  C135  S    
C104  C109  S    
C125  O8    A    
C84   C155  S    
C97   H2    S    
C15   C16   A    
C51   C56   A    
C146  H22   S    
C2    C13   S    
C14   H52   S    
C51   C135  S    
C132  C133  S    
C102  C108  S    
C109  C113  S    
C145  C153  S    
C156  C162  A    
C88   O14   A    
C78   H98   S    
C40   H71   S    
C8    H50   S    
C2    H33   S    
C74   C75   A    
C18   C23   A    
C76   C77   A    
C116  O12   A    
C1    O1    A    
C67   C69   A    
Cu3   O20   S    
C126  H15   S    
C45   H73   S    
C67   H90   S    
C47   C48   A    
C96   C97   S    
C89   C92   S    
C145  C151  S    
C165  H41   S    
C126  H20   S    
C40   C41   A    
C12   C14   A    
C124  C156  S    
C166  C167  A    
C123  O7    A    
C169  N1    T    
C41   H72   S    
C167  H43   S    
Cu1   Cu2   S    
C104  H10   S    
C10   N11   T    
C60   C65   A    
C11   C12   A    
C7    H49   S    
C121  O24   A    
C147  C152  S    
C100  O15   A    
C158  C159  A    
C126  C131  S    
C120  O22   A    
C95   C155  S    
C117  H13   S    
C157  H35   S    
C89   H78   S    
Cu1   O15   S    
C91   C120  S    
C153  C154  T    
C29   H62   S    
C116  C140  S    
