data_mof_unit_15157.cif
_audit_creation_date              2012-12-10T17:52:26-0500
_audit_creation_method            fapswitch 2.2
_symmetry_space_group_name_H-M    P1
_symmetry_Int_Tables_number       1
_space_group_crystal_system       triclinic
_cell_length_a                    19.003268
_cell_length_b                    10.668088
_cell_length_c                    9.903583
_cell_angle_alpha                 89.545633
_cell_angle_beta                  90.158136
_cell_angle_gamma                 92.124282
_cell_volume                      2006.28990938

loop_
_atom_site_label
_atom_site_type_symbol
_atom_type_description
_atom_site_fract_x
_atom_site_fract_y
_atom_site_fract_z
_atom_type_partial_charge
C1    C     C_R   0.504368 0.259611 0.501597 0.864386
C2    C     C_R   0.849432 0.399440 0.495281 0.056953
C3    C     C_R   0.513977 0.104311 0.758576 -0.161666
C4    C     C_R   0.365176 0.497891 0.499917 0.829414
C5    C     C_R   0.490958 0.041528 0.875157 -0.189037
C6    C     C_R   0.448279 0.933428 0.864754 -0.175551
C7    C     C_R   0.434603 0.880132 0.738115 0.204506
C8    C     C_R   0.467987 0.934154 0.621388 0.084370
C9    C     C_R   0.496468 0.056602 0.629160 0.066714
C10   C     C_R   0.506126 0.124735 0.506135 -0.114075
C11   C     C_R   0.504487 0.063000 0.382284 -0.244981
C12   C     C_R   0.288749 0.482319 0.499415 -0.037183
C13   C     C_R   0.492942 0.935897 0.379067 -0.212268
C14   C     C_R   0.478316 0.870209 0.498850 -0.133835
C15   C     C_R   0.407864 0.334009 0.140207 -0.238510
C16   C     C_R   0.491361 0.738322 0.499582 0.901230
C17   C     C_R   0.361523 0.250122 0.071970 0.094926
C18   C     C_R   0.361360 0.252399 0.929796 0.178977
C19   C     C_R   0.407836 0.334849 0.860807 -0.193878
C20   C     C_R   0.454782 0.417891 0.928133 0.060234
C21   C     C_R   0.454698 0.417923 0.072171 0.116829
C22   C     C_R   0.542685 0.579034 0.073018 -0.126835
C23   C     C_R   0.925611 0.388288 0.490293 0.274249
C24   C     C_R   0.542895 0.580715 0.929979 0.228151
C25   C     C_R   0.634584 0.495640 0.499918 0.873294
C26   C     C_R   0.253057 0.447740 0.618504 -0.199330
C27   C     C_R   0.181116 0.420289 0.615296 -0.162004
C28   C     C_R   0.143964 0.428120 0.493129 0.091477
C29   C     C_R   0.179711 0.464190 0.374409 -0.160603
C30   C     C_R   0.251569 0.491476 0.377628 -0.220658
C31   C     C_3   0.378322 0.777133 0.730631 -0.854803
C32   C     C_3   0.312124 0.157328 0.147071 -0.408958
C33   C     C_3   0.316289 0.159313 0.302201 -0.382205
C34   C     C_R   0.067646 0.406008 0.490367 0.282192
C35   C     C_3   0.266116 0.060675 0.365455 -0.843970
C36   C     C_3   0.311583 0.168104 0.849201 -0.935585
C37   C     C_3   0.591071 0.677097 0.862661 -0.829056
C38   C     C_3   0.830459 0.300600 0.260412 -0.432064
C39   C     C_3   0.839954 0.387310 0.136869 -0.330259
C40   C     C_3   0.867665 0.316438 0.016050 -0.850162
C41   C     C_R   0.821016 0.454390 0.610384 -0.184142
C42   C     C_R   0.751111 0.487373 0.612252 -0.202379
C43   C     C_R   0.708919 0.467143 0.498314 -0.065640
C44   C     C_R   0.736212 0.408174 0.384844 -0.218948
C45   C     C_R   0.806000 0.372244 0.382172 0.120795
H1    H     H_    0.280793 0.439435 0.713627 0.164107
H2    H     H_    0.152322 0.471391 0.278796 0.148862
H3    H     H_    0.278156 0.517406 0.284329 0.161850
H4    H     H_    0.853730 0.476703 0.697279 0.148370
H5    H     H_    0.730530 0.530554 0.701693 0.147410
H6    H     H_    0.702570 0.386600 0.298891 0.157426
H7    H     H_    0.512869 0.112525 0.287359 0.172592
H8    H     H_    0.365019 0.751995 0.624936 0.226212
H9    H     H_    0.395408 0.693097 0.786872 0.264822
H10   H     H_    0.329308 0.809470 0.777791 0.218508
H11   H     H_    0.210901 0.078455 0.336051 0.262968
H12   H     H_    0.547307 0.187500 0.771992 0.173888
H13   H     H_    0.279776 0.965313 0.332491 0.259669
H14   H     H_    0.270490 0.064953 0.477208 0.252581
H15   H     H_    0.370502 0.139749 0.335749 0.235854
H16   H     H_    0.302054 0.252686 0.339591 0.234249
H17   H     H_    0.257090 0.176194 0.117070 0.212705
H18   H     H_    0.323994 0.061108 0.113823 0.209165
H19   H     H_    0.319332 0.180311 0.738639 0.241062
H20   H     H_    0.320097 0.068287 0.874135 0.250604
H21   H     H_    0.256299 0.190186 0.872222 0.237295
H22   H     H_    0.560405 0.748492 0.810061 0.264904
H23   H     H_    0.503418 0.080184 0.973499 0.148409
H24   H     H_    0.624172 0.729298 0.937566 0.188058
H25   H     H_    0.628197 0.633039 0.794298 0.252831
H26   H     H_    0.919666 0.277499 0.040236 0.268190
H27   H     H_    0.830069 0.238775 0.987804 0.258768
H28   H     H_    0.874067 0.381462 0.928551 0.247177
H29   H     H_    0.788690 0.427315 0.108816 0.214155
H30   H     H_    0.877595 0.466219 0.160848 0.241777
H31   H     H_    0.880073 0.252449 0.282023 0.214045
H32   H     H_    0.790585 0.224869 0.236965 0.195086
H33   H     H_    0.425365 0.891661 0.955318 0.142610
H34   H     H_    0.498023 0.888937 0.283131 0.170111
H35   H     H_    0.576856 0.643100 0.129428 0.149511
H36   H     H_    0.406394 0.333333 0.246684 0.222081
H37   H     H_    0.405936 0.331613 0.753768 0.222260
H38   H     H_    0.154720 0.393637 0.708517 0.147459
N1    N     N_R   0.030810 0.431951 0.376912 -0.184687
N2    N     N_R   0.961056 0.423972 0.377181 -0.176952
N3    N     N_R   0.962306 0.360616 0.603569 -0.179392
N4    N     N_R   0.032222 0.368924 0.603431 -0.182327
N5    N     N_R   0.499340 0.498800 0.142780 -0.126898
N6    N     N_R   0.499320 0.498720 0.857170 -0.119164
O1    O     O_R   0.500000 0.316780 0.614690 -0.643470
O2    O     O_R   0.499990 0.316750 0.385360 -0.640119
O3    O     O_R   0.398140 0.500000 0.614700 -0.641191
O4    O     O_R   0.398130 0.499970 0.385370 -0.636711
O5    O     O_R   0.500010 0.683250 0.614640 -0.606553
O6    O     O_R   0.500000 0.683220 0.385310 -0.619004
O7    O     O_R   0.601870 0.500030 0.614630 -0.617077
O8    O     O_R   0.601860 0.500000 0.385300 -0.614778
Zn1   Zn    Zn3+2 0.500000 0.500020 0.653130 0.917540
Zn2   Zn    Zn3+2 0.500000 0.499980 0.346870 0.923041

loop_
_geom_bond_atom_site_label_1
_geom_bond_atom_site_label_2
_ccdc_geom_bond_type
C13   H34   S    
C1    O1    A    
C40   H26   S    
C37   H24   S    
C41   C42   A    
C19   C20   A    
C24   N6    A    
C25   C43   S    
O3    Zn1   S    
C7    C8    A    
C15   H36   S    
C38   H31   S    
C26   C27   A    
C29   H2    S    
C35   H13   S    
C30   H3    S    
C28   C29   A    
C5    C6    A    
C36   H21   S    
C6    H33   S    
O5    Zn1   S    
C2    C41   A    
C40   H28   S    
C35   H14   S    
C18   C19   A    
C39   H29   S    
C38   C45   S    
C11   H7    S    
C8    C9    A    
C23   N3    A    
O7    Zn1   S    
C39   H30   S    
C4    C12   S    
C19   H37   S    
C9    C10   A    
O4    Zn2   S    
C21   N5    A    
C28   C34   S    
C1    O2    A    
C13   C14   A    
C34   N1    A    
C5    H23   S    
C41   H4    S    
O8    Zn2   S    
C17   C18   A    
C2    C45   A    
C7    C31   S    
N1    N2    A    
C39   C40   S    
C36   H20   S    
C12   C26   A    
C43   C44   A    
C29   C30   A    
C3    C9    A    
C24   C37   S    
C31   H8    S    
C42   H5    S    
C3    H12   S    
C44   H6    S    
C25   O8    A    
C33   H15   S    
C22   N5    A    
C22   C24   A    
C42   C43   A    
C2    C23   S    
C44   C45   A    
C15   C17   A    
C16   O6    A    
C8    C14   A    
C40   H27   S    
C12   C30   A    
C35   H11   S    
N3    N4    A    
O6    Zn2   S    
C1    C10   S    
C32   H18   S    
C3    C5    A    
C6    C7    A    
C38   H32   S    
C20   N6    A    
C16   O5    A    
N6    Zn1   S    
C31   H10   S    
C32   C33   S    
C27   H38   S    
C22   H35   S    
C36   H19   S    
C11   C13   A    
C38   C39   S    
C37   H22   S    
C33   C35   S    
C14   C16   S    
C34   N4    A    
C31   H9    S    
N5    Zn2   S    
C10   C11   A    
C26   H1    S    
C32   H17   S    
C4    O4    A    
C15   C21   A    
C20   C21   A    
C25   O7    A    
C33   H16   S    
C23   N2    A    
C27   C28   A    
C17   C32   S    
O2    Zn2   S    
C37   H25   S    
C18   C36   S    
O1    Zn1   S    
C4    O3    A    
