data_mof_unit_7437.cif
_audit_creation_date              2012-12-10T17:32:59-0500
_audit_creation_method            fapswitch 2.2
_symmetry_space_group_name_H-M    P1
_symmetry_Int_Tables_number       1
_space_group_crystal_system       triclinic
_cell_length_a                    12.424398
_cell_length_b                    13.253212
_cell_length_c                    14.159524
_cell_angle_alpha                 94.199539
_cell_angle_beta                  107.699309
_cell_angle_gamma                 117.608674
_cell_volume                      1903.90262937

loop_
_atom_site_label
_atom_site_type_symbol
_atom_type_description
_atom_site_fract_x
_atom_site_fract_y
_atom_site_fract_z
_atom_type_partial_charge
C1    C     C_R   0.655773 0.715831 0.516473 0.790345
C2    C     C_R   0.854600 0.510629 0.926030 -0.006020
C3    C     C_R   0.819716 0.542870 0.005289 0.108606
C4    C     C_R   0.955793 0.482308 0.949076 0.086152
C5    C     C_R   0.035848 0.505333 0.052680 0.039136
C6    C     C_R   0.998283 0.534534 0.129604 -0.303475
C7    C     C_R   0.894169 0.554817 0.107997 0.161835
C8    C     C_R   0.973894 0.424247 0.872294 -0.204122
C9    C     C_R   0.066953 0.389764 0.897753 -0.228863
C10   C     C_R   0.150452 0.418371 0.999523 0.130132
C11   C     C_R   0.143611 0.486360 0.076902 0.089353
C12   C     C_R   0.617904 0.516947 0.688046 0.806241
C13   C     C_R   0.238731 0.377562 0.025468 -0.210934
C14   C     C_R   0.315416 0.399297 0.127995 -0.247610
C15   C     C_R   0.242777 0.529372 0.176449 0.106273
C16   C     C_R   0.083555 0.977486 0.318848 -0.190903
C17   C     C_R   0.240031 0.159906 0.450216 -0.081222
C18   C     C_R   0.775547 0.923207 0.624158 0.152478
C19   C     C_R   0.873539 0.040643 0.648117 -0.189885
C20   C     C_R   0.955340 0.079430 0.593805 0.110030
C21   C     C_R   0.942077 0.997588 0.513574 0.089346
C22   C     C_R   0.829379 0.882450 0.478571 -0.010932
C23   C     C_R   0.342968 0.284457 0.481310 0.810322
C24   C     C_R   0.033133 0.025458 0.464221 0.107568
C25   C     C_R   0.998021 0.948591 0.370993 0.098119
C26   C     C_R   0.877471 0.843693 0.330152 -0.230718
C27   C     C_R   0.795306 0.810023 0.383737 -0.163334
C28   C     C_R   0.159860 0.125071 0.506182 -0.273688
C29   C     C_R   0.203186 0.084491 0.355984 0.175364
C30   C     C_R   0.751204 0.842716 0.537679 -0.123027
C31   C     C_R   0.262208 0.696752 0.661112 0.092078
C32   C     C_R   0.652771 0.347980 0.355783 0.065943
C33   C     C_R   0.729344 0.324599 0.314208 0.083940
C34   C     C_R   0.383313 0.484976 0.313103 0.793869
C35   C     C_R   0.866311 0.388469 0.365217 -0.223098
C36   C     C_R   0.927899 0.471163 0.461003 -0.007222
C37   C     C_R   0.844761 0.497615 0.495259 0.263672
C38   C     C_R   0.068867 0.533815 0.520195 -0.050151
C39   C     C_R   0.124343 0.631570 0.604107 0.111112
C40   C     C_R   0.040634 0.660336 0.631405 -0.263836
C41   C     C_R   0.905010 0.593665 0.580049 -0.188866
C42   C     C_R   0.155891 0.498875 0.503596 0.278819
C43   C     C_R   0.342418 0.662566 0.634727 0.011430
C44   C     C_R   0.681896 0.525730 0.798511 -0.100130
C45   C     C_R   0.315478 0.472983 0.204353 -0.062648
C46   C     C_R   0.709955 0.559325 0.979434 0.170313
C47   C     C_R   0.638314 0.547727 0.875760 0.105987
C48   C     C_R   0.789520 0.509498 0.825695 -0.299284
Cu1   Cu    Cu3+1 0.416420 0.526630 0.522910 0.913998
Cu2   Cu    Cu3+1 0.583580 0.473370 0.477090 0.920500
H1    H     H_    0.242817 0.323252 0.967155 0.142233
H2    H     H_    0.847553 0.786084 0.257321 0.172337
H3    H     H_    0.054783 0.918150 0.247221 0.138752
H4    H     H_    0.199612 0.178800 0.582652 0.182142
H5    H     H_    0.886896 0.104167 0.709917 0.144325
H6    H     H_    0.702917 0.727585 0.348395 0.165258
H7    H     H_    0.446923 0.710089 0.678087 0.134735
H8    H     H_    0.078839 0.733980 0.694977 0.167685
H9    H     H_    0.547654 0.302639 0.314528 0.137152
H10   H     H_    0.922064 0.377961 0.324266 0.174205
H11   H     H_    0.850741 0.622638 0.608046 0.200463
H12   H     H_    0.374315 0.358353 0.147563 0.165642
H13   H     H_    0.072639 0.339420 0.837501 0.134060
H14   H     H_    0.824809 0.499189 0.767068 0.173836
H15   H     H_    0.045151 0.536274 0.208066 0.167776
H16   H     H_    0.910574 0.395719 0.792351 0.146318
N1    N     N_R   0.290690 0.566960 0.557640 -0.204300
N2    N     N_R   0.709100 0.433710 0.442970 -0.220803
O1    O     O_R   0.545970 0.684450 0.528810 -0.566489
O2    O     O_R   0.687130 0.639470 0.490120 -0.590042
O3    O     O_R   0.519670 0.535100 0.660030 -0.574612
O4    O     O_R   0.660830 0.490120 0.621340 -0.597963
O5    O     O_R   0.312870 0.360530 0.509880 -0.586391
O6    O     O_R   0.454030 0.315550 0.471190 -0.571574
O7    O     O_R   0.339170 0.509880 0.378660 -0.582143
O8    O     O_R   0.480330 0.464900 0.339970 -0.590251
N3    N     N_3   0.867279 0.589362 0.192425 -0.560795
H17   H     H_    0.843348 0.521867 0.229838 0.240293
H18   H     H_    0.952944 0.664387 0.243881 0.211507
C49   C     C_3   0.286304 0.117518 0.292594 -0.861769
H19   H     H_    0.300863 0.201359 0.273078 0.225004
H20   H     H_    0.382636 0.126893 0.336228 0.237998
H21   H     H_    0.239650 0.049323 0.219624 0.222492
C50   C     C_3   0.697762 0.888026 0.691514 -0.851401
H22   H     H_    0.741232 0.959251 0.761718 0.218976
H23   H     H_    0.597209 0.869800 0.648239 0.243669
H24   H     H_    0.695078 0.809814 0.716814 0.224856
N4    N     N_3   0.041313 0.203838 0.614718 -0.631009
H25   H     H_    0.104099 0.235023 0.692062 0.205058
H26   H     H_    0.984527 0.243832 0.602855 0.227842
C51   C     C_3   0.290970 0.648062 0.244239 -0.851416
H27   H     H_    0.255786 0.700202 0.200339 0.232400
H28   H     H_    0.259190 0.638057 0.309875 0.247897
H29   H     H_    0.400101 0.700908 0.274787 0.224931
C52   C     C_3   0.326138 0.802043 0.750335 -0.900276
H30   H     H_    0.287922 0.774934 0.811187 0.241427
H31   H     H_    0.434625 0.842308 0.784589 0.229098
H32   H     H_    0.305198 0.870366 0.724249 0.241964
N5    N     N_3   0.099414 0.383166 0.441945 -0.617117
H33   H     H_    0.138950 0.383160 0.387001 0.255667
H34   H     H_    0.106803 0.327774 0.488661 0.273352
N6    N     N_3   0.666825 0.240365 0.217160 -0.597536
H35   H     H_    0.609072 0.157792 0.227475 0.216668
H36   H     H_    0.736935 0.235057 0.194302 0.224787
N7    N     N_3   0.670651 0.586200 0.058807 -0.566334
H37   H     H_    0.672338 0.665794 0.058582 0.218165
H38   H     H_    0.576579 0.517837 0.047105 0.231028
C53   C     C_3   0.517365 0.559785 0.848841 -0.830407
H39   H     H_    0.535622 0.638629 0.818704 0.236141
H40   H     H_    0.430777 0.479101 0.791718 0.247282
H41   H     H_    0.488468 0.570801 0.913603 0.214209

loop_
_geom_bond_atom_site_label_1
_geom_bond_atom_site_label_2
_ccdc_geom_bond_type
C46   N7    S    
C8    H16   S    
C17   C29   A    
C52   H30   S    
C50   H24   S    
C41   H11   S    
C4    C8    A    
C52   H32   S    
N3    H17   S    
N7    H38   S    
C26   C27   A    
C17   C23   S    
C31   C43   A    
C36   C37   A    
C50   H23   S    
C5    C11   A    
Cu2   O8    S    
Cu2   O6    S    
C5    C6    A    
C48   H14   S    
C14   H12   S    
C37   N2    A    
C53   H39   S    
C18   C19   A    
Cu2   O4    S    
C16   H3    S    
C13   H1    S    
C11   C15   A    
C6    H15   S    
C19   C20   A    
C53   H40   S    
C8    C9    A    
C18   C50   S    
Cu1   O7    S    
C18   C30   A    
C22   C30   A    
C9    C10   A    
C44   C47   A    
C34   O7    A    
C7    N3    S    
C12   O4    A    
Cu1   O1    S    
C21   C22   A    
C37   C41   A    
C23   O5    A    
C49   H21   S    
C14   C45   A    
N3    H18   S    
C40   H8    S    
C33   N6    S    
C24   C25   A    
C49   H20   S    
C39   C40   A    
C28   H4    S    
C27   H6    S    
C49   H19   S    
C2    C48   A    
C16   C29   A    
C1    O1    A    
C35   H10   S    
C35   C36   A    
C2    C4    A    
C26   H2    S    
C51   H28   S    
N5    H33   S    
C20   C21   A    
C34   C45   S    
C50   H22   S    
N6    H36   S    
C40   C41   A    
N5    H34   S    
C12   O3    A    
N4    H26   S    
C47   C53   S    
C22   C27   A    
C42   N1    A    
Cu1   O5    S    
C15   C45   A    
C23   O6    A    
C51   H27   S    
C19   H5    S    
C16   C25   A    
C46   C47   A    
Cu1   N1    S    
C9    H13   S    
C17   C28   A    
C24   C28   A    
C4    C5    A    
C10   C13   A    
C52   H31   S    
C38   C42   A    
C6    C7    A    
N7    H37   S    
C3    C46   A    
C3    C7    A    
C1    O2    A    
C53   H41   S    
C32   N2    A    
C32   C33   A    
C36   C38   A    
C2    C3    A    
C25   C26   A    
C12   C44   S    
C42   N5    S    
C51   H29   S    
C38   C39   A    
C29   C49   S    
C31   C52   S    
C20   N4    S    
C1    C30   S    
C33   C35   A    
C31   C39   A    
Cu2   O2    S    
N6    H35   S    
C10   C11   A    
C43   H7    S    
C15   C51   S    
N4    H25   S    
C43   N1    A    
Cu1   Cu2   S    
Cu1   O3    S    
C21   C24   A    
C32   H9    S    
C13   C14   A    
Cu2   N2    S    
C44   C48   A    
C34   O8    A    
