data_mof_unit_56301.cif
_audit_creation_date              2012-12-10T17:36:22-0500
_audit_creation_method            fapswitch 2.2
_symmetry_space_group_name_H-M    P1
_symmetry_Int_Tables_number       1
_space_group_crystal_system       triclinic
_cell_length_a                    12.325501
_cell_length_b                    13.087819
_cell_length_c                    15.856636
_cell_angle_alpha                 77.856215
_cell_angle_beta                  101.334729
_cell_angle_gamma                 116.491009
_cell_volume                      2222.6274546

loop_
_atom_site_label
_atom_site_type_symbol
_atom_type_description
_atom_site_fract_x
_atom_site_fract_y
_atom_site_fract_z
_atom_type_partial_charge
C1    C     C_R   0.854989 0.286171 0.505692 0.827659
C2    C     C_3   0.064692 0.418424 0.075338 0.828780
C3    C     C_3   0.001930 0.495693 0.084238 0.171674
C4    C     C_3   0.072819 0.620313 0.039717 -0.453067
C5    C     C_3   0.067674 0.621937 0.941315 -0.414588
C6    C     C_1   0.000244 0.497272 0.175878 0.020834
C7    C     C_1   0.000256 0.497690 0.825341 -0.021042
C8    C     C_1   0.999245 0.498591 0.749447 -0.145917
C9    C     C_R   0.270154 0.031028 0.400081 0.462569
C10   C     C_R   0.227761 0.836401 0.471453 -0.124413
C11   C     C_R   0.816935 0.079259 0.546248 0.623023
C12   C     C_R   0.999596 0.499501 0.659666 0.834851
C13   C     C_R   0.738034 0.963076 0.555603 -0.234651
C14   C     C_R   0.614094 0.927860 0.528824 -0.288695
C15   C     C_R   0.566296 0.008931 0.488499 0.117272
C16   C     C_R   0.649241 0.125204 0.467446 0.007923
C17   C     C_R   0.438934 0.978205 0.467697 0.050733
C18   C     C_R   0.396781 0.060228 0.418281 0.039064
C19   C     C_R   0.481549 0.168740 0.386324 -0.213583
C20   C     C_R   0.605566 0.200020 0.409250 -0.172322
C21   C     C_R   0.352210 0.868634 0.496444 -0.252797
C22   C     C_R   0.186517 0.918195 0.424638 -0.238527
C23   C     C_R   0.145074 0.713972 0.487732 0.818662
C24   C     C_R   0.773488 0.162386 0.504252 -0.254074
C25   C     C_R   0.343289 0.322552 0.634187 0.420351
C26   C     C_R   0.764116 0.652863 0.388957 -0.055481
C27   C     C_R   0.671513 0.691517 0.368270 0.397389
C28   C     C_R   0.564360 0.630077 0.407692 -0.273524
C29   C     C_R   0.551847 0.535102 0.472763 -0.019344
C30   C     C_R   0.652042 0.503480 0.495095 0.263431
C31   C     C_R   0.446119 0.473434 0.518861 -0.071747
C32   C     C_R   0.443966 0.382951 0.586868 -0.077348
C33   C     C_R   0.543220 0.354860 0.608309 -0.189378
C34   C     C_R   0.000062 0.499830 0.340458 0.798504
C35   C     C_R   0.645078 0.414493 0.564256 -0.168909
C36   C     C_R   0.342141 0.497971 0.501367 -0.154636
C37   C     C_R   0.245359 0.352255 0.614586 0.738274
C38   C     C_3   0.059471 0.415571 0.976010 0.244916
C39   C     C_3   0.869127 0.449263 0.939688 -0.455830
C40   C     C_3   0.869146 0.448192 0.037695 -0.438046
C41   C     C_1   0.999868 0.498564 0.251105 -0.161218
C42   C     C_3   0.002231 0.497100 0.917946 0.100032
Cu1   Cu    Cu3+1 0.098280 0.475420 0.519630 1.006702
Cu2   Cu    Cu3+1 0.901720 0.524580 0.480370 0.924331
H1    H     H_    0.032490 0.677355 0.049596 0.194300
H2    H     H_    0.089881 0.894442 0.405674 0.158888
H3    H     H_    0.452513 0.230387 0.343494 0.166433
H4    H     H_    0.379266 0.805733 0.538376 0.165592
H5    H     H_    0.558792 0.836218 0.538676 0.161047
H6    H     H_    0.772650 0.899668 0.586421 0.173655
H7    H     H_    0.989953 0.327359 0.965055 0.151374
H8    H     H_    0.666199 0.282700 0.378627 0.177445
H9    H     H_    0.543555 0.286965 0.660903 0.206991
H10   H     H_    0.334895 0.563673 0.449853 0.176649
H11   H     H_    0.845841 0.698089 0.356720 0.141762
H12   H     H_    0.494729 0.661720 0.388489 0.164092
H13   H     H_    0.717642 0.389288 0.588578 0.203806
H14   H     H_    0.823081 0.503122 0.900406 0.205383
H15   H     H_    0.814648 0.360373 0.922811 0.188344
H16   H     H_    0.814998 0.358796 0.067990 0.220457
H17   H     H_    0.823338 0.501846 0.045045 0.190345
H18   H     H_    0.160222 0.670257 0.920783 0.158250
H19   H     H_    0.016071 0.672335 0.905142 0.205960
H20   H     H_    0.169608 0.656509 0.069341 0.207699
N1    N     N_R   0.246300 0.438200 0.549400 -0.281152
N2    N     N_R   0.754300 0.561180 0.451130 -0.227938
O1    O     O_R   0.972520 0.318130 0.524690 -0.477768
O2    O     O_R   0.806530 0.359650 0.491530 -0.619369
O3    O     O_R   0.083030 0.479240 0.637150 -0.516012
O4    O     O_R   0.917040 0.520750 0.603990 -0.601720
O5    O     O_R   0.193470 0.640350 0.508470 -0.590697
O6    O     O_R   0.027480 0.681870 0.475310 -0.589789
O7    O     O_R   0.082960 0.479250 0.396010 -0.583318
O8    O     O_R   0.916970 0.520760 0.362850 -0.585602
F1    F     F_    0.996509 0.306892 0.114720 -0.737795
O9    O     O_3   0.165938 0.417494 0.951652 -0.568913
C43   C     C_3   0.262339 0.527943 0.936937 0.112222
H21   H     H_    0.281355 0.580532 0.989001 0.176134
H22   H     H_    0.242522 0.573678 0.872729 0.148034
C44   C     C_3   0.377633 0.514149 0.933908 -0.747877
H23   H     H_    0.364309 0.466909 0.879415 0.267627
H24   H     H_    0.455253 0.600290 0.924021 0.194044
H25   H     H_    0.399772 0.465166 0.995681 0.246086
O10   O     O_3   0.187121 0.465420 0.116489 -0.632851
C45   C     C_3   0.227596 0.379760 0.157942 0.181120
H26   H     H_    0.221196 0.324529 0.110904 0.197916
H27   H     H_    0.173629 0.325453 0.212328 0.199816
C46   C     C_3   0.359986 0.437767 0.196803 -0.837244
H28   H     H_    0.367291 0.488609 0.247308 0.255521
H29   H     H_    0.394063 0.371416 0.227167 0.207499
H30   H     H_    0.417590 0.496313 0.145538 0.256478
O11   O     O_3   0.226577 0.109965 0.353813 -0.597667
C47   C     C_3   0.229370 0.182670 0.409884 0.021129
H31   H     H_    0.289522 0.273151 0.385938 0.161085
H32   H     H_    0.265024 0.164248 0.479157 0.156972
C48   C     C_3   0.101437 0.173780 0.407450 -0.718542
H33   H     H_    0.039696 0.084486 0.432585 0.248977
H34   H     H_    0.103861 0.234042 0.448424 0.244369
H35   H     H_    0.065385 0.196522 0.339823 0.241726
F2    F     F_    0.935479 0.109607 0.579878 -0.618998
F3    F     F_    0.148435 0.294554 0.660607 -0.561471
F4    F     F_    0.340060 0.235749 0.699523 -0.626576
O12   O     O_3   0.682807 0.788486 0.308570 -0.571793
C49   C     C_3   0.778514 0.887197 0.340847 0.046623
H36   H     H_    0.867219 0.898364 0.324507 0.153223
H37   H     H_    0.784230 0.882440 0.412633 0.138535
C50   C     C_3   0.756769 0.993210 0.298687 -0.705559
H38   H     H_    0.668266 0.983716 0.313970 0.244811
H39   H     H_    0.830836 0.071162 0.323981 0.198215
H40   H     H_    0.755172 0.004289 0.227134 0.264181

loop_
_geom_bond_atom_site_label_1
_geom_bond_atom_site_label_2
_ccdc_geom_bond_type
Cu1   O7    S    
C12   O3    A    
C47   H31   S    
C40   H16   S    
Cu2   N2    S    
C19   C20   A    
C5    C42   S    
C3    C6    S    
C26   H11   S    
C49   H37   S    
C28   H12   S    
C7    C8    T    
C38   O9    S    
C43   H21   S    
C10   C22   A    
C26   C27   A    
C30   C35   A    
C28   C29   A    
C38   C42   S    
C19   H3    S    
C25   F4    S    
C43   C44   S    
C14   H5    S    
C15   C16   A    
C48   H35   S    
C11   C24   A    
C1    O2    A    
C5    H19   S    
C18   C19   A    
C7    C42   S    
C25   C37   A    
C2    O10   S    
C6    C41   T    
C48   H34   S    
C50   H38   S    
Cu2   O4    S    
C16   C20   A    
C21   H4    S    
C25   C32   A    
C45   H27   S    
C16   C24   A    
C13   C14   A    
C29   C31   A    
C50   H39   S    
C34   C41   S    
C44   H25   S    
C9    O11   S    
C49   H36   S    
C39   C42   S    
C4    H1    S    
C43   H22   S    
C10   C21   A    
C33   H9    S    
C26   N2    A    
Cu1   N1    S    
C23   O5    A    
O9    C43   S    
C44   H24   S    
C39   C40   S    
C36   N1    A    
C4    C5    S    
C38   H7    S    
C45   H26   S    
C39   H14   S    
C17   C21   A    
C40   H17   S    
C37   N1    A    
C11   F2    S    
Cu1   Cu2   S    
C29   C30   A    
C2    C38   S    
C31   C32   A    
C46   H30   S    
C8    C12   S    
C39   H15   S    
C48   H33   S    
C17   C18   A    
O10   C45   S    
Cu2   O8    S    
C30   N2    A    
C34   O8    A    
C22   H2    S    
C46   H29   S    
C3    C40   S    
C47   C48   S    
C50   H40   S    
Cu2   O2    S    
C3    C4    S    
O12   C49   S    
C45   C46   S    
C15   C17   A    
C12   O4    A    
Cu1   O5    S    
C14   C15   A    
C23   O6    A    
C44   H23   S    
C1    O1    A    
C10   C23   S    
C4    H20   S    
C35   H13   S    
C32   C33   A    
C2    C3    S    
C20   H8    S    
C37   F3    S    
C11   C13   A    
C47   H32   S    
C27   O12   S    
O11   C47   S    
C33   C35   A    
C5    H18   S    
Cu2   O6    S    
C9    C22   A    
C36   H10   S    
C34   O7    A    
C13   H6    S    
C9    C18   A    
C46   H28   S    
C1    C24   S    
Cu1   O1    S    
C27   C28   A    
C31   C36   A    
Cu1   O3    S    
C49   C50   S    
C2    F1    S    
