data_mof_unit_66960.cif
_audit_creation_date              2013-03-05T15:58:11-0500
_audit_creation_method            fapswitch 2.2
_symmetry_space_group_name_H-M    P1
_symmetry_Int_Tables_number       1
_space_group_crystal_system       triclinic
_cell_length_a                    8.239857
_cell_length_b                    12.712056
_cell_length_c                    14.217443
_cell_angle_alpha                 93.056379
_cell_angle_beta                  90.727884
_cell_angle_gamma                 98.266279
_cell_volume                      1471.33245421

loop_
_atom_site_label
_atom_site_type_symbol
_atom_site_description
_atom_site_fract_x
_atom_site_fract_y
_atom_site_fract_z
_atom_type_partial_charge
P1    P     P_3+3 0.054400 0.427280 0.286870 0.487477
O1    O     O_2   0.887370 0.460630 0.272300 -0.376431
O2    O     O_3   0.129410 0.451380 0.388510 -0.403335
O3    O     O_3   0.670210 0.653170 0.329170 -0.387279
O4    O     O_2   0.806635 0.603560 0.165837 -0.438554
O5    O     O_3   0.018172 0.289208 0.264284 -0.529724
O6    O     O_3   0.677526 0.781122 0.170786 -0.499633
H1    H     H_    0.808715 0.868165 0.280910 0.105918
C1    C     C_3   0.636708 0.959101 0.220228 -0.738920
H2    H     H_    0.650080 0.017826 0.281375 0.194939
H3    H     H_    0.715838 0.990960 0.162829 0.288376
P2    P     P_3+3 0.668300 0.742890 0.573060 0.452704
P3    P     P_3+3 0.131847 0.844348 0.381468 0.479866
O7    O     O_2   0.845380 0.761330 0.544970 -0.372579
O8    O     O_3   0.088930 0.704860 0.376040 -0.355093
O9    O     O_2   0.001245 0.889876 0.441880 -0.414540
O10   O     O_3   0.682434 0.764307 0.695842 -0.563370
O11   O     O_3   0.115204 0.899793 0.271200 -0.583259
C2    C     C_3   0.106337 0.822604 0.195618 0.568174
H4    H     H_    0.015739 0.752885 0.210338 0.069770
C3    C     C_3   0.047158 0.870332 0.106090 -0.065918
H5    H     H_    0.926329 0.896157 0.117154 0.135895
C4    C     C_3   0.230625 0.763969 0.661467 0.357015
H6    H     H_    0.360725 0.753823 0.654376 0.092515
H7    H     H_    0.160775 0.736139 0.595272 0.126645
C5    C     C_3   0.218439 0.881325 0.679510 -0.820890
H8    H     H_    0.264739 0.908110 0.751392 0.276866
H9    H     H_    0.290935 0.929520 0.627833 0.205613
H10   H     H_    0.088536 0.893929 0.674390 0.272267
Ba1   Ba    Ba6+2 0.855630 0.555280 0.454520 1.574708
C6    C     C_3   0.967421 0.237093 0.345240 0.393538
C7    C     C_3   0.987675 0.120836 0.329211 -0.807953
H11   H     H_    0.932182 0.089041 0.260321 0.282250
H12   H     H_    0.928418 0.073539 0.385839 0.209840
H13   H     H_    0.119916 0.113412 0.328063 0.276849
C8    C     C_3   0.714844 0.672086 0.737336 0.416929
H14   H     H_    0.829633 0.648250 0.709641 0.099819
H15   H     H_    0.611954 0.606208 0.723849 0.121688
C9    C     C_3   0.734586 0.695993 0.843297 -0.914944
H16   H     H_    0.843065 0.757367 0.858989 0.298366
H17   H     H_    0.751694 0.623196 0.879386 0.202255
H18   H     H_    0.623324 0.725662 0.871321 0.270764
P4    P     P_3+3 0.135310 0.572810 0.713130 0.463054
O12   O     O_2   0.302330 0.539400 0.727760 -0.381511
O13   O     O_3   0.060300 0.548700 0.611500 -0.406466
O14   O     O_3   0.519500 0.346920 0.670840 -0.375894
O15   O     O_3   0.168100 0.710256 0.739329 -0.548569
P5    P     P_3+3 0.059143 0.156512 0.626492 0.458032
O16   O     O_3   0.614310 0.373510 0.452640 -0.394334
O17   O     O_3   0.100780 0.295230 0.623970 -0.383460
O18   O     O_2   0.191040 0.111120 0.566798 -0.388944
O19   O     O_3   0.097015 0.119931 0.740788 -0.501753
Ba2   Ba    Ba6+2 0.334200 0.444810 0.545490 1.556514
P6    P     P_3+3 0.656553 0.649477 0.206276 0.487946
C10   C     C_3   0.683486 0.853803 0.249913 0.367409
H19   H     H_    0.507352 0.948937 0.195300 0.309365
O20   O     O_3   0.575400 0.626570 0.547370 -0.402911
C11   C     C_3   0.486842 0.304735 0.257243 0.269237
H20   H     H_    0.375916 0.334940 0.284930 0.051294
H21   H     H_    0.595137 0.366972 0.269470 0.106682
C12   C     C_3   0.462563 0.280912 0.150773 -0.091878
H22   H     H_    0.332913 0.246126 0.135050 0.164179
H23   H     H_    0.487007 0.356363 0.114211 0.008961
P7    P     P_3+3 0.526298 0.240734 0.423397 0.429544
O21   O     O_2   0.344320 0.238700 0.455090 -0.367136
O22   O     O_3   0.511148 0.212196 0.301518 -0.552018
H24   H     H_    0.031901 0.808135 0.047270 0.116308
C13   C     C_3   0.050542 0.197220 0.805487 0.237064
H25   H     H_    0.127347 0.275362 0.797412 0.126588
H26   H     H_    0.919219 0.205787 0.795554 0.022623
C14   C     C_3   0.078302 0.165161 0.905815 -0.019160
H27   H     H_    0.062812 0.232892 0.956083 0.079015
H28   H     H_    0.205612 0.147652 0.914628 0.194915
P8    P     P_3+3 0.536389 0.346231 0.793201 0.449658
C15   C     C_3   0.534740 0.145120 0.758806 0.388006
H29   H     H_    0.654444 0.177132 0.728649 0.035467
O23   O     O_2   0.404431 0.408156 0.835771 -0.413890
O24   O     O_3   0.479334 0.215934 0.826352 -0.504735
H30   H     H_    0.441797 0.126234 0.700843 0.145999
H31   H     H_    0.663548 0.059222 0.854874 0.299091
C16   C     C_3   0.557409 0.043316 0.805315 -0.817828
H32   H     H_    0.579947 0.981037 0.751243 0.214232
H33   H     H_    0.447373 0.014692 0.845962 0.293576
C17   C     C_R   0.986255 0.444232 0.060816 -0.089294
C18   C     C_R   0.188289 0.489678 0.194363 0.243512
C19   C     C_R   0.348630 0.530580 0.222904 -0.445679
C20   C     C_R   0.462748 0.574506 0.159253 0.342845
C21   C     C_R   0.417886 0.577777 0.064397 -0.200567
C22   C     C_R   0.257178 0.538038 0.032727 0.059789
C23   C     C_R   0.142168 0.489729 0.096783 -0.051871
H34   H     H_    0.384223 0.531431 0.296528 0.172211
C24   C     C_R   0.055980 0.499711 0.901343 -0.038925
C25   C     C_R   0.942988 0.448090 0.964870 0.029909
C26   C     C_R   0.009560 0.499461 0.803600 0.264903
C27   C     C_R   0.855705 0.447108 0.773266 -0.530927
C28   C     C_R   0.742382 0.402668 0.837004 0.244868
C29   C     C_R   0.785784 0.401936 0.932141 -0.274579
C30   C     C_R   0.210804 0.547478 0.937926 -0.072640
H35   H     H_    0.506141 0.615820 0.016439 0.151611
H36   H     H_    0.696813 0.365329 0.980340 0.178441
H37   H     H_    0.820039 0.445998 0.699659 0.175445
H38   H     H_    0.896840 0.404948 0.106651 0.199972
H39   H     H_    0.298598 0.590802 0.893214 0.169782
C31   C     C_R   0.763805 0.176460 0.537286 -0.525827
C32   C     C_R   0.424686 0.814566 0.469498 -0.505487
C33   C     C_R   0.401495 0.995359 0.436307 -0.208898
C34   C     C_R   0.335468 0.888605 0.433686 0.313177
C35   C     C_R   0.574528 0.847170 0.516467 0.253393
C36   C     C_R   0.639363 0.957637 0.525841 -0.074572
C37   C     C_R   0.552425 0.031985 0.482592 -0.087913
C38   C     C_R   0.617450 0.141277 0.487923 0.265937
C39   C     C_R   0.852598 0.104911 0.577800 0.223166
C40   C     C_R   0.788634 0.996444 0.574921 -0.172115
H40   H     H_    0.331549 0.048657 0.402967 0.193879
H41   H     H_    0.857695 0.943888 0.609915 0.185355
H42   H     H_    0.813562 0.260155 0.539866 0.169084
H43   H     H_    0.373594 0.731096 0.464230 0.185058
H44   H     H_    0.837093 0.243532 0.355683 0.086785
H45   H     H_    0.040576 0.268534 0.409319 0.125803
H46   H     H_    0.598798 0.826092 0.305931 0.139064
N1    N     N_R   0.572077 0.208250 0.114548 0.290844
O25   O     O_R   0.514334 0.125547 0.060127 -0.286128
O26   O     O_R   0.728972 0.228549 0.132151 -0.376359
N2    N     N_R   0.962926 0.071730 0.927230 0.268696
O27   O     O_R   0.961708 0.982019 0.878464 -0.355865
O28   O     O_R   0.867860 0.075788 0.999250 -0.335149
N3    N     N_R   0.265920 0.787666 0.180897 0.204172
O29   O     O_R   0.335614 0.790644 0.099234 -0.390957
O30   O     O_R   0.334881 0.746112 0.249238 -0.473303
N4    N     N_R   0.162202 0.962066 0.080103 0.306418
O31   O     O_R   0.179290 0.050067 0.132551 -0.355677
O32   O     O_R   0.240536 0.958422 0.001398 -0.304283

loop_
_geom_bond_atom_site_label_1
_geom_bond_atom_site_label_2
_geom_bond_distance
_ccdc_geom_bond_type
C20   C21   1.398166 A    
C17   H38   1.076093 S    
Ba1   O13   2.792334 S    
C27   C28   1.391636 A    
O6    C10   1.412923 S    
P4    O12   1.512562 D    
C16   H32   1.110529 S    
C24   C30   1.411889 A    
C9    H17   1.107162 S    
C18   C19   1.395310 A    
C32   C34   1.387821 A    
C5    H8    1.105230 S    
P3    O11   1.764520 S    
C33   H40   1.074932 S    
C8    H14   1.104819 S    
C2    C3    1.541983 S    
O11   C2    1.409907 S    
C19   H34   1.082539 S    
P6    C20   1.836489 S    
P2    C35   1.842318 S    
C33   C34   1.385926 A    
C11   H21   1.109408 S    
C30   H39   1.079440 S    
Ba1   O20   2.906413 S    
P4    C26   1.865857 S    
C35   C36   1.427459 A    
C12   N1    1.460643 S    
P1    O1    1.512202 D    
C4    C5    1.518019 S    
C12   H23   1.109506 S    
C37   C38   1.413067 A    
C24   C25   1.421992 A    
C16   H33   1.108736 S    
C31   H42   1.082333 S    
O12   Ba2   2.829492 S    
P4    Ba2   3.386216 S    
P5    O18   1.544652 D    
C2    H4    1.104568 S    
C13   H25   1.110712 S    
P8    O23   1.542817 D    
P2    O10   1.752138 S    
C4    H6    1.103225 S    
C1    C10   1.524113 S    
O10   C8    1.397654 S    
Ba2   O21   2.868818 S    
C1    H2    1.109008 S    
O19   C13   1.406711 S    
P3    C34   1.826231 S    
P2    Ba1   3.406875 S    
C11   C12   1.532693 S    
P5    O17   1.749755 S    
O5    C6    1.397285 S    
O13   Ba2   2.914994 S    
O16   P7    1.764412 S    
C3    H5    1.102826 S    
C3    H24   1.112898 S    
C32   H43   1.082128 S    
C12   H22   1.111005 S    
C17   C23   1.408747 A    
O7    Ba1   2.868600 S    
H1    C10   1.103626 S    
C39   C40   1.401834 A    
Ba1   Ba2   4.566319 S    
C11   O22   1.401313 S    
C9    H18   1.110929 S    
C10   H46   1.103940 S    
P1    C18   1.863481 S    
C32   C35   1.394463 A    
O17   Ba2   2.790875 S    
C4    O15   1.396799 S    
P1    O5    1.749199 S    
C7    H13   1.107412 S    
P8    C28   1.832720 S    
O4    P6    1.546097 D    
C9    H16   1.110532 S    
C31   C39   1.389542 A    
Ba2   O20   2.821509 S    
C19   C20   1.392649 A    
C15   C16   1.518082 S    
P7    C38   1.839412 S    
C11   H20   1.109838 S    
P1    O2    1.561961 S    
C7    H12   1.106930 S    
O2    Ba1   2.914229 S    
N4    O32   1.300891 A    
C15   H29   1.111867 S    
N3    O30   1.293449 A    
C6    H44   1.099998 S    
C1    H3    1.108122 S    
C14   N2    1.458896 S    
C6    C7    1.516515 S    
C28   C29   1.395542 A    
C24   C26   1.436362 A    
C1    H19   1.106489 S    
P4    O13   1.561842 S    
C6    H45   1.109522 S    
N1    O25   1.300143 A    
P2    O20   1.586081 S    
P5    C39   1.845698 S    
Ba1   O16   2.822179 S    
P2    O7    1.506618 D    
P3    O8    1.754870 S    
N3    O29   1.301771 A    
C25   C29   1.405599 A    
O14   P8    1.744045 S    
C29   H36   1.082717 S    
O8    Ba1   2.790285 S    
N2    O28   1.300414 A    
C33   C37   1.405876 A    
O3    P6    1.747129 S    
C8    C9    1.522854 S    
H31   C16   1.104766 S    
C31   C38   1.391688 A    
C18   C23   1.433843 A    
C36   C40   1.417786 A    
C5    H9    1.107215 S    
C22   C30   1.412236 A    
O1    Ba1   2.828979 S    
C7    H11   1.106805 S    
C8    H15   1.109709 S    
N4    O31   1.300144 A    
C14   H27   1.112065 S    
C36   C37   1.424762 A    
P7    O21   1.568244 D    
O2    Ba2   2.792905 S    
P4    O15   1.748376 S    
C13   C14   1.527592 S    
O16   Ba2   2.905628 S    
O14   Ba2   2.787385 S    
C2    N3    1.461210 S    
P1    Ba1   3.385757 S    
C17   C25   1.410700 A    
C4    H7    1.110989 S    
C26   C27   1.396059 A    
C15   O24   1.406450 S    
C3    N4    1.460108 S    
N1    O26   1.299812 A    
C21   H35   1.083624 S    
P5    O19   1.750329 S    
C21   C22   1.407022 A    
C5    H10   1.106919 S    
C13   H26   1.111011 S    
P8    O24   1.746886 S    
P3    O9    1.542832 D    
C14   H28   1.110149 S    
O6    P6    1.759002 S    
C22   C23   1.420846 A    
C15   H30   1.110517 S    
O3    Ba1   2.787982 S    
C27   H37   1.082197 S    
P7    O22   1.750501 S    
N2    O27   1.301370 A    
C40   H41   1.074837 S    
