data_mof_unit_64551.cif
_audit_creation_date              2012-12-10T20:59:07-0500
_audit_creation_method            fapswitch 2.2
_symmetry_space_group_name_H-M    P1
_symmetry_Int_Tables_number       1
_space_group_crystal_system       triclinic
_cell_length_a                    13.688735
_cell_length_b                    15.08389
_cell_length_c                    15.876971
_cell_angle_alpha                 89.975792
_cell_angle_beta                  89.974534
_cell_angle_gamma                 82.920536
_cell_volume                      3253.27353974

loop_
_atom_site_label
_atom_site_type_symbol
_atom_type_description
_atom_site_fract_x
_atom_site_fract_y
_atom_site_fract_z
_atom_type_partial_charge
C1    C     C_R   0.499977 0.500002 0.661020 0.901442
C2    C     C_R   0.559014 0.946517 0.556828 -0.135737
C3    C     C_1   0.499964 0.192853 0.500019 0.079432
C4    C     C_1   0.500036 0.807147 0.499981 0.079432
C5    C     C_R   0.686055 0.484080 0.499950 0.901820
C6    C     C_R   0.313945 0.515920 0.500050 0.901819
C7    C     C_1   0.210763 0.528380 0.500243 -0.155175
C8    C     C_1   0.789237 0.471620 0.499756 -0.155175
C9    C     C_2   0.019751 0.538670 0.500555 -0.038662
C10   C     C_2   0.980249 0.461329 0.499445 -0.038662
C11   C     C_1   0.876579 0.463578 0.499583 -0.018457
C12   C     C_R   0.500022 0.499998 0.338980 0.901441
C13   C     C_1   0.123421 0.536422 0.500417 -0.018457
C14   C     C_R   0.497033 0.419117 0.044262 0.135673
C15   C     C_R   0.502967 0.580883 0.955738 0.135673
C16   C     C_R   0.499978 0.500093 0.087049 -0.002567
C17   C     C_R   0.500022 0.499906 0.912951 -0.002567
C18   C     C_R   0.502936 0.580956 0.043613 -0.087724
C19   C     C_R   0.497063 0.419044 0.956387 -0.087724
C20   C     C_1   0.499983 0.499945 0.176129 0.020895
C21   C     C_1   0.500017 0.500055 0.823870 0.020895
C22   C     C_1   0.039146 0.374649 0.498050 0.216932
C23   C     C_1   0.499996 0.499969 0.749181 -0.140136
C24   C     C_1   0.960854 0.625351 0.501950 0.216932
C25   C     C_1   0.494073 0.336162 0.910922 0.253413
C26   C     C_1   0.505927 0.663837 0.089078 0.253413
C27   C     C_1   0.500004 0.500031 0.250819 -0.140137
C28   C     C_R   0.558987 0.040235 0.556843 -0.146656
C29   C     C_R   0.441013 0.959765 0.443157 -0.146656
C30   C     C_R   0.499974 0.094966 0.500015 0.065660
C31   C     C_R   0.500026 0.905034 0.499985 0.065660
C32   C     C_R   0.440986 0.053483 0.443172 -0.135737
H1    H     H_    0.605282 0.906369 0.601382 0.151199
H2    H     H_    0.394718 0.093631 0.398618 0.151199
H3    H     H_    0.605239 0.069997 0.601406 0.146669
H4    H     H_    0.394761 0.930003 0.398594 0.146669
I1    I     I_    0.492528 0.296991 0.112412 -0.312355
I2    I     I_    0.507472 0.703008 0.887588 -0.312355
N1    N     N_1   0.500030 0.729450 0.499980 -0.078258
N2    N     N_1   0.499970 0.270550 0.500020 -0.078258
N3    N     N_1   0.086219 0.305443 0.496934 -0.182288
N4    N     N_1   0.913781 0.694557 0.503066 -0.182288
N5    N     N_1   0.491691 0.270037 0.874458 -0.165120
N6    N     N_1   0.508308 0.729963 0.125542 -0.165120
O1    O     O_R   0.500000 0.426350 0.621980 -0.611227
O2    O     O_R   0.500000 0.573650 0.378020 -0.611227
O3    O     O_R   0.499960 0.573690 0.621980 -0.595703
O4    O     O_R   0.500040 0.426310 0.378020 -0.595702
O5    O     O_R   0.640370 0.415730 0.499980 -0.608423
O6    O     O_R   0.359630 0.584270 0.500020 -0.608422
O7    O     O_R   0.640330 0.563060 0.499980 -0.601367
O8    O     O_R   0.359670 0.436940 0.500020 -0.601367
Zn1   Zn    Zn3+2 0.500030 0.401620 0.500000 1.006721
Zn2   Zn    Zn3+2 0.499970 0.598380 0.500000 1.006721

loop_
_geom_bond_atom_site_label_1
_geom_bond_atom_site_label_2
_ccdc_geom_bond_type
C15   C18   A    
N1    Zn2   S    
C15   I2    S    
C6    C7    S    
C20   C27   T    
C5    C8    S    
C24   N4    T    
C9    C10   D    
C18   C26   S    
C4    N1    T    
C16   C20   S    
C12   O4    A    
O7    Zn2   S    
C5    O5    A    
O2    Zn2   S    
C28   C30   A    
O1    Zn1   S    
C9    C24   S    
C6    O6    A    
C14   I1    S    
C30   C32   A    
C29   H4    S    
C1    O1    A    
O6    Zn2   S    
C8    C11   T    
O5    Zn1   S    
C3    C30   S    
C12   O2    A    
C25   N5    T    
C17   C19   A    
C3    N2    T    
C1    C23   S    
C29   C32   A    
O3    Zn2   S    
C21   C23   T    
O4    Zn1   S    
C19   C25   S    
C14   C16   A    
C22   N3    T    
C10   C11   S    
C12   C27   S    
C26   N6    T    
C4    C31   S    
C7    C13   T    
O8    Zn1   S    
C2    H1    S    
C16   C18   A    
N2    Zn1   S    
C5    O7    A    
C15   C17   A    
C9    C13   S    
C1    O3    A    
C2    C28   A    
C6    O8    A    
C29   C31   A    
C14   C19   A    
C10   C22   S    
C17   C21   S    
C28   H3    S    
C2    C31   A    
C32   H2    S    
