data_mof_unit_36556.cif
_audit_creation_date              2013-03-05T15:53:19-0500
_audit_creation_method            fapswitch 2.2
_symmetry_space_group_name_H-M    P1
_symmetry_Int_Tables_number       1
_space_group_crystal_system       triclinic
_cell_length_a                    27.346829
_cell_length_b                    7.258605
_cell_length_c                    22.530447
_cell_angle_alpha                 90.337144
_cell_angle_beta                  101.313329
_cell_angle_gamma                 90.222427
_cell_volume                      4385.25527582

loop_
_atom_site_label
_atom_site_type_symbol
_atom_site_description
_atom_site_fract_x
_atom_site_fract_y
_atom_site_fract_z
_atom_type_partial_charge
O1    O     O_R   0.207310 0.594030 0.676830 -0.585016
O2    O     O_R   0.792690 0.405970 0.323170 -0.590871
O3    O     O_R   0.292690 0.094030 0.823170 -0.604703
O4    O     O_R   0.707310 0.905970 0.176830 -0.591689
O5    O     O_R   0.197320 0.262370 0.795700 -0.574643
O6    O     O_R   0.802680 0.737630 0.204300 -0.561411
O7    O     O_R   0.302680 0.762370 0.704300 -0.564821
O8    O     O_R   0.697320 0.237630 0.295700 -0.561911
C1    C     C_R   0.183848 0.433290 0.810844 0.950341
C2    C     C_R   0.816211 0.566342 0.189273 0.958365
C3    C     C_R   0.316128 0.933499 0.689130 0.943176
C4    C     C_R   0.683657 0.066349 0.310501 0.958423
O9    O     O_R   0.201410 0.264250 0.675590 -0.615037
O10   O     O_R   0.798590 0.735750 0.324410 -0.612816
O11   O     O_R   0.298590 0.764250 0.824410 -0.601687
O12   O     O_R   0.701410 0.235750 0.175590 -0.613035
O13   O     O_R   0.296810 0.094940 0.702210 -0.553534
O14   O     O_R   0.703190 0.905060 0.297790 -0.559748
O15   O     O_R   0.203190 0.594940 0.797790 -0.546812
O16   O     O_R   0.796810 0.405060 0.202210 -0.559182
C5    C     C_R   0.190184 0.431565 0.652868 1.149344
C6    C     C_R   0.810133 0.567973 0.346724 1.147514
C7    C     C_R   0.310103 0.933556 0.846679 1.150553
C8    C     C_R   0.689874 0.066401 0.153362 1.149126
O17   O     O_3   0.281300 0.427390 0.758870 -0.268225
O18   O     O_3   0.718700 0.572610 0.241130 -0.267965
O19   O     O_3   0.218700 0.927390 0.741130 -0.268884
O20   O     O_3   0.781300 0.072610 0.258870 -0.268324
V1    V     V_3+5 0.244190 0.152150 0.748350 1.238074
V2    V     V_3+5 0.755810 0.847850 0.251650 1.252043
V3    V     V_3+5 0.255810 0.652150 0.751650 1.262455
V4    V     V_3+5 0.744190 0.347850 0.248350 1.251416
C9    C     C_R   0.654738 0.051093 0.094378 -0.565085
C10   C     C_R   0.344775 0.942539 0.906166 -0.560698
C11   C     C_R   0.845616 0.558996 0.405599 -0.564585
C12   C     C_R   0.155808 0.431356 0.592847 -0.576770
C13   C     C_R   0.642954 0.971102 0.988196 0.512461
C14   C     C_R   0.357087 0.920301 0.015251 0.499474
C15   C     C_R   0.859416 0.506366 0.513474 0.511888
C16   C     C_R   0.138122 0.332233 0.487422 0.562821
C17   C     C_R   0.673858 0.030507 0.041941 0.353266
C18   C     C_R   0.325333 0.939529 0.958816 0.345477
C19   C     C_R   0.827091 0.542583 0.458617 0.352239
C20   C     C_R   0.170855 0.342958 0.543892 0.381600
C21   C     C_R   0.602908 0.040515 0.091500 0.559906
C22   C     C_R   0.396722 0.954911 0.910082 0.560916
C23   C     C_R   0.897531 0.562776 0.408342 0.561912
C24   C     C_R   0.106628 0.498283 0.586134 0.572998
C25   C     C_R   0.569472 0.979191 0.036992 -0.097930
C26   C     C_R   0.430791 0.933696 0.967381 -0.098123
C27   C     C_R   0.932071 0.516825 0.463477 -0.102108
C28   C     C_R   0.070759 0.461770 0.531492 -0.112922
C29   C     C_R   0.590451 0.953600 0.984132 -0.382493
C30   C     C_R   0.409837 0.927896 0.020589 -0.375845
C31   C     C_R   0.912013 0.505206 0.517368 -0.381371
C32   C     C_R   0.089496 0.408410 0.479945 -0.386511
C33   C     C_R   0.516286 0.946220 0.032315 -0.160826
C34   C     C_R   0.484574 0.923427 0.973956 -0.163601
C35   C     C_R   0.985161 0.483623 0.467721 -0.151578
C36   C     C_R   0.017484 0.475043 0.526304 -0.149971
C37   C     C_R   0.508001 0.875447 0.925179 0.517665
C38   C     C_R   0.493641 0.919980 0.083439 0.507794
C39   C     C_R   0.995282 0.456277 0.577819 0.511849
C40   C     C_R   0.007083 0.443805 0.416372 0.502207
C41   C     C_R   0.558991 0.903772 0.928745 0.249116
C42   C     C_R   0.441861 0.923782 0.078003 0.249748
C43   C     C_R   0.944386 0.485640 0.574085 0.240298
C44   C     C_R   0.058854 0.423487 0.422271 0.213761
C45   C     C_R   0.631462 0.884479 0.373682 0.368136
C46   C     C_R   0.366510 0.113999 0.623366 0.379374
C47   C     C_R   0.867739 0.383740 0.125241 0.368697
C48   C     C_R   0.132193 0.613005 0.875222 0.409405
C49   C     C_R   0.598462 0.883824 0.414062 -0.206727
C50   C     C_R   0.399352 0.114743 0.582813 -0.184380
C51   C     C_R   0.900626 0.382430 0.084733 -0.206745
C52   C     C_R   0.099347 0.613560 0.915759 -0.202551
H1    H     H_    0.590976 0.754803 0.434458 0.227801
H2    H     H_    0.406230 0.243425 0.561788 0.224711
H3    H     H_    0.907937 0.252891 0.064199 0.227699
H4    H     H_    0.091986 0.742796 0.936430 0.226239
C53   C     C_R   0.572275 0.041732 0.424972 -0.127841
C54   C     C_R   0.425839 0.957338 0.572168 -0.133085
C55   C     C_R   0.926897 0.540466 0.073830 -0.128566
C56   C     C_R   0.073352 0.454983 0.926709 -0.134586
C57   C     C_R   0.580464 0.206515 0.394903 0.390249
C58   C     C_R   0.417780 0.792486 0.602267 0.389903
C59   C     C_R   0.918792 0.706241 0.103880 0.389033
C60   C     C_R   0.081775 0.289508 0.896723 0.393787
C61   C     C_R   0.615366 0.208797 0.356341 -0.181484
C62   C     C_R   0.383223 0.790237 0.641263 -0.178255
C63   C     C_R   0.884045 0.709089 0.142634 -0.183001
C64   C     C_R   0.116552 0.287673 0.857971 -0.220993
H5    H     H_    0.620975 0.334563 0.333504 0.241817
H6    H     H_    0.377459 0.663936 0.663626 0.243049
H7    H     H_    0.878450 0.835738 0.165350 0.242286
H8    H     H_    0.122551 0.161062 0.835546 0.247427
C65   C     C_R   0.642927 0.052002 0.346829 -0.347550
C66   C     C_R   0.356010 0.947315 0.651462 -0.364926
C67   C     C_R   0.856595 0.551827 0.152432 -0.350552
C68   C     C_R   0.143562 0.445920 0.847912 -0.360941
N1    N     N_R   0.490568 0.116541 0.451572 0.000594
N2    N     N_R   0.507515 0.882681 0.545525 -0.003865
N3    N     N_R   0.008591 0.616455 0.047244 -0.002413
N4    N     N_R   0.991755 0.378014 0.953453 -0.001828
N5    N     N_R   0.456162 0.093906 0.485516 -0.025395
N6    N     N_R   0.541919 0.905323 0.511585 -0.032508
N7    N     N_R   0.043015 0.593446 0.013345 -0.031259
N8    N     N_R   0.957325 0.401038 0.987356 -0.032161
C69   C     C_R   0.463688 0.975480 0.532983 0.255188
C70   C     C_R   0.534396 0.023738 0.464119 0.252141
C71   C     C_R   0.035543 0.472794 0.965955 0.254497
C72   C     C_R   0.964788 0.521806 0.034721 0.252314
N9    N     N_R   0.577685 0.887445 0.873740 0.290612
O21   O     O_R   0.577730 0.728255 0.846895 -0.338081
O22   O     O_R   0.587763 0.035554 0.846082 -0.304552
N10   N     N_R   0.422640 0.931157 0.132823 0.291125
O23   O     O_R   0.427751 0.791130 0.169272 -0.330841
O24   O     O_R   0.406188 0.086464 0.150135 -0.315732
N11   N     N_R   0.926594 0.505507 0.629683 0.291671
O25   O     O_R   0.931072 0.371632 0.668492 -0.326796
O26   O     O_R   0.909971 0.664192 0.643923 -0.323823
N12   N     N_R   0.080633 0.429494 0.368963 0.283210
O27   O     O_R   0.061315 0.337068 0.320284 -0.313425
O28   O     O_R   0.118419 0.538144 0.367879 -0.329426
O29   O     O_3   0.412515 0.999067 0.857344 -0.574197
C73   C     C_3   0.422156 0.189410 0.857427 -0.121128
H9    H     H_    0.453726 0.227755 0.894593 0.093372
H10   H     H_    0.388413 0.271118 0.860817 0.111608
H11   H     H_    0.432957 0.224592 0.813904 0.201639
O30   O     O_3   0.586423 0.097234 0.142582 -0.568578
C74   C     C_3   0.572134 0.282533 0.135654 -0.154537
H12   H     H_    0.541271 0.301649 0.095903 0.103733
H13   H     H_    0.604484 0.372284 0.131972 0.110586
H14   H     H_    0.558310 0.325221 0.176699 0.187561
O31   O     O_3   0.094998 0.602726 0.632928 -0.561574
C75   C     C_3   0.094190 0.789687 0.616446 -0.092184
H15   H     H_    0.061848 0.819087 0.579450 0.090176
H16   H     H_    0.129610 0.832722 0.603094 0.090036
H17   H     H_    0.090230 0.873777 0.656417 0.172659
O32   O     O_3   0.912807 0.622659 0.356931 -0.569447
C76   C     C_3   0.926531 0.809110 0.364591 -0.142584
H18   H     H_    0.959020 0.828957 0.402470 0.102965
H19   H     H_    0.894570 0.895301 0.371760 0.106773
H20   H     H_    0.937716 0.855889 0.322415 0.181761
O33   O     O_3   0.274416 0.952138 0.955438 -0.579064
C77   C     C_3   0.263116 0.137729 0.966235 0.005703
H21   H     H_    0.270751 0.228408 0.929393 0.079837
H22   H     H_    0.283893 0.188606 0.010877 0.118684
H23   H     H_    0.222855 0.148671 0.967212 0.183166
O34   O     O_3   0.723937 0.062379 0.043242 -0.571666
C78   C     C_3   0.729304 0.246233 0.025199 -0.030563
H24   H     H_    0.720328 0.345014 0.059454 0.077891
H25   H     H_    0.705902 0.275012 0.979913 0.121599
H26   H     H_    0.768604 0.270333 0.021365 0.174725
O35   O     O_3   0.219990 0.287365 0.549790 -0.561087
C79   C     C_3   0.222962 0.093550 0.553459 0.050110
H27   H     H_    0.194970 0.030523 0.577186 0.039185
H28   H     H_    0.260220 0.056833 0.579316 0.115941
H29   H     H_    0.220240 0.032247 0.507776 0.146367
O36   O     O_3   0.776561 0.560432 0.457293 -0.575179
C80   C     C_3   0.767669 0.743924 0.473527 -0.009415
H30   H     H_    0.772322 0.840354 0.436817 0.080713
H31   H     H_    0.792085 0.787281 0.516978 0.116289
H32   H     H_    0.728751 0.755120 0.480335 0.178528
O37   O     O_3   0.665164 0.930450 0.939584 -0.558531
C81   C     C_3   0.683929 0.749155 0.946354 -0.016483
H33   H     H_    0.654180 0.647532 0.950560 0.087258
H34   H     H_    0.715300 0.738607 0.985906 0.118938
H35   H     H_    0.698558 0.711765 0.905351 0.184545
O38   O     O_3   0.335462 0.895958 0.065269 -0.567501
C82   C     C_3   0.323572 0.707488 0.069095 0.010939
H36   H     H_    0.357100 0.618972 0.071614 0.099630
H37   H     H_    0.293897 0.663439 0.030408 0.111678
H38   H     H_    0.309083 0.685885 0.111201 0.186585
O39   O     O_3   0.838407 0.469204 0.563222 -0.560808
C83   C     C_3   0.827236 0.279158 0.563065 -0.009979
H39   H     H_    0.861251 0.193910 0.564710 0.094670
H40   H     H_    0.798269 0.239836 0.522993 0.106563
H41   H     H_    0.812115 0.247716 0.604112 0.185342
O40   O     O_3   0.153806 0.239293 0.440648 -0.552502
C84   C     C_3   0.129852 0.065007 0.432333 -0.070863
H42   H     H_    0.090492 0.077165 0.408445 0.132642
H43   H     H_    0.131072 0.990845 0.475757 0.034207
H44   H     H_    0.149375 0.978350 0.403687 0.206320
O41   O     O_3   0.482408 0.790688 0.873230 -0.530725
C85   C     C_3   0.475120 0.603886 0.885422 -0.080956
H45   H     H_    0.448369 0.587335 0.916379 0.075767
H46   H     H_    0.510933 0.533780 0.904233 0.113300
H47   H     H_    0.458876 0.535651 0.841924 0.175638
O42   O     O_3   0.520762 0.878550 0.140094 -0.531029
C86   C     C_3   0.536068 0.693974 0.140371 -0.046224
H48   H     H_    0.562142 0.671405 0.108904 0.063672
H49   H     H_    0.503451 0.598994 0.129066 0.107239
H50   H     H_    0.556335 0.660875 0.186662 0.197448
O43   O     O_3   0.022238 0.396881 0.632795 -0.541949
C87   C     C_3   0.026499 0.203402 0.630806 -0.067630
H51   H     H_    0.049788 0.160293 0.597966 0.049148
H52   H     H_    0.989339 0.134557 0.619588 0.133455
H53   H     H_    0.045179 0.155683 0.676259 0.182263
O44   O     O_3   0.978775 0.408276 0.359793 -0.529640
C88   C     C_3   0.961784 0.224784 0.357772 -0.040995
H54   H     H_    0.937377 0.200703 0.391090 0.056664
H55   H     H_    0.993564 0.126761 0.365412 0.092082
H56   H     H_    0.939244 0.197129 0.312022 0.198147
N13   N     N_R   0.648872 0.710354 0.356450 0.243952
O45   O     O_R   0.634700 0.653935 0.300770 -0.386189
O46   O     O_R   0.666797 0.591377 0.397874 -0.413251
N14   N     N_R   0.347299 0.287303 0.638438 0.244842
O47   O     O_R   0.361486 0.352154 0.693097 -0.391037
O48   O     O_R   0.326359 0.397211 0.595577 -0.377755
N15   N     N_R   0.849977 0.209828 0.142061 0.244628
O49   O     O_R   0.864248 0.154139 0.197533 -0.390653
O50   O     O_R   0.831638 0.090265 0.100325 -0.405980
N16   N     N_R   0.150308 0.786667 0.859109 0.247039
O51   O     O_R   0.135989 0.845493 0.804009 -0.374141
O52   O     O_R   0.169785 0.902431 0.901443 -0.414265
N17   N     N_R   0.555197 0.373979 0.404319 0.240194
O53   O     O_R   0.552416 0.426810 0.458848 -0.371214
O54   O     O_R   0.540764 0.485835 0.359430 -0.354847
N18   N     N_R   0.442758 0.624766 0.592360 0.239035
O55   O     O_R   0.445297 0.572852 0.537666 -0.366515
O56   O     O_R   0.457120 0.511799 0.636951 -0.357701
N19   N     N_R   0.943987 0.874075 0.094250 0.239501
O57   O     O_R   0.946643 0.924606 0.039644 -0.371314
O58   O     O_R   0.958469 0.988356 0.139022 -0.358530
N20   N     N_R   0.056852 0.121119 0.906370 0.239234
O59   O     O_R   0.054119 0.070633 0.960957 -0.374646
O60   O     O_R   0.042428 0.006872 0.861576 -0.353291

loop_
_geom_bond_atom_site_label_1
_geom_bond_atom_site_label_2
_geom_bond_distance
_ccdc_geom_bond_type
C13   O37   1.383521 S    
O17   V3    1.772412 S    
C48   N16   1.427345 S    
C82   H36   1.114128 S    
O1    C5    1.338100 A    
O42   C86   1.404856 S    
N14   O48   1.300987 A    
C59   C63   1.411099 A    
O19   V1    1.765655 S    
C9    C21   1.407898 A    
C88   H54   1.112080 S    
C22   O29   1.380536 S    
O3    C7    1.332930 A    
N19   O57   1.301385 A    
C10   C18   1.392089 A    
C64   H8    1.074713 S    
C48   C52   1.400988 A    
C74   H14   1.108509 S    
C11   C23   1.409046 A    
C52   C56   1.398910 A    
N18   O56   1.301287 A    
C80   H30   1.112483 S    
C33   C34   1.434308 A    
C25   C33   1.456261 A    
O31   C75   1.408184 S    
C38   O42   1.380111 S    
C5    C12   1.487834 S    
C27   C31   1.429821 A    
N13   O45   1.301410 A    
O7    C3    1.358597 A    
C6    C11   1.483868 S    
C82   H37   1.112540 S    
C35   C40   1.432090 A    
O37   C81   1.412516 S    
C42   N10   1.434877 S    
C3    C66   1.511003 S    
C40   C44   1.404242 A    
O9    V1    1.997181 S    
C79   H27   1.114344 S    
C50   C54   1.399624 A    
C14   C18   1.400029 A    
C21   O30   1.377201 S    
C76   H19   1.113494 S    
O16   V4    1.977669 S    
O4    C8    1.332532 A    
N16   O52   1.298958 A    
O38   C82   1.411949 S    
C46   N14   1.429625 S    
O1    V3    1.972015 S    
O13   V1    1.977444 S    
N10   O23   1.301116 A    
O2    V4    1.972019 S    
C78   H26   1.108264 S    
O3    V1    1.978456 S    
C57   N17   1.435622 S    
O12   V4    1.985586 S    
C24   O31   1.382550 S    
C16   O40   1.385962 S    
C1    O15   1.342875 A    
C83   H41   1.109104 S    
C15   C31   1.423833 A    
C60   C64   1.411621 A    
C2    O16   1.340452 A    
N14   O47   1.301144 A    
C16   C32   1.421737 A    
C23   O32   1.378226 S    
C46   C50   1.401242 A    
C78   H24   1.113191 S    
C45   C49   1.401522 A    
C10   C22   1.408429 A    
C60   N20   1.435459 S    
C11   C19   1.391529 A    
C16   C20   1.406244 A    
C77   H22   1.113835 S    
C13   C29   1.425787 A    
C45   N13   1.430493 S    
C34   C37   1.418777 A    
O11   C7    1.337492 A    
O15   V3    1.977672 S    
C35   C36   1.439082 A    
O12   C8    1.337582 A    
C81   H34   1.112334 S    
C88   H55   1.112984 S    
N7    C71   1.360416 A    
O10   V2    1.997182 S    
C75   H17   1.107990 S    
C49   C53   1.399689 A    
N18   O55   1.301388 A    
C80   H31   1.114240 S    
C62   H6    1.074548 S    
O5    V1    1.988831 S    
N11   O26   1.301244 A    
N1    N5    1.334075 A    
C82   H38   1.109185 S    
C39   C43   1.395111 A    
C56   C71   1.491990 S    
O7    V3    1.989878 S    
C38   C42   1.397536 A    
C86   H48   1.111635 S    
C26   C34   1.451279 A    
C54   C69   1.492294 S    
C52   H4    1.081908 S    
C33   C38   1.424101 A    
O32   C76   1.403622 S    
C87   H52   1.113588 S    
C19   O36   1.382908 S    
C58   C62   1.411060 A    
C84   H43   1.114288 S    
C44   N12   1.442305 S    
C57   C61   1.411205 A    
N16   O51   1.301393 A    
O44   C88   1.406457 S    
C23   C27   1.446903 A    
C17   O34   1.382602 S    
C73   H11   1.109091 S    
N17   O53   1.301378 A    
C84   H42   1.109075 S    
C47   C67   1.422716 A    
C61   H5    1.075658 S    
N8    C72   1.360537 A    
C61   C65   1.405876 A    
N3    C72   1.358412 A    
O8    V4    1.989878 S    
C43   N11   1.436724 S    
C86   H49   1.113472 S    
O5    C1    1.356184 A    
C46   C66   1.422893 A    
C77   H23   1.108690 S    
C32   C44   1.406336 A    
N15   O49   1.301359 A    
C14   C30   1.424660 A    
C21   C25   1.446456 A    
O8    C4    1.358917 A    
C7    C10   1.483073 S    
C37   O41   1.380230 S    
O9    C5    1.334097 A    
C58   N18   1.435825 S    
C4    C65   1.509704 S    
N9    O21   1.301182 A    
C85   H45   1.112018 S    
O14   V2    1.977449 S    
C75   H16   1.113275 S    
C83   H39   1.113885 S    
O6    V2    1.988832 S    
C1    C68   1.510134 S    
N20   O60   1.301242 A    
C40   O44   1.377728 S    
O29   C73   1.405466 S    
C14   O38   1.383437 S    
C36   C39   1.418451 A    
C76   H20   1.108523 S    
C27   C35   1.457254 A    
N12   O28   1.301585 A    
C74   H12   1.113327 S    
O33   C77   1.413611 S    
N4    N8    1.334079 A    
C80   H32   1.107884 S    
C29   C41   1.413961 A    
O40   C84   1.416776 S    
C64   C68   1.406590 A    
C77   H21   1.113203 S    
N6    C70   1.360391 A    
C84   H44   1.109168 S    
N5    C69   1.360456 A    
C3    O13   1.341999 A    
C73   H10   1.113737 S    
N15   O50   1.300348 A    
O34   C78   1.412801 S    
C20   O35   1.385940 S    
C41   N9    1.434761 S    
C79   H29   1.107806 S    
C56   C60   1.416281 A    
C83   H40   1.112969 S    
C87   H51   1.111154 S    
C74   H13   1.113053 S    
C15   O39   1.383537 S    
C55   C59   1.416605 A    
C48   C68   1.419640 A    
N4    C71   1.358517 A    
C31   C43   1.412829 A    
N11   O25   1.301056 A    
N19   O58   1.301295 A    
O11   V3    1.985589 S    
C30   C42   1.413282 A    
N17   O54   1.301290 A    
C22   C26   1.445656 A    
C47   N15   1.430449 S    
C8    C9    1.482591 S    
C9    C17   1.390116 A    
O36   C80   1.413700 S    
O10   C6    1.335446 A    
C85   H47   1.106736 S    
C79   H28   1.104356 S    
O30   C74   1.403121 S    
N1    C70   1.358586 A    
C86   H50   1.108993 S    
C26   C30   1.427293 A    
O39   C83   1.411569 S    
C54   C58   1.416480 A    
O2    C6    1.334507 A    
C47   C51   1.401397 A    
C18   O33   1.382938 S    
C51   C55   1.399472 A    
O41   C85   1.406227 S    
C81   H33   1.114160 S    
C51   H3    1.082010 S    
C73   H9    1.111647 S    
C25   C29   1.431213 A    
O20   V2    1.765655 S    
C88   H56   1.109080 S    
N10   O24   1.301147 A    
C12   C24   1.412036 A    
C39   O43   1.383486 S    
C78   H25   1.114263 S    
C13   C17   1.398561 A    
C2    C67   1.509709 S    
O4    V2    1.978451 S    
C12   C20   1.403326 A    
O6    C2    1.358365 A    
C63   H7    1.075516 S    
O43   C87   1.410837 S    
C37   C41   1.395251 A    
C24   C28   1.438192 A    
C53   C70   1.492250 S    
C15   C19   1.398232 A    
C81   H35   1.109093 S    
C28   C36   1.442191 A    
N20   O59   1.301376 A    
C50   H2    1.082136 S    
N2    N6    1.333984 A    
C4    O14   1.341223 A    
O35   C79   1.411460 S    
C49   H1    1.081948 S    
C55   C72   1.492108 S    
C75   H15   1.112161 S    
N2    C69   1.358545 A    
N3    N7    1.333891 A    
C63   C67   1.405918 A    
N12   O27   1.301270 A    
C76   H18   1.112909 S    
N13   O46   1.300165 A    
C85   H46   1.114138 S    
C62   C66   1.406137 A    
O18   V4    1.772411 S    
C53   C57   1.416597 A    
C28   C32   1.411067 A    
C59   N19   1.435672 S    
C87   H53   1.109029 S    
N9    O22   1.301150 A    
C45   C65   1.422357 A    
