data_mof_unit_39593.cif
_audit_creation_date              2013-03-05T15:47:30-0500
_audit_creation_method            fapswitch 2.2
_symmetry_space_group_name_H-M    P1
_symmetry_Int_Tables_number       1
_space_group_crystal_system       triclinic
_cell_length_a                    21.782519
_cell_length_b                    21.95759
_cell_length_c                    21.972561
_cell_angle_alpha                 89.074162
_cell_angle_beta                  90.729922
_cell_angle_gamma                 91.003438
_cell_volume                      10505.49282

loop_
_atom_site_label
_atom_site_type_symbol
_atom_site_description
_atom_site_fract_x
_atom_site_fract_y
_atom_site_fract_z
_atom_type_partial_charge
O1    O     O_R   0.551740 0.091630 0.999970 -0.584747
O2    O     O_R   0.000030 0.091630 0.551740 -0.598804
O3    O     O_R   0.448260 0.091630 0.000030 -0.574425
O4    O     O_R   0.999970 0.091630 0.448260 -0.572372
O5    O     O_R   0.551740 0.908370 0.000030 -0.575797
O6    O     O_R   0.000030 0.908370 0.448260 -0.585976
O7    O     O_R   0.448260 0.908370 0.999970 -0.596479
O8    O     O_R   0.999970 0.908370 0.551740 -0.572693
O9    O     O_R   0.908370 0.000030 0.551740 -0.572123
O10   O     O_R   0.908370 0.448260 0.000030 -0.598228
O11   O     O_R   0.908370 0.999970 0.448260 -0.549936
O12   O     O_R   0.908370 0.551740 0.999970 -0.562861
O13   O     O_R   0.091630 0.999970 0.551740 -0.602771
O14   O     O_R   0.091630 0.551740 0.000030 -0.565099
O15   O     O_R   0.091630 0.000030 0.448260 -0.579694
O16   O     O_R   0.091630 0.448260 0.999970 -0.584762
O17   O     O_R   0.999970 0.448260 0.908370 -0.564111
O18   O     O_R   0.551740 0.999970 0.908370 -0.562802
O19   O     O_R   0.000030 0.551740 0.908370 -0.583962
O20   O     O_R   0.448260 0.000030 0.908370 -0.576020
O21   O     O_R   0.000030 0.448260 0.091630 -0.616183
O22   O     O_R   0.448260 0.999970 0.091630 -0.565212
O23   O     O_R   0.999970 0.551740 0.091630 -0.583274
O24   O     O_R   0.551740 0.000030 0.091630 -0.615981
O25   O     O_R   0.051740 0.591630 0.499970 -0.588612
O26   O     O_R   0.500030 0.591630 0.051740 -0.600299
O27   O     O_R   0.948260 0.591630 0.500030 -0.536190
O28   O     O_R   0.499970 0.591630 0.948260 -0.600222
O29   O     O_R   0.051740 0.408370 0.500030 -0.564877
O30   O     O_R   0.500030 0.408370 0.948260 -0.551587
O31   O     O_R   0.948260 0.408370 0.499970 -0.594395
O32   O     O_R   0.499970 0.408370 0.051740 -0.565341
O33   O     O_R   0.408370 0.500030 0.051740 -0.560027
O34   O     O_R   0.408370 0.948260 0.500030 -0.557616
O35   O     O_R   0.408370 0.499970 0.948260 -0.586194
O36   O     O_R   0.408370 0.051740 0.499970 -0.638599
O37   O     O_R   0.591630 0.499970 0.051740 -0.569709
O38   O     O_R   0.591630 0.051740 0.500030 -0.563562
O39   O     O_R   0.591630 0.500030 0.948260 -0.564522
O40   O     O_R   0.591630 0.948260 0.499970 -0.590606
O41   O     O_R   0.499970 0.948260 0.408370 -0.593369
O42   O     O_R   0.051740 0.499970 0.408370 -0.538906
O43   O     O_R   0.500030 0.051740 0.408370 -0.635098
O44   O     O_R   0.948260 0.500030 0.408370 -0.605846
O45   O     O_R   0.500030 0.948260 0.591630 -0.548968
O46   O     O_R   0.948260 0.499970 0.591630 -0.581958
O47   O     O_R   0.499970 0.051740 0.591630 -0.594260
O48   O     O_R   0.051740 0.500030 0.591630 -0.570158
C1    C     C_R   0.500251 0.120321 0.996311 0.954936
C2    C     C_R   0.994792 0.120217 0.498666 0.964391
C3    C     C_R   0.498871 0.879865 0.001302 0.960714
C4    C     C_R   0.997008 0.880154 0.500270 0.827682
C5    C     C_R   0.880050 0.995830 0.499584 0.921048
C6    C     C_R   0.879625 0.500449 0.997865 0.948110
C7    C     C_R   0.120641 0.002385 0.499635 0.856637
C8    C     C_R   0.120242 0.501757 0.002849 0.941121
C9    C     C_R   0.003602 0.501304 0.880104 0.941649
C10   C     C_R   0.499415 0.005998 0.879919 0.946525
C11   C     C_R   0.990358 0.500442 0.119153 0.961119
C12   C     C_R   0.500973 0.998279 0.120268 0.955021
C13   C     C_R   0.000965 0.620062 0.502378 0.891642
C14   C     C_R   0.500165 0.619972 0.999819 0.975734
C15   C     C_R   0.000644 0.379802 0.507428 0.999643
C16   C     C_R   0.497964 0.379932 0.001080 0.864694
C17   C     C_R   0.379776 0.491742 0.999337 0.923252
C18   C     C_R   0.380317 0.998453 0.508483 0.955849
C19   C     C_R   0.619515 0.491643 0.001043 0.915957
C20   C     C_R   0.620055 0.000419 0.505994 0.947259
C21   C     C_R   0.501178 0.000032 0.380250 0.951455
C22   C     C_R   0.000013 0.496663 0.379115 0.863525
C23   C     C_R   0.504062 0.999277 0.620284 0.933354
C24   C     C_R   0.001174 0.503791 0.620100 0.964954
Zn1   Zn    Zn3+2 0.569090 0.000000 0.000000 1.194206
Zn2   Zn    Zn3+2 1.000000 0.000000 0.569090 1.182436
Zn3   Zn    Zn3+2 0.430910 0.000000 0.000000 1.196417
Zn4   Zn    Zn3+2 0.000000 0.000000 0.430910 1.225868
Zn5   Zn    Zn3+2 0.000000 0.430910 0.000000 1.117850
Zn6   Zn    Zn3+2 0.000000 0.569090 0.000000 1.266460
Zn7   Zn    Zn3+2 0.069090 0.500000 0.500000 1.274223
Zn8   Zn    Zn3+2 0.500000 0.500000 0.069090 1.206028
Zn9   Zn    Zn3+2 0.930910 0.500000 0.500000 1.184178
Zn10  Zn    Zn3+2 0.500000 0.500000 0.930910 1.205623
Zn11  Zn    Zn3+2 0.500000 0.930910 0.500000 1.222016
Zn12  Zn    Zn3+2 0.500000 0.069090 0.500000 1.104770
C25   C     C_R   0.398789 0.954797 0.800385 0.302841
C26   C     C_R   0.203328 0.940004 0.409146 0.298997
C27   C     C_R   0.575553 0.905937 0.197056 0.320387
C28   C     C_R   0.815035 0.917287 0.588244 0.242288
C29   C     C_R   0.429552 0.086014 0.191102 0.270411
C30   C     C_R   0.190486 0.097263 0.567862 0.289020
C31   C     C_R   0.573253 0.101602 0.808898 0.285149
C32   C     C_R   0.797978 0.044209 0.398289 0.312249
C33   C     C_R   0.047124 0.205025 0.399924 0.288746
C34   C     C_R   0.997968 0.615257 0.196649 0.295495
C35   C     C_R   0.073238 0.816679 0.585524 0.263224
C36   C     C_R   0.089611 0.423859 0.808269 0.287031
C37   C     C_R   0.935369 0.805937 0.401248 0.273369
C38   C     C_R   0.909434 0.412803 0.187790 0.259270
C39   C     C_R   0.907428 0.184299 0.574942 0.282871
C40   C     C_R   0.943802 0.600988 0.809756 0.315642
C41   C     C_R   0.792896 0.602910 0.039339 0.340241
C42   C     C_R   0.423247 0.803369 0.092446 0.296648
C43   C     C_R   0.184487 0.450145 0.107950 0.262140
C44   C     C_R   0.602375 0.195962 0.044859 0.302681
C45   C     C_R   0.204787 0.603254 0.948144 0.292738
C46   C     C_R   0.560993 0.810328 0.906804 0.278015
C47   C     C_R   0.815952 0.418466 0.916664 0.288738
C48   C     C_R   0.398056 0.191960 0.932459 0.287051
C49   C     C_R   0.952736 0.386790 0.306016 0.262911
C50   C     C_R   0.690354 0.400536 0.924623 0.257820
C51   C     C_R   0.111555 0.461987 0.690930 0.350587
C52   C     C_R   0.304213 0.412129 0.088526 0.268787
C53   C     C_R   0.908106 0.571728 0.693718 0.288529
C54   C     C_R   0.700477 0.539062 0.102454 0.336036
C55   C     C_R   0.070903 0.583191 0.298194 0.252084
C56   C     C_R   0.301283 0.540423 0.896332 0.341562
C57   C     C_R   0.602697 0.698468 0.952873 0.274684
C58   C     C_R   0.569237 0.099666 0.684317 0.296267
C59   C     C_R   0.551709 0.294212 0.103796 0.289757
C60   C     C_R   0.594923 0.934909 0.317511 0.280270
C61   C     C_R   0.412899 0.315033 0.922082 0.231411
C62   C     C_R   0.454389 0.896541 0.703998 0.323017
C63   C     C_R   0.401631 0.683337 0.059344 0.271230
C64   C     C_R   0.398642 0.041306 0.307318 0.232637
C65   C     C_R   0.309792 0.065195 0.605896 0.266893
C66   C     C_R   0.946587 0.300481 0.611224 0.284327
C67   C     C_R   0.690817 0.900380 0.574364 0.276297
C68   C     C_R   0.103147 0.699581 0.563233 0.280909
C69   C     C_R   0.700918 0.101063 0.455182 0.319546
C70   C     C_R   0.106597 0.296746 0.468575 0.343919
C71   C     C_R   0.299018 0.888111 0.477838 0.270695
C72   C     C_R   0.926646 0.683385 0.416909 0.181825
C73   C     C_R   0.374019 0.899161 0.779988 0.148462
C74   C     C_R   0.233243 0.888356 0.387926 0.108498
C75   C     C_R   0.600051 0.861761 0.237476 0.083278
C76   C     C_R   0.789913 0.859940 0.602205 0.058119
C77   C     C_R   0.379726 0.110812 0.222834 0.036038
C78   C     C_R   0.216690 0.122956 0.620555 0.049626
C79   C     C_R   0.592802 0.152117 0.774600 0.111675
C80   C     C_R   0.770734 0.095389 0.370320 0.091834
C81   C     C_R   0.106486 0.226970 0.383285 0.104315
C82   C     C_R   0.038711 0.658735 0.222144 0.050945
C83   C     C_R   0.134882 0.801650 0.590454 -0.001166
C84   C     C_R   0.125854 0.387264 0.771362 0.108700
C85   C     C_R   0.927643 0.769445 0.349166 0.084195
C86   C     C_R   0.896335 0.355873 0.214554 0.105129
C87   C     C_R   0.895872 0.203255 0.634410 0.047429
C88   C     C_R   0.884942 0.617359 0.788896 0.112022
C89   C     C_R   0.759465 0.632559 0.084934 0.127861
C90   C     C_R   0.388941 0.764213 0.131011 0.060764
C91   C     C_R   0.207029 0.400454 0.141292 0.057433
C92   C     C_R   0.622583 0.209610 0.103904 0.072876
C93   C     C_R   0.237348 0.629748 0.899085 0.068499
C94   C     C_R   0.613691 0.783747 0.882292 0.054650
C95   C     C_R   0.790359 0.362925 0.900600 0.072599
C96   C     C_R   0.345923 0.227490 0.919566 0.072032
C97   C     C_R   0.919255 0.342401 0.272663 0.044999
C98   C     C_R   0.727042 0.358658 0.895609 0.112374
C99   C     C_R   0.142001 0.410720 0.713993 0.081859
C100  C     C_R   0.268092 0.384015 0.134063 0.080268
C101  C     C_R   0.864093 0.594600 0.733144 0.077191
C102  C     C_R   0.718262 0.597925 0.121460 0.124191
C103  C     C_R   0.077733 0.641157 0.270781 0.067742
C104  C     C_R   0.282621 0.596108 0.870183 0.115219
C105  C     C_R   0.638913 0.732639 0.911558 0.062062
C106  C     C_R   0.580814 0.154728 0.713075 0.042822
C107  C     C_R   0.593719 0.256214 0.135118 0.098860
C108  C     C_R   0.613089 0.877644 0.297729 0.057285
C109  C     C_R   0.353116 0.291101 0.916635 0.083989
C110  C     C_R   0.404425 0.867901 0.734534 0.107788
C111  C     C_R   0.374820 0.705093 0.112593 0.040946
C112  C     C_R   0.364538 0.088611 0.280907 0.142777
C113  C     C_R   0.277394 0.109451 0.637688 0.083017
C114  C     C_R   0.918722 0.260315 0.653379 0.089274
C115  C     C_R   0.726652 0.850524 0.593230 0.083845
C116  C     C_R   0.150575 0.741423 0.579387 0.044887
C117  C     C_R   0.724064 0.125684 0.400316 0.150989
C118  C     C_R   0.138532 0.267708 0.422186 0.098306
C119  C     C_R   0.276339 0.858398 0.425633 0.073597
C120  C     C_R   0.925923 0.706156 0.357457 0.025399
C121  C     C_R   0.476527 0.955191 0.722978 -0.037660
C122  C     C_R   0.278246 0.947599 0.490147 -0.067872
C123  C     C_R   0.548141 0.965497 0.284235 -0.107261
C124  C     C_R   0.718714 0.952221 0.544549 -0.076111
C125  C     C_R   0.454583 0.025271 0.280377 -0.110023
C126  C     C_R   0.282162 0.036665 0.554570 -0.141758
C127  C     C_R   0.540513 0.049752 0.716670 -0.074671
C128  C     C_R   0.721752 0.043647 0.477075 -0.042852
C129  C     C_R   0.044499 0.279658 0.478808 -0.053644
C130  C     C_R   0.024284 0.542523 0.276931 -0.140422
C131  C     C_R   0.046501 0.721441 0.537088 -0.079973
C132  C     C_R   0.056214 0.481290 0.718641 -0.057675
C133  C     C_R   0.961880 0.716387 0.460698 -0.074204
C134  C     C_R   0.967291 0.444576 0.279460 -0.076799
C135  C     C_R   0.965050 0.278292 0.554327 -0.126791
C136  C     C_R   0.962164 0.543780 0.719164 -0.100458
C137  C     C_R   0.721572 0.518342 0.045811 -0.048558
C138  C     C_R   0.451959 0.715946 0.033202 -0.105792
C139  C     C_R   0.278720 0.455908 0.047084 -0.122452
C140  C     C_R   0.530656 0.278178 0.043902 -0.113935
C141  C     C_R   0.278507 0.521370 0.954029 -0.058447
C142  C     C_R   0.544988 0.721346 0.970885 -0.114597
C143  C     C_R   0.718103 0.446818 0.961232 -0.133857
C144  C     C_R   0.453810 0.283171 0.961287 -0.030815
C145  C     C_R   0.951333 0.453514 0.217060 -0.121870
C146  C     C_R   0.782618 0.455884 0.956032 -0.080341
C147  C     C_R   0.050678 0.469490 0.781395 -0.130661
C148  C     C_R   0.216341 0.470799 0.055214 -0.112873
C149  C     C_R   0.973100 0.550937 0.781779 -0.059400
C150  C     C_R   0.777540 0.541312 0.025446 -0.082285
C151  C     C_R   0.998893 0.554156 0.219052 -0.063783
C152  C     C_R   0.222294 0.544786 0.971592 -0.043873
C153  C     C_R   0.533083 0.782677 0.958962 -0.099191
C154  C     C_R   0.538434 0.053457 0.781125 -0.100731
C155  C     C_R   0.546597 0.220938 0.022999 -0.026259
C156  C     C_R   0.543602 0.957498 0.220700 -0.098067
C157  C     C_R   0.450793 0.219187 0.961597 -0.079275
C158  C     C_R   0.457199 0.974935 0.779508 -0.054179
C159  C     C_R   0.456764 0.779367 0.042135 -0.113181
C160  C     C_R   0.463487 0.037386 0.218473 -0.087771
C161  C     C_R   0.219750 0.047760 0.540026 -0.086638
C162  C     C_R   0.952342 0.216348 0.540862 -0.094385
C163  C     C_R   0.783239 0.955140 0.545591 -0.052044
C164  C     C_R   0.035588 0.783841 0.543379 -0.091172
C165  C     C_R   0.778348 0.024555 0.457032 -0.055334
C166  C     C_R   0.023842 0.223624 0.456484 -0.059167
C167  C     C_R   0.221734 0.965274 0.465763 -0.157804
C168  C     C_R   0.963422 0.780157 0.455161 -0.108859
C169  C     C_R   0.511674 0.998274 0.687349 0.026052
C170  C     C_R   0.313357 0.992395 0.521224 0.039229
C171  C     C_R   0.502497 0.998611 0.313979 -0.040695
C172  C     C_R   0.687213 0.001222 0.513535 0.020400
C173  C     C_R   0.004334 0.312320 0.515573 0.010062
C174  C     C_R   0.000760 0.491932 0.311097 -0.029932
C175  C     C_R   0.002380 0.686561 0.502284 -0.041234
C176  C     C_R   0.006467 0.510743 0.686385 0.010818
C177  C     C_R   0.686507 0.482030 0.004619 -0.041526
C178  C     C_R   0.498690 0.686479 0.000450 -0.040869
C179  C     C_R   0.311492 0.484382 0.997247 -0.058244
C180  C     C_R   0.493007 0.313355 0.003604 0.048107
C181  C     C_R   0.976236 0.503988 0.185418 0.042179
C182  C     C_R   0.812557 0.502211 0.989538 0.020247
C183  C     C_R   0.009947 0.506995 0.813905 -0.026543
C184  C     C_R   0.187032 0.508272 0.012005 0.006058
C185  C     C_R   0.495056 0.813506 0.000354 -0.010430
C186  C     C_R   0.497517 0.013344 0.813075 0.008219
C187  C     C_R   0.500619 0.187302 0.990478 0.015777
C188  C     C_R   0.504435 0.998940 0.186849 -0.026664
C189  C     C_R   0.188373 0.009045 0.497897 -0.024321
C190  C     C_R   0.985545 0.187448 0.494731 0.014865
C191  C     C_R   0.813383 0.989790 0.499208 -0.002851
C192  C     C_R   0.995515 0.813824 0.501316 -0.126890
N1    N     N_2   0.634919 0.194279 0.800935 -0.218432
H1    H     H_    0.630434 0.238627 0.786459 0.253825
C193  C     C_3   0.697499 0.172686 0.804889 -0.662786
H2    H     H_    0.728355 0.204486 0.780072 0.173818
H3    H     H_    0.702325 0.126572 0.785372 0.245476
H4    H     H_    0.712500 0.170191 0.853240 0.297559
N2    N     N_2   0.179334 0.157202 0.659593 -0.260007
H5    H     H_    0.174075 0.139402 0.702969 0.220411
C194  C     C_3   0.186704 0.222570 0.656643 -0.638064
H6    H     H_    0.214282 0.238320 0.696398 0.174191
H7    H     H_    0.140688 0.243217 0.658496 0.278171
H8    H     H_    0.209058 0.237990 0.613706 0.270314
N3    N     N_2   0.345535 0.160028 0.198280 -0.318468
H9    H     H_    0.324117 0.153380 0.156766 0.272984
C195  C     C_3   0.371068 0.220070 0.208956 -0.595797
H10   H     H_    0.341185 0.243567 0.241126 0.200243
H11   H     H_    0.373048 0.246189 0.165341 0.308441
H12   H     H_    0.418109 0.218307 0.229204 0.261016
N4    N     N_2   0.791584 0.118389 0.313247 -0.321979
H13   H     H_    0.838504 0.124336 0.310676 0.300961
C196  C     C_3   0.764995 0.089151 0.260513 -0.699425
H14   H     H_    0.774507 0.118019 0.219702 0.231332
H15   H     H_    0.714662 0.082998 0.265443 0.250676
H16   H     H_    0.785476 0.043892 0.253860 0.286689
N5    N     N_2   0.616012 0.803586 0.215169 -0.256568
H17   H     H_    0.657508 0.787128 0.230313 0.226579
C197  C     C_3   0.566870 0.758425 0.218264 -0.659809
H18   H     H_    0.557356 0.745643 0.266362 0.207675
H19   H     H_    0.580296 0.717073 0.193695 0.240543
H20   H     H_    0.524234 0.776033 0.196582 0.276767
N6    N     N_2   0.223131 0.870485 0.326783 -0.238218
H21   H     H_    0.262649 0.861307 0.303667 0.238671
C198  C     C_3   0.175586 0.824845 0.318972 -0.767031
H22   H     H_    0.190594 0.781241 0.339731 0.235193
H23   H     H_    0.166487 0.818671 0.269597 0.239154
H24   H     H_    0.132354 0.838555 0.340784 0.275163
N7    N     N_2   0.317467 0.875999 0.803699 -0.268868
H25   H     H_    0.290646 0.852147 0.773014 0.230040
C199  C     C_3   0.322548 0.844446 0.861864 -0.600579
H26   H     H_    0.345396 0.800161 0.856505 0.214234
H27   H     H_    0.275913 0.835696 0.880194 0.227847
H28   H     H_    0.349003 0.872158 0.895293 0.285072
N8    N     N_2   0.827178 0.816488 0.633044 -0.278453
H29   H     H_    0.807553 0.791866 0.668107 0.209744
C200  C     C_3   0.865116 0.781759 0.593452 -0.545290
H30   H     H_    0.836526 0.748461 0.567832 0.244857
H31   H     H_    0.899878 0.756863 0.620922 0.278147
H32   H     H_    0.889384 0.812569 0.560992 0.248713
N9    N     N_2   0.863736 0.163888 0.675334 -0.236510
H33   H     H_    0.884275 0.158585 0.717577 0.233223
C201  C     C_3   0.798992 0.175686 0.678169 -0.637106
H34   H     H_    0.791021 0.219861 0.700165 0.170856
H35   H     H_    0.775839 0.138160 0.703822 0.257633
H36   H     H_    0.778911 0.178046 0.631723 0.304697
N10   N     N_2   0.862670 0.310640 0.181570 -0.245998
H37   H     H_    0.879533 0.267078 0.184731 0.255115
C202  C     C_3   0.796416 0.313239 0.184523 -0.635694
H38   H     H_    0.778445 0.273408 0.210778 0.185480
H39   H     H_    0.776671 0.311177 0.137784 0.271047
H40   H     H_    0.781028 0.355780 0.206062 0.254835
N11   N     N_2   0.918488 0.796093 0.290152 -0.270562
H41   H     H_    0.937109 0.772524 0.254856 0.252196
C203  C     C_3   0.857641 0.818459 0.276273 -0.608190
H42   H     H_    0.834370 0.789337 0.242021 0.184273
H43   H     H_    0.861461 0.865376 0.257039 0.285606
H44   H     H_    0.828868 0.819084 0.317460 0.252638
N12   N     N_2   0.850995 0.662578 0.818980 -0.230640
H45   H     H_    0.804533 0.653574 0.822083 0.250449
C204  C     C_3   0.865554 0.725391 0.802306 -0.626657
H46   H     H_    0.825327 0.746989 0.779840 0.187053
H47   H     H_    0.905245 0.729088 0.770980 0.257294
H48   H     H_    0.876893 0.751268 0.844013 0.276772
N13   N     N_2   0.178769 0.845602 0.611175 -0.270941
H49   H     H_    0.213161 0.855617 0.580694 0.237067
C205  C     C_3   0.199542 0.840167 0.673848 -0.578811
H50   H     H_    0.247592 0.824255 0.675514 0.208935
H51   H     H_    0.169968 0.808152 0.700695 0.238345
H52   H     H_    0.198460 0.885617 0.695111 0.261032
N14   N     N_2   0.041242 0.719131 0.197536 -0.285816
H53   H     H_    0.042452 0.753248 0.229159 0.209795
C206  C     C_3   0.085189 0.728619 0.149315 -0.536808
H54   H     H_    0.132706 0.726326 0.167649 0.202386
H55   H     H_    0.078597 0.774296 0.128104 0.231992
H56   H     H_    0.078684 0.693786 0.113596 0.296544
N15   N     N_2   0.134752 0.206892 0.329328 -0.297410
H57   H     H_    0.166487 0.236985 0.310881 0.216908
C207  C     C_3   0.156586 0.145235 0.332422 -0.493062
H58   H     H_    0.170978 0.131475 0.286438 0.231070
H59   H     H_    0.119967 0.113074 0.348094 0.294605
H60   H     H_    0.196209 0.142040 0.364389 0.229586
N16   N     N_2   0.157933 0.337194 0.798404 -0.260250
H61   H     H_    0.200600 0.328251 0.781649 0.215012
C208  C     C_3   0.121540 0.282176 0.807167 -0.747195
H62   H     H_    0.110605 0.261372 0.762610 0.222369
H63   H     H_    0.078390 0.291748 0.831240 0.274622
H64   H     H_    0.148005 0.249036 0.835201 0.237870
N17   N     N_2   0.826665 0.309864 0.903089 -0.267887
H65   H     H_    0.812112 0.277861 0.934891 0.249275
C209  C     C_3   0.842324 0.283591 0.845911 -0.697192
H66   H     H_    0.814311 0.241822 0.837719 0.195748
H67   H     H_    0.891015 0.270181 0.848420 0.257043
H68   H     H_    0.835343 0.316495 0.807605 0.277423
N18   N     N_2   0.639976 0.807032 0.827505 -0.238183
H69   H     H_    0.686270 0.817017 0.830375 0.231576
C210  C     C_3   0.624149 0.771704 0.774402 -0.600112
H70   H     H_    0.645013 0.726007 0.777057 0.174941
H71   H     H_    0.641744 0.795599 0.733169 0.273797
H72   H     H_    0.573534 0.765736 0.770434 0.269535
N19   N     N_2   0.226393 0.691352 0.881478 -0.278500
H73   H     H_    0.264515 0.719763 0.882616 0.221049
C211  C     C_3   0.186287 0.700987 0.829281 -0.601480
H74   H     H_    0.213644 0.716084 0.789306 0.177637
H75   H     H_    0.153423 0.737322 0.839635 0.281071
H76   H     H_    0.159700 0.658967 0.817717 0.276975
N20   N     N_2   0.288966 0.198619 0.903840 -0.254778
H77   H     H_    0.251151 0.216209 0.924434 0.236129
C212  C     C_3   0.279244 0.187223 0.839794 -0.669286
H78   H     H_    0.266319 0.229503 0.814970 0.179881
H79   H     H_    0.241368 0.153208 0.834281 0.247047
H80   H     H_    0.321254 0.168963 0.819323 0.297961
N21   N     N_2   0.167257 0.365637 0.179880 -0.268282
H81   H     H_    0.162938 0.320260 0.168889 0.216497
C213  C     C_3   0.172122 0.376294 0.244541 -0.556821
H82   H     H_    0.194061 0.336791 0.266987 0.164400
H83   H     H_    0.125436 0.380603 0.263498 0.284705
H84   H     H_    0.199118 0.418485 0.254584 0.267938
N22   N     N_2   0.366661 0.786039 0.187380 -0.261092
H85   H     H_    0.370380 0.756900 0.224433 0.214111
C214  C     C_3   0.311154 0.821473 0.185287 -0.603833
H86   H     H_    0.275765 0.799673 0.214710 0.170493
H87   H     H_    0.291959 0.825623 0.138295 0.250854
H88   H     H_    0.321482 0.867702 0.202784 0.280852
N23   N     N_2   0.759098 0.697430 0.085827 -0.282862
H89   H     H_    0.715711 0.715296 0.082271 0.248458
C215  C     C_3   0.795786 0.726267 0.132614 -0.671992
H90   H     H_    0.775305 0.717539 0.177858 0.193964
H91   H     H_    0.797097 0.776243 0.124108 0.243530
H92   H     H_    0.843480 0.709886 0.131893 0.316695
N24   N     N_2   0.670828 0.175609 0.131641 -0.288082
H93   H     H_    0.695937 0.197989 0.164774 0.223187
C216  C     C_3   0.653869 0.113711 0.149107 -0.604322
H94   H     H_    0.695628 0.085827 0.153010 0.233933
H95   H     H_    0.623768 0.092122 0.114299 0.293770
H96   H     H_    0.629554 0.113136 0.193230 0.210659
N25   N     N_2   0.124378 0.681339 0.292767 -0.276887
H97   H     H_    0.112571 0.726191 0.295105 0.217152
C217  C     C_3   0.186358 0.670149 0.272904 -0.673900
H98   H     H_    0.204984 0.710846 0.248555 0.184848
H99   H     H_    0.188262 0.630342 0.242336 0.268236
H100  H     H_    0.216194 0.661287 0.313205 0.260669
N26   N     N_2   0.688446 0.624441 0.171713 -0.265104
H101  H     H_    0.676626 0.669491 0.167252 0.234795
C218  C     C_3   0.710548 0.607118 0.231842 -0.658283
H102  H     H_    0.730674 0.647490 0.254829 0.194311
H103  H     H_    0.745468 0.570829 0.230149 0.256537
H104  H     H_    0.671389 0.590167 0.259497 0.272255
N27   N     N_2   0.802364 0.603000 0.712834 -0.260193
H105  H     H_    0.769669 0.588079 0.743438 0.237659
C219  C     C_3   0.788195 0.660785 0.683870 -0.685079
H106  H     H_    0.758910 0.687825 0.714011 0.181218
H107  H     H_    0.762515 0.652502 0.640743 0.274077
H108  H     H_    0.830581 0.687357 0.673378 0.259064
N28   N     N_2   0.311832 0.618974 0.816639 -0.270821
H109  H     H_    0.319972 0.665321 0.815583 0.225300
C220  C     C_3   0.285583 0.596962 0.760246 -0.639869
H110  H     H_    0.238514 0.614275 0.753835 0.245890
H111  H     H_    0.283598 0.546507 0.759949 0.282173
H112  H     H_    0.314447 0.612983 0.721730 0.227300
N29   N     N_2   0.192146 0.387012 0.681342 -0.247709
H113  H     H_    0.191512 0.340425 0.678926 0.241357
C221  C     C_3   0.252423 0.411586 0.696872 -0.608034
H114  H     H_    0.266416 0.397388 0.743516 0.242925
H115  H     H_    0.253314 0.461995 0.693779 0.272386
H116  H     H_    0.286549 0.394321 0.664561 0.241915
N30   N     N_2   0.699840 0.318309 0.853342 -0.221103
H117  H     H_    0.715299 0.274763 0.858071 0.264884
C222  C     C_3   0.698755 0.341920 0.791147 -0.686719
H118  H     H_    0.728995 0.314743 0.762200 0.193244
H119  H     H_    0.714583 0.390358 0.787986 0.252113
H120  H     H_    0.651114 0.339781 0.772840 0.262759
N31   N     N_2   0.909947 0.282559 0.296631 -0.264927
H121  H     H_    0.947277 0.264702 0.319067 0.307337
C223  C     C_3   0.851281 0.270295 0.325096 -0.598860
H122  H     H_    0.827130 0.233618 0.300024 0.214580
H123  H     H_    0.821677 0.311094 0.324605 0.225988
H124  H     H_    0.858167 0.254887 0.373070 0.281156
N32   N     N_2   0.295593 0.342316 0.175965 -0.269559
H125  H     H_    0.268949 0.304740 0.187463 0.215573
C224  C     C_3   0.327146 0.370191 0.227394 -0.628852
H126  H     H_    0.302752 0.359195 0.270151 0.186279
H127  H     H_    0.330610 0.420659 0.222464 0.253441
H128  H     H_    0.374223 0.352177 0.231568 0.287948
N33   N     N_2   0.330536 0.669171 0.144911 -0.260927
H129  H     H_    0.337300 0.665993 0.191334 0.216344
C225  C     C_3   0.267338 0.679803 0.127325 -0.543204
H130  H     H_    0.249072 0.718906 0.151842 0.177033
H131  H     H_    0.239145 0.638711 0.138701 0.276633
H132  H     H_    0.263308 0.689553 0.077682 0.279010
N34   N     N_2   0.383202 0.808267 0.719218 -0.321480
H133  H     H_    0.373606 0.802143 0.673715 0.298467
C226  C     C_3   0.417211 0.758784 0.746877 -0.698032
H134  H     H_    0.391077 0.715457 0.740677 0.227872
H135  H     H_    0.424369 0.766021 0.796348 0.261282
H136  H     H_    0.462488 0.754511 0.724997 0.274972
N35   N     N_2   0.304955 0.328927 0.895096 -0.243300
H137  H     H_    0.290936 0.322096 0.850794 0.254829
C227  C     C_3   0.255754 0.339898 0.937065 -0.621701
H138  H     H_    0.213825 0.313889 0.923375 0.240294
H139  H     H_    0.244577 0.388907 0.935581 0.289548
H140  H     H_    0.268550 0.326969 0.984601 0.230709
N36   N     N_2   0.317324 0.116378 0.314498 -0.222691
H141  H     H_    0.282714 0.135683 0.288750 0.241538
C228  C     C_3   0.339884 0.155822 0.362390 -0.683437
H142  H     H_    0.358711 0.198996 0.342682 0.210544
H143  H     H_    0.376277 0.133397 0.390179 0.263369
H144  H     H_    0.301871 0.166233 0.393216 0.226501
N37   N     N_2   0.600523 0.260414 0.199491 -0.275804
H145  H     H_    0.601534 0.219288 0.222659 0.235345
C229  C     C_3   0.643858 0.305593 0.222012 -0.670421
H146  H     H_    0.680063 0.283136 0.249863 0.187678
H147  H     H_    0.619606 0.337589 0.251547 0.289523
H148  H     H_    0.665843 0.331715 0.184292 0.281598
N38   N     N_2   0.588604 0.210323 0.679300 -0.274846
H149  H     H_    0.566812 0.247001 0.697583 0.236598
C230  C     C_3   0.649729 0.224967 0.658094 -0.587848
H150  H     H_    0.671685 0.260313 0.686879 0.176147
H151  H     H_    0.646827 0.242999 0.610714 0.291156
H152  H     H_    0.678505 0.184027 0.659029 0.275320
N39   N     N_2   0.700744 0.716261 0.900568 -0.249614
H153  H     H_    0.711096 0.711330 0.855369 0.220019
C231  C     C_3   0.745748 0.753791 0.932145 -0.614833
H154  H     H_    0.792552 0.737797 0.922705 0.281969
H155  H     H_    0.738056 0.751296 0.981783 0.260348
H156  H     H_    0.743042 0.802093 0.916894 0.203904
N40   N     N_2   0.641147 0.835584 0.339077 -0.263045
H157  H     H_    0.617620 0.794732 0.344238 0.226660
C232  C     C_3   0.706968 0.829106 0.334403 -0.620872
H158  H     H_    0.717907 0.782813 0.318463 0.169486
H159  H     H_    0.728537 0.834887 0.380025 0.291689
H160  H     H_    0.727228 0.863523 0.302478 0.263163
N41   N     N_2   0.297432 0.799356 0.411131 -0.255496
H161  H     H_    0.306395 0.792099 0.365924 0.233463
C233  C     C_3   0.265476 0.748900 0.441006 -0.673465
H162  H     H_    0.249747 0.715032 0.406965 0.227843
H163  H     H_    0.224545 0.764159 0.465993 0.214209
H164  H     H_    0.297276 0.725962 0.473468 0.279904
N42   N     N_2   0.203822 0.271445 0.421595 -0.280938
H165  H     H_    0.225446 0.230540 0.417159 0.232217
C234  C     C_3   0.231773 0.321240 0.387573 -0.685755
H166  H     H_    0.254035 0.303236 0.346667 0.179694
H167  H     H_    0.267970 0.343167 0.416115 0.277185
H168  H     H_    0.197663 0.356207 0.374099 0.274859
N43   N     N_2   0.701714 0.182133 0.376939 -0.262730
H169  H     H_    0.733668 0.208965 0.354445 0.232150
C235  C     C_3   0.643865 0.177667 0.344041 -0.637275
H170  H     H_    0.650707 0.156988 0.299051 0.206265
H171  H     H_    0.625075 0.223936 0.337083 0.232171
H172  H     H_    0.609671 0.149704 0.369721 0.283937
N44   N     N_2   0.916129 0.666116 0.308032 -0.301317
H173  H     H_    0.934492 0.623607 0.315211 0.231000
C236  C     C_3   0.854727 0.663704 0.282494 -0.622006
H174  H     H_    0.856547 0.680266 0.234977 0.246774
H175  H     H_    0.822295 0.691928 0.308152 0.230692
H176  H     H_    0.837187 0.615911 0.282660 0.258153
N45   N     N_2   0.696964 0.794542 0.610171 -0.265801
H177  H     H_    0.713059 0.773091 0.648958 0.207488
C237  C     C_3   0.686313 0.753441 0.560234 -0.632389
H178  H     H_    0.730595 0.737027 0.542871 0.233601
H179  H     H_    0.660790 0.776537 0.522586 0.261356
H180  H     H_    0.658497 0.713593 0.576202 0.239260
N46   N     N_2   0.915904 0.277511 0.715273 -0.249140
H181  H     H_    0.879420 0.259037 0.738363 0.219865
C238  C     C_3   0.973234 0.271889 0.748746 -0.698123
H182  H     H_    0.979994 0.223738 0.763251 0.209864
H183  H     H_    0.972460 0.301110 0.789396 0.259792
H184  H     H_    0.012831 0.287218 0.720851 0.273675
N47   N     N_2   0.305360 0.138342 0.688824 -0.219904
H185  H     H_    0.276400 0.145311 0.724457 0.232389
C239  C     C_3   0.343014 0.191517 0.674083 -0.629252
H186  H     H_    0.314358 0.229271 0.656507 0.202444
H187  H     H_    0.377357 0.180944 0.639034 0.263143
H188  H     H_    0.367892 0.206931 0.715634 0.245247
N48   N     N_2   0.211853 0.721592 0.590089 -0.273599
H189  H     H_    0.245857 0.752186 0.577130 0.245229
C240  C     C_3   0.224370 0.691794 0.648123 -0.606252
H190  H     H_    0.259494 0.718065 0.674288 0.183858
H191  H     H_    0.243045 0.646112 0.639728 0.287227
H192  H     H_    0.182464 0.686744 0.676281 0.260366
N49   N     N_R   0.358327 0.998114 0.826083 0.260655
O49   O     O_R   0.351890 0.050572 0.798629 -0.311373
O50   O     O_R   0.319316 0.981784 0.867878 -0.338461
N50   N     N_R   0.170105 0.975988 0.365447 0.252208
O51   O     O_R   0.198358 0.022113 0.340025 -0.368884
O52   O     O_R   0.121016 0.953726 0.339068 -0.365562
N51   N     N_R   0.587089 0.897186 0.134056 0.222137
O53   O     O_R   0.637243 0.921471 0.112138 -0.376892
O54   O     O_R   0.566046 0.847708 0.109158 -0.412384
N52   N     N_R   0.854084 0.944001 0.634217 0.242461
O55   O     O_R   0.838939 0.995075 0.658721 -0.310622
O56   O     O_R   0.901388 0.915119 0.655898 -0.299700
N53   N     N_R   0.453544 0.118562 0.139165 0.199894
O57   O     O_R   0.417247 0.146429 0.100913 -0.408407
O58   O     O_R   0.512069 0.130525 0.137037 -0.499211
N54   N     N_R   0.139914 0.127110 0.537639 0.196290
O59   O     O_R   0.103825 0.162288 0.567300 -0.397514
O60   O     O_R   0.138548 0.130210 0.478509 -0.491485
N55   N     N_R   0.588342 0.103983 0.871637 0.217291
O61   O     O_R   0.637879 0.076736 0.890424 -0.326216
O62   O     O_R   0.573115 0.153416 0.898516 -0.365573
N56   N     N_R   0.829963 0.003065 0.360583 0.247540
O63   O     O_R   0.804176 0.950800 0.348185 -0.350226
O64   O     O_R   0.877433 0.021590 0.329512 -0.336828
N57   N     N_R   0.007503 0.172515 0.357310 0.212577
O65   O     O_R   0.949551 0.163903 0.369293 -0.390922
O66   O     O_R   0.025028 0.161975 0.302153 -0.365346
N58   N     N_R   0.949932 0.634420 0.154971 0.213733
O67   O     O_R   0.897382 0.605345 0.153910 -0.420697
O68   O     O_R   0.958685 0.679267 0.116490 -0.347110
N59   N     N_R   0.046087 0.846421 0.636240 0.263378
O69   O     O_R   0.994726 0.825517 0.658553 -0.338044
O70   O     O_R   0.073005 0.893168 0.661450 -0.347551
N60   N     N_R   0.109029 0.426877 0.870154 0.210759
O71   O     O_R   0.104778 0.378377 0.904774 -0.382836
O72   O     O_R   0.149915 0.468471 0.883429 -0.476419
N61   N     N_R   0.906171 0.863465 0.401185 0.226473
O73   O     O_R   0.918492 0.903819 0.358899 -0.283381
O74   O     O_R   0.863422 0.873330 0.440404 -0.456670
N62   N     N_R   0.874509 0.432422 0.135264 0.196848
O75   O     O_R   0.857482 0.393916 0.093709 -0.378398
O76   O     O_R   0.849886 0.485944 0.134977 -0.436232
N63   N     N_R   0.870583 0.137141 0.546686 0.192122
O77   O     O_R   0.839079 0.098030 0.579080 -0.323789
O78   O     O_R   0.859782 0.140134 0.488333 -0.455056
N64   N     N_R   0.979146 0.643805 0.845454 0.235847
O79   O     O_R   0.037082 0.653045 0.834161 -0.376467
O80   O     O_R   0.955135 0.670441 0.891751 -0.289099
N65   N     N_R   0.829805 0.638830 0.998063 0.238562
O81   O     O_R   0.828276 0.627250 0.940225 -0.362440
O82   O     O_R   0.864564 0.683366 0.017504 -0.311869
N66   N     N_R   0.423845 0.865962 0.108277 0.211561
O83   O     O_R   0.376843 0.897933 0.090786 -0.381479
O84   O     O_R   0.450318 0.880054 0.159472 -0.433230
N67   N     N_R   0.136761 0.486331 0.133612 0.194036
O85   O     O_R   0.101710 0.463652 0.175934 -0.403031
O86   O     O_R   0.139087 0.545330 0.127046 -0.400072
N68   N     N_R   0.645825 0.173084 0.002654 0.271444
O87   O     O_R   0.665137 0.209136 0.959144 -0.342630
O88   O     O_R   0.676605 0.124153 0.015330 -0.340585
N69   N     N_R   0.163373 0.641040 0.980530 0.234221
O89   O     O_R   0.164863 0.642050 0.039652 -0.401953
O90   O     O_R   0.123091 0.673791 0.951267 -0.317078
N70   N     N_R   0.531370 0.859224 0.874404 0.190882
O91   O     O_R   0.562277 0.895088 0.837902 -0.361311
O92   O     O_R   0.471781 0.861210 0.873152 -0.500341
N71   N     N_R   0.865171 0.443216 0.880374 0.197126
O93   O     O_R   0.898777 0.407422 0.848583 -0.377544
O94   O     O_R   0.865238 0.500916 0.866132 -0.460083
N72   N     N_R   0.399969 0.133522 0.905711 0.216760
O95   O     O_R   0.356668 0.093499 0.916898 -0.286612
O96   O     O_R   0.437848 0.125084 0.861580 -0.426982
N73   N     N_R   0.977404 0.369458 0.363839 0.168377
O97   O     O_R   0.942384 0.339674 0.401819 -0.441376
O98   O     O_R   0.036690 0.368999 0.371527 -0.464724
N74   N     N_R   0.626158 0.389329 0.920214 0.207780
O99   O     O_R   0.597953 0.410434 0.871948 -0.309706
O100  O     O_R   0.606139 0.338370 0.944024 -0.391299
N75   N     N_R   0.147424 0.504320 0.655436 0.250492
O101  O     O_R   0.167276 0.553832 0.681244 -0.409392
O102  O     O_R   0.173411 0.486808 0.605750 -0.285503
N76   N     N_R   0.364736 0.390284 0.082493 0.195821
O103  O     O_R   0.404866 0.405887 0.123878 -0.309029
O104  O     O_R   0.371602 0.339263 0.054535 -0.465929
N77   N     N_R   0.905878 0.595171 0.632819 0.214749
O105  O     O_R   0.858493 0.583166 0.598061 -0.315068
O106  O     O_R   0.941536 0.641264 0.619055 -0.429032
N78   N     N_R   0.666684 0.498255 0.142173 0.240876
O107  O     O_R   0.676345 0.440028 0.140478 -0.400734
O108  O     O_R   0.622640 0.517777 0.175817 -0.342678
N79   N     N_R   0.118967 0.562265 0.338182 0.245039
O109  O     O_R   0.146591 0.511667 0.326880 -0.360901
O110  O     O_R   0.137190 0.594709 0.384309 -0.371038
N80   N     N_R   0.331798 0.497946 0.858914 0.231792
O111  O     O_R   0.302475 0.448261 0.844181 -0.395554
O112  O     O_R   0.380404 0.514464 0.828495 -0.323091
N81   N     N_R   0.628067 0.645516 0.981760 0.180945
O113  O     O_R   0.664688 0.610810 0.952138 -0.400322
O114  O     O_R   0.622454 0.637594 0.040156 -0.471203
N82   N     N_R   0.599294 0.092357 0.628127 0.206697
O115  O     O_R   0.588474 0.131642 0.584646 -0.296670
O116  O     O_R   0.648320 0.059547 0.626873 -0.391976
N83   N     N_R   0.518598 0.335375 0.140147 0.271459
O117  O     O_R   0.470561 0.314408 0.168493 -0.367963
O118  O     O_R   0.546694 0.383569 0.161170 -0.311162
N84   N     N_R   0.628475 0.965649 0.365074 0.197261
O119  O     O_R   0.668865 0.936933 0.398141 -0.390297
O120  O     O_R   0.630043 0.024875 0.364874 -0.497008
N85   N     N_R   0.437925 0.346543 0.869688 0.232049
O121  O     O_R   0.491857 0.332149 0.850095 -0.304798
O122  O     O_R   0.403881 0.381249 0.835377 -0.312280
N86   N     N_R   0.491510 0.859447 0.667166 0.244837
O123  O     O_R   0.543957 0.842057 0.689219 -0.343281
O124  O     O_R   0.467839 0.831332 0.620496 -0.313013
N87   N     N_R   0.372304 0.634683 0.026448 0.186479
O125  O     O_R   0.333682 0.597853 0.053353 -0.400006
O126  O     O_R   0.373194 0.636058 0.967266 -0.469312
N88   N     N_R   0.371737 0.002668 0.353960 0.196641
O127  O     O_R   0.327192 0.021941 0.386858 -0.392695
O128  O     O_R   0.381349 0.944328 0.353547 -0.411316
N89   N     N_R   0.362765 0.038663 0.634721 0.192500
O129  O     O_R   0.401581 0.072123 0.665399 -0.388230
O130  O     O_R   0.363905 0.979892 0.642622 -0.441445
N90   N     N_R   0.965993 0.359252 0.631831 0.174247
O131  O     O_R   0.927440 0.392574 0.660714 -0.376105
O132  O     O_R   0.024433 0.371236 0.636915 -0.462603
N91   N     N_R   0.630060 0.901153 0.596678 0.224429
O133  O     O_R   0.591246 0.858599 0.580276 -0.297945
O134  O     O_R   0.619946 0.932347 0.645148 -0.368816
N92   N     N_R   0.109992 0.638535 0.583638 0.241030
O135  O     O_R   0.155357 0.606485 0.564462 -0.293348
O136  O     O_R   0.076672 0.618790 0.628663 -0.380466
N93   N     N_R   0.674998 0.142197 0.497135 0.266860
O137  O     O_R   0.704723 0.152283 0.547687 -0.357834
O138  O     O_R   0.632679 0.180019 0.479700 -0.354607
N94   N     N_R   0.140285 0.332084 0.512892 0.237307
O139  O     O_R   0.127992 0.325897 0.570424 -0.387242
O140  O     O_R   0.180490 0.373242 0.496011 -0.339186
N95   N     N_R   0.337342 0.856111 0.521273 0.222016
O141  O     O_R   0.334048 0.867938 0.578940 -0.414738
O142  O     O_R   0.378221 0.817963 0.503435 -0.333116
N96   N     N_R   0.873393 0.648478 0.435646 0.254655
O143  O     O_R   0.843912 0.663407 0.484182 -0.359333
O144  O     O_R   0.853850 0.601954 0.404529 -0.386747

loop_
_geom_bond_atom_site_label_1
_geom_bond_atom_site_label_2
_geom_bond_distance
_ccdc_geom_bond_type
C237  H180  1.110262 S    
C227  H138  1.109543 S    
C193  H3    1.113144 S    
C155  C187  1.425491 A    
C210  H70   1.109140 S    
C67   C124  1.433868 A    
C219  H107  1.110150 S    
N35   H137  1.028992 S    
C63   C138  1.421152 A    
C199  H26   1.108729 S    
N30   H117  1.022553 S    
C215  H92   1.105728 S    
N93   O137  1.298728 A    
C68   N92   1.416276 S    
C201  H35   1.108480 S    
C86   C97   1.394184 A    
C206  H54   1.107552 S    
C240  H192  1.112197 S    
C48   N72   1.421447 S    
C237  H179  1.111382 S    
C6    C182  1.471096 S    
N26   C218  1.447739 S    
N86   O124  1.301680 A    
O21   C11   1.325535 A    
O11   Zn4   2.036767 S    
N25   C217  1.450396 S    
O22   C12   1.303102 A    
O36   C18   1.322203 A    
C122  C167  1.395053 A    
C235  H171  1.109521 S    
C107  N37   1.424611 S    
N4    H13   1.030214 S    
C140  C155  1.396160 A    
N58   O67   1.301012 A    
C5    C191  1.455833 S    
C61   N85   1.441617 S    
N76   O103  1.299110 A    
C30   C78   1.406269 A    
C137  C177  1.422216 A    
C66   C135  1.414722 A    
C26   C74   1.406701 A    
C233  H162  1.110136 S    
N62   O75   1.300575 A    
N42   C234  1.444601 S    
C54   C137  1.416802 A    
C75   C108  1.398876 A    
C7    C189  1.480977 S    
O44   C22   1.308593 A    
C74   C119  1.408750 A    
C102  N26   1.425584 S    
C208  H62   1.108424 S    
C141  C152  1.397538 A    
C53   N77   1.426468 S    
C66   C114  1.404751 A    
N5    C197  1.447835 S    
C212  H80   1.108874 S    
C213  H83   1.109969 S    
C160  C188  1.432537 A    
C39   C162  1.410883 A    
C93   N19   1.424210 S    
N73   O98   1.300469 A    
C75   N5    1.425820 S    
C95   C98   1.383832 A    
N92   O136  1.298793 A    
N75   O102  1.302740 A    
O40   Zn11  2.025407 S    
C134  C174  1.442179 A    
O1    C1    1.296950 A    
N74   O99   1.301689 A    
O37   Zn8   2.036791 S    
N54   O60   1.299918 A    
C141  C179  1.433772 A    
C221  H116  1.110103 S    
C45   N69   1.438812 S    
N59   O70   1.301268 A    
N36   H141  1.029895 S    
C150  C182  1.414774 A    
O44   Zn9   2.053225 S    
C82   C103  1.410161 A    
N45   C237  1.445838 S    
C229  H146  1.109582 S    
N68   O87   1.300653 A    
C224  H128  1.107733 S    
C93   C104  1.406435 A    
N37   H145  1.029862 S    
O28   Zn10  2.053828 S    
O26   Zn8   2.041701 S    
C24   C176  1.469758 S    
C73   N7    1.425968 S    
N81   O113  1.300490 A    
O30   Zn10  2.041723 S    
C226  H136  1.108786 S    
C51   N75   1.431569 S    
C73   C110  1.400796 A    
C225  H131  1.109472 S    
N60   O71   1.301335 A    
C81   N15   1.422688 S    
O32   Zn8   2.053805 S    
N89   O130  1.299936 A    
N19   C211  1.447910 S    
C201  H34   1.108041 S    
C64   C112  1.401458 A    
C50   C143  1.427469 A    
C239  H188  1.110279 S    
O8    Zn2   2.053805 S    
N56   O63   1.300133 A    
C29   N53   1.435944 S    
N40   C232  1.448366 S    
C208  H64   1.110151 S    
O47   C23   1.307712 A    
C48   C157  1.434045 A    
C126  C161  1.416937 A    
C86   N10   1.426063 S    
C210  H72   1.110482 S    
N72   O96   1.298830 A    
N41   C233  1.450508 S    
C214  H86   1.109547 S    
C98   N30   1.411637 S    
C161  C189  1.426765 A    
C215  H90   1.107338 S    
C59   C107  1.413957 A    
C221  H114  1.107057 S    
C92   C107  1.403240 A    
C60   C108  1.402165 A    
O41   C21   1.285073 A    
N88   O127  1.298165 A    
C206  H56   1.110769 S    
C217  H99   1.112567 S    
C39   C87   1.404859 A    
C52   C100  1.408671 A    
C37   C85   1.414183 A    
C198  H24   1.110510 S    
C157  C187  1.437210 A    
N2    C194  1.441985 S    
C54   N78   1.440277 S    
C213  H82   1.103940 S    
O33   Zn8   2.027249 S    
C126  C170  1.415034 A    
C156  C188  1.448564 A    
C216  H94   1.106993 S    
C100  N32   1.422242 S    
C32   N56   1.431406 S    
N50   O51   1.298138 A    
C44   C92   1.400045 A    
C21   C171  1.457644 S    
C230  H151  1.109245 S    
N89   O129  1.299526 A    
N75   O101  1.299109 A    
N96   O144  1.300855 A    
N29   C221  1.449565 S    
C60   N84   1.438045 S    
C197  H19   1.109322 S    
N18   H69   1.029567 S    
C55   C103  1.405626 A    
N33   H129  1.030179 S    
C16   C180  1.464162 S    
C224  H127  1.113020 S    
C53   C101  1.404953 A    
C36   C84   1.409307 A    
C127  C169  1.440722 A    
C231  H156  1.109435 S    
C198  H23   1.110401 S    
C204  H46   1.110115 S    
C36   N60   1.421106 S    
N91   O133  1.301221 A    
O5    C3    1.301444 A    
C89   C102  1.415171 A    
O6    C4    1.292961 A    
N27   H105  1.031344 S    
C218  H102  1.108321 S    
N84   O119  1.299179 A    
C131  C175  1.438565 A    
C47   C95   1.381202 A    
C223  H123  1.112763 S    
C138  C159  1.411348 A    
C45   C93   1.410048 A    
C87   N9    1.419689 S    
N17   H65   1.031784 S    
N5    H17   1.028700 S    
O19   Zn6   2.055124 S    
N26   H101  1.029340 S    
N46   C238  1.447309 S    
N71   O93   1.300937 A    
C117  N43   1.425259 S    
N82   O115  1.298910 A    
C228  H144  1.105703 S    
C88   N12   1.424427 S    
C87   C114  1.407449 A    
N95   O142  1.301453 A    
C97   N31   1.419880 S    
N57   O65   1.302733 A    
O23   C11   1.285011 A    
C227  H139  1.107350 S    
C45   C152  1.431733 A    
N64   O80   1.301509 A    
C199  H27   1.110009 S    
N32   C224  1.453220 S    
N1    H1    1.025420 S    
C195  H12   1.112938 S    
C46   C94   1.413421 A    
N11   C203  1.448625 S    
C217  H98   1.107603 S    
C40   C149  1.431557 A    
O42   C22   1.291590 A    
N78   O107  1.300561 A    
N59   O69   1.300530 A    
C59   C140  1.435312 A    
N13   C205  1.447771 S    
N53   O57   1.299737 A    
C50   N74   1.417961 S    
O2    C2    1.320023 A    
N24   H93   1.030847 S    
N70   O92   1.299427 A    
C26   N50   1.431007 S    
C122  C170  1.414480 A    
N67   O85   1.298257 A    
C41   N65   1.436739 S    
C228  H142  1.109976 S    
C214  H88   1.109606 S    
C27   C156  1.446342 A    
N28   C220  1.444829 S    
C94   C105  1.401421 A    
O3    Zn3   2.040655 S    
O8    C4    1.298611 A    
C2    C190  1.494356 S    
N2    H5    1.031226 S    
C167  C189  1.417672 A    
C8    C184  1.470959 S    
O42   Zn7   2.043782 S    
O43   C21   1.302117 A    
C238  H182  1.111083 S    
C108  N40   1.424914 S    
C26   C167  1.420566 A    
C200  H31   1.108478 S    
O45   Zn11  2.055101 S    
C72   N96   1.439915 S    
O48   C24   1.278186 A    
C145  C181  1.403397 A    
C92   N24   1.424658 S    
C220  H111  1.108081 S    
O35   Zn10  2.036767 S    
O18   C10   1.300706 A    
N7    H25   1.029969 S    
C28   N52   1.437960 S    
N79   O110  1.302101 A    
C216  H96   1.110423 S    
N43   C235  1.447314 S    
C109  N35   1.421103 S    
C34   C82   1.409902 A    
O31   C15   1.318842 A    
C81   C118  1.416195 A    
O32   C16   1.284968 A    
C30   C161  1.420416 A    
C233  H163  1.112432 S    
C133  C168  1.403404 A    
C218  H104  1.109118 S    
C67   N91   1.417669 S    
C205  H51   1.112461 S    
C142  C153  1.395888 A    
N84   O120  1.300244 A    
N61   O74   1.300044 A    
O20   Zn3   2.053225 S    
C99   N29   1.425025 S    
C236  H175  1.112548 S    
O15   C7    1.287967 A    
C84   N16   1.430134 S    
C25   C158  1.418929 A    
O16   C8    1.322126 A    
N49   O49   1.300528 A    
C4    C192  1.456059 S    
C59   N83   1.426870 S    
C231  H154  1.107249 S    
C94   N18   1.423311 S    
C197  H18   1.110213 S    
C204  H48   1.108965 S    
C37   C168  1.438443 A    
N39   H153  1.029033 S    
C23   C169  1.480646 S    
C44   N68   1.436035 S    
C25   N49   1.435157 S    
C153  C185  1.424873 A    
C232  H159  1.109837 S    
C72   C120  1.391172 A    
C162  C190  1.417286 A    
N18   C210  1.446252 S    
N90   O132  1.299136 A    
O18   Zn1   2.043782 S    
C47   N71   1.438023 S    
N16   C208  1.444895 S    
C72   C133  1.422706 A    
C13   C175  1.459912 S    
C53   C136  1.439864 A    
C116  N48   1.426754 S    
O9    Zn2   2.027249 S    
N80   O112  1.302298 A    
C57   C142  1.424929 A    
C123  C171  1.414764 A    
C111  N33   1.424639 S    
N81   O114  1.299085 A    
C222  H120  1.108679 S    
C70   N94   1.440517 S    
N24   C216  1.449191 S    
C134  C145  1.421539 A    
C203  H44   1.107773 S    
O38   Zn12  2.038497 S    
O46   C24   1.306434 A    
O39   Zn10  2.027228 S    
N66   O83   1.301998 A    
N83   O118  1.301410 A    
C139  C179  1.442841 A    
C142  C178  1.413776 A    
C194  H8    1.112397 S    
N46   H181  1.022664 S    
O6    Zn4   2.041723 S    
C240  H191  1.108078 S    
C80   N4    1.421250 S    
C238  H183  1.108599 S    
N69   O89   1.299596 A    
C31   N55   1.414679 S    
N25   H97   1.024478 S    
C83   N13   1.422442 S    
O37   C19   1.292659 A    
C139  C148  1.417306 A    
C228  H143  1.111451 S    
N58   O68   1.300597 A    
C233  H164  1.109172 S    
N48   C240  1.448762 S    
O5    Zn1   2.040639 S    
O12   C6    1.280173 A    
C143  C177  1.428080 A    
C164  C192  1.424598 A    
C71   N95   1.442217 S    
N34   H133  1.029303 S    
C51   C132  1.431261 A    
C207  H60   1.108284 S    
N62   O76   1.300219 A    
C234  H168  1.111844 S    
O17   C9    1.312712 A    
N40   H157  1.030636 S    
N77   O106  1.299088 A    
C49   N73   1.421937 S    
N44   H173  1.030911 S    
N23   C215  1.441800 S    
C212  H79   1.109955 S    
C35   N59   1.439413 S    
C91   N21   1.424221 S    
C124  C163  1.405772 A    
O29   C15   1.278870 A    
C35   C83   1.390798 A    
N73   O97   1.298877 A    
C125  C160  1.397050 A    
O30   C16   1.309907 A    
C211  H76   1.111930 S    
N91   O134  1.298760 A    
N53   O58   1.298366 A    
C61   C109  1.400133 A    
C129  C166  1.396933 A    
C144  C180  1.418687 A    
C149  C183  1.436700 A    
N74   O100  1.298343 A    
C56   C141  1.421253 A    
N22   H85   1.030563 S    
C221  H115  1.107682 S    
O19   C9    1.282456 A    
N85   O122  1.298458 A    
N29   H113  1.025016 S    
O48   Zn7   2.053248 S    
N94   O139  1.299985 A    
N21   C213  1.445890 S    
N45   H177  1.027762 S    
N68   O88   1.300869 A    
O24   Zn1   2.053248 S    
C54   C102  1.410953 A    
O45   C23   1.294956 A    
O35   C17   1.299024 A    
C43   N67   1.445108 S    
N87   O125  1.297945 A    
N87   O126  1.300615 A    
O16   Zn5   2.025407 S    
C226  H135  1.109738 S    
C51   C99   1.401050 A    
C77   C112  1.400114 A    
N60   O72   1.298415 A    
C137  C150  1.387790 A    
C70   C118  1.408531 A    
N93   O138  1.301431 A    
C66   N90   1.429657 S    
C62   C121  1.433655 A    
C209  H66   1.108530 S    
C57   C105  1.408848 A    
N31   C223  1.448979 S    
C213  H84   1.112182 S    
N56   O64   1.301935 A    
C211  H74   1.110624 S    
C208  H63   1.109327 S    
C52   N76   1.419259 S    
C50   C98   1.395818 A    
C43   C91   1.397175 A    
C35   C164  1.425312 A    
C206  H55   1.109959 S    
O15   Zn4   2.027228 S    
C193  H4    1.108314 S    
C49   C97   1.415443 A    
C90   N22   1.428958 S    
C210  H71   1.108819 S    
N41   H161  1.030221 S    
C115  N45   1.425229 S    
C219  H108  1.108258 S    
N35   C227  1.448577 S    
C89   N23   1.425029 S    
C58   N82   1.417544 S    
C83   C116  1.397563 A    
N15   C207  1.443060 S    
C132  C176  1.443929 A    
C201  H36   1.105996 S    
N88   O128  1.301797 A    
N37   C229  1.446083 S    
C67   C115  1.409457 A    
C143  C146  1.421665 A    
C209  H68   1.111076 S    
C68   C116  1.416095 A    
N10   H37   1.031589 S    
C27   C75   1.411617 A    
C235  H170  1.107350 S    
N86   O123  1.296517 A    
C28   C76   1.395273 A    
N8    C200  1.443268 S    
N8    H29   1.027337 S    
N3    C195  1.443412 S    
C235  H172  1.110702 S    
C136  C176  1.426651 A    
C239  H187  1.110457 S    
C215  H91   1.110104 S    
C222  H118  1.109611 S    
C69   C117  1.408790 A    
C106  N38   1.427032 S    
C19   C177  1.479008 S    
C225  H130  1.103676 S    
O4    C2    1.289006 A    
C114  N46   1.419664 S    
N50   O52   1.301273 A    
C130  C151  1.401798 A    
C140  C180  1.426442 A    
C198  H22   1.106639 S    
N30   C222  1.453812 S    
C196  H16   1.109020 S    
C48   C96   1.412140 A    
C10   C186  1.475095 S    
C58   C127  1.435327 A    
C78   C113  1.405560 A    
O17   Zn5   2.043011 S    
C80   C117  1.401875 A    
N20   C212  1.445597 S    
O25   C13   1.281621 A    
O47   Zn12  2.043021 S    
C84   C99   1.400690 A    
N31   H121  1.026000 S    
C1    C187  1.474137 S    
N9    C201  1.440639 S    
C56   N80   1.431127 S    
C42   C90   1.409166 A    
C31   C79   1.394344 A    
C136  C149  1.404157 A    
N67   O86   1.301355 A    
O38   C20   1.299231 A    
C29   C77   1.418733 A    
C110  N34   1.425009 S    
C62   N86   1.425893 S    
O9    C5    1.298387 A    
C32   C80   1.408728 A    
N95   O141  1.300671 A    
C33   C81   1.422119 A    
N54   O59   1.299992 A    
N63   O78   1.301450 A    
N77   O105  1.301927 A    
N85   O121  1.302142 A    
C163  C191  1.422363 A    
C123  C156  1.411842 A    
C166  C190  1.416412 A    
C18   C170  1.491946 S    
C78   N2    1.422448 S    
C3    C185  1.458488 S    
N23   H89   1.031159 S    
N9    H33   1.031016 S    
C148  C184  1.401307 A    
C44   C155  1.416892 A    
C36   C147  1.438628 A    
N65   O82   1.300521 A    
N82   O116  1.299445 A    
C135  C162  1.418416 A    
C27   N51   1.426679 S    
N79   O109  1.301622 A    
N71   O94   1.300088 A    
C31   C154  1.430438 A    
C14   C178  1.461540 S    
C195  H10   1.106719 S    
O1    Zn1   2.053643 S    
C68   C131  1.441077 A    
C229  H147  1.109179 S    
C225  H132  1.110870 S    
O7    C3    1.276994 A    
C205  H50   1.109198 S    
C9    C183  1.465986 S    
N14   H53   1.029732 S    
N47   C239  1.449817 S    
C29   C160  1.429604 A    
N52   O56   1.300563 A    
C195  H11   1.109775 S    
C138  C178  1.424589 A    
N11   H41   1.030594 S    
C194  H6    1.110226 S    
C64   N88   1.443375 S    
C85   C120  1.398537 A    
N70   O91   1.300548 A    
C71   C122  1.421016 A    
N51   O53   1.301750 A    
N78   O108  1.301299 A    
O23   Zn6   2.043021 S    
N13   H49   1.029751 S    
C101  N27   1.425441 S    
C132  C147  1.405182 A    
C38   N62   1.438539 S    
N12   H45   1.030681 S    
O13   Zn2   2.036791 S    
C152  C184  1.412128 A    
N72   O95   1.300858 A    
O40   C20   1.300218 A    
C69   C128  1.421850 A    
C63   N87   1.435670 S    
C219  H106  1.111209 S    
C214  H87   1.111997 S    
C135  C173  1.411097 A    
C62   C110  1.418146 A    
C128  C172  1.429083 A    
C57   N81   1.431730 S    
C131  C164  1.404035 A    
C133  C175  1.422141 A    
C63   C111  1.408362 A    
C25   C73   1.404558 A    
N34   C226  1.447077 S    
N15   H57   1.030158 S    
C217  H100  1.108405 S    
O14   C8    1.271841 A    
N16   H61   1.027283 S    
N44   C236  1.444280 S    
N6    C198  1.439098 S    
C200  H30   1.108034 S    
C151  C181  1.414638 A    
N20   H77   1.028950 S    
N32   H125  1.030353 S    
C65   C113  1.410253 A    
C82   N14   1.424468 S    
C105  N39   1.424665 S    
C220  H110  1.106268 S    
O3    C1    1.289105 A    
O33   C17   1.315811 A    
C237  H178  1.109879 S    
N55   O62   1.294337 A    
C202  H38   1.108345 S    
C216  H95   1.107990 S    
N43   H169  1.029990 S    
C230  H150  1.107366 S    
C113  N47   1.424072 S    
C88   C101  1.397971 A    
C158  C186  1.415702 A    
C79   N1    1.416908 S    
O36   Zn12  2.025396 S    
C236  H174  1.100987 S    
C230  H152  1.104641 S    
C218  H103  1.112559 S    
C64   C125  1.413990 A    
N22   C214  1.449036 S    
N38   C230  1.445437 S    
N96   O143  1.301271 A    
C30   N54   1.441022 S    
N42   H165  1.028055 S    
O41   Zn11  2.043011 S    
C96   C109  1.403314 A    
C239  H186  1.107991 S    
C118  N42   1.423340 S    
C22   C174  1.500135 S    
C197  H20   1.111004 S    
C39   N63   1.442496 S    
N33   C225  1.446958 S    
N55   O61   1.302275 A    
C47   C146  1.417879 A    
O27   C13   1.298009 A    
C196  H15   1.108774 S    
C55   C130  1.420040 A    
C42   N66   1.422960 S    
C33   C166  1.417085 A    
C112  N36   1.424779 S    
C207  H58   1.109823 S    
C85   N11   1.427085 S    
C204  H47   1.112977 S    
O29   Zn7   2.040639 S    
N48   H189  1.030887 S    
C159  C185  1.440759 A    
C38   C145  1.421510 A    
C130  C174  1.422327 A    
N69   O90   1.301256 A    
C127  C154  1.421230 A    
N3    H9    1.030579 S    
C52   C139  1.427964 A    
O2    Zn2   2.041701 S    
C70   C129  1.417115 A    
C223  H124  1.111005 S    
O20   C10   1.288261 A    
C76   C115  1.401736 A    
C34   C151  1.421989 A    
N17   C209  1.438331 S    
C34   N58   1.445351 S    
O43   Zn12  2.055124 S    
C211  H75   1.109391 S    
C146  C182  1.410965 A    
C77   N3    1.418706 S    
O22   Zn3   2.043764 S    
N7    C199  1.447783 S    
O34   C18   1.286711 A    
C60   C123  1.418892 A    
O10   Zn5   2.038520 S    
N76   O104  1.298190 A    
N57   O66   1.300798 A    
C90   C111  1.394030 A    
C125  C171  1.401733 A    
C227  H140  1.111301 S    
C203  H43   1.109343 S    
O4    Zn4   2.053828 S    
N64   O79   1.301054 A    
C222  H119  1.113693 S    
C69   N93   1.429104 S    
O27   Zn9   2.040655 S    
C199  H28   1.110496 S    
C43   C148  1.422062 A    
C124  C172  1.443295 A    
N66   O84   1.296971 A    
C128  C165  1.388299 A    
C229  H148  1.109218 S    
C121  C169  1.435223 A    
N38   H149  1.031508 S    
C194  H7    1.108802 S    
C71   C119  1.408548 A    
O7    Zn3   2.053670 S    
C38   C86   1.399245 A    
C240  H190  1.110263 S    
C58   C106  1.390896 A    
N65   O81   1.299951 A    
O12   Zn6   2.025396 S    
C65   C126  1.420852 A    
N10   C202  1.447623 S    
C79   C106  1.374050 A    
C209  H67   1.106141 S    
C76   N8    1.421480 S    
C147  C183  1.427009 A    
C15   C173  1.493080 S    
O46   Zn9   2.043764 S    
N1    C193  1.452181 S    
N28   H109  1.029875 S    
O24   C12   1.278980 A    
N47   H185  1.026754 S    
C196  H14   1.109318 S    
C165  C191  1.415425 A    
C28   C163  1.423845 A    
C49   C134  1.420446 A    
C154  C186  1.425301 A    
N14   C206  1.447095 S    
C65   N89   1.437010 S    
C42   C159  1.444187 A    
C120  N44   1.419953 S    
C207  H59   1.110378 S    
C12   C188  1.464211 S    
C234  H167  1.109347 S    
C96   N20   1.424470 S    
N51   O54   1.298103 A    
C200  H32   1.107828 S    
C238  H184  1.108857 S    
N27   C219  1.446641 S    
O34   Zn11  2.038520 S    
C37   N61   1.424143 S    
C193  H2    1.103284 S    
N6    H21   1.029612 S    
C220  H112  1.109716 S    
C129  C173  1.411058 A    
C212  H78   1.107929 S    
C232  H158  1.111220 S    
C202  H40   1.112720 S    
N4    C196  1.443642 S    
C46   C153  1.426165 A    
C231  H155  1.105914 S    
O25   Zn7   2.053643 S    
O39   C19   1.314161 A    
C56   C104  1.406803 A    
C61   C144  1.417213 A    
O13   C7    1.314607 A    
O11   C5    1.293442 A    
C32   C165  1.422913 A    
C205  H52   1.109478 S    
C46   N70   1.436585 S    
N52   O55   1.301307 A    
C41   C150  1.424561 A    
N19   H73   1.030133 S    
C103  N25   1.419161 S    
C55   N79   1.435138 S    
C74   N6    1.419110 S    
O31   Zn9   2.053670 S    
C144  C157  1.405216 A    
C11   C181  1.495512 S    
C236  H176  1.110458 S    
C91   C100  1.395984 A    
N94   O140  1.300383 A    
O26   C14   1.290685 A    
C203  H42   1.107590 S    
N63   O77   1.298873 A    
N49   O50   1.300990 A    
N21   H81   1.031432 S    
C224  H126  1.106423 S    
N92   O135  1.301453 A    
C202  H39   1.109624 S    
C40   N64   1.440474 S    
C40   C88   1.406769 A    
C41   C89   1.419183 A    
N39   C231  1.447187 S    
O14   Zn6   2.038497 S    
C226  H134  1.109491 S    
O10   C6    1.315335 A    
C232  H160  1.112221 S    
C95   N17   1.419483 S    
C223  H122  1.104950 S    
C20   C172  1.469964 S    
C168  C192  1.432403 A    
N90   O131  1.301347 A    
C119  N41   1.425229 S    
N61   O73   1.300739 A    
O21   Zn5   2.055101 S    
C121  C158  1.394693 A    
N36   C228  1.449281 S    
C17   C179  1.493540 S    
N12   C204  1.452021 S    
C104  N28   1.424752 S    
N80   O111  1.297972 A    
C234  H166  1.108414 S    
C33   N57   1.452763 S    
N83   O117  1.298156 A    
O28   C14   1.301280 A    
