data_mof_unit_55572.cif
_audit_creation_date              2013-03-05T15:43:52-0500
_audit_creation_method            fapswitch 2.2
_symmetry_space_group_name_H-M    P1
_symmetry_Int_Tables_number       1
_space_group_crystal_system       triclinic
_cell_length_a                    13.656648
_cell_length_b                    13.48595
_cell_length_c                    27.418385
_cell_angle_alpha                 90.169302
_cell_angle_beta                  89.786926
_cell_angle_gamma                 59.821121
_cell_volume                      4365.18600112

loop_
_atom_site_label
_atom_site_type_symbol
_atom_site_description
_atom_site_fract_x
_atom_site_fract_y
_atom_site_fract_z
_atom_type_partial_charge
O1    O     O_R   0.301710 0.195650 0.554160 -0.501478
O2    O     O_R   0.522390 0.158990 0.550460 -0.488709
C1    C     C_R   0.620964 0.102325 0.569391 0.543940
O3    O     O_R   0.694390 0.003530 0.554040 -0.513847
O4    O     O_R   0.657700 0.819660 0.549320 -0.494010
C2    C     C_R   0.599455 0.779041 0.568397 0.540528
O5    O     O_R   0.501930 0.803280 0.552920 -0.514607
O6    O     O_R   0.318170 0.023580 0.549580 -0.493789
C3    C     C_R   0.278270 0.121637 0.569646 0.556809
O7    O     O_R   0.303010 0.193990 0.446760 -0.542584
O8    O     O_R   0.523600 0.157450 0.450900 -0.536794
C4    C     C_R   0.626050 0.104023 0.433879 0.527754
O9    O     O_R   0.695690 0.001860 0.446640 -0.519529
O10   O     O_R   0.658900 0.818120 0.449760 -0.508340
C5    C     C_R   0.602239 0.774729 0.430330 0.523424
O11   O     O_R   0.503220 0.801620 0.445520 -0.512721
O12   O     O_R   0.319370 0.022040 0.450020 -0.422716
C6    C     C_R   0.322863 0.101880 0.424258 0.575550
Cr1   Cr    Cr6+3 0.417550 0.169090 0.500530 1.004124
Cr2   Cr    Cr6+3 0.669180 0.913420 0.499920 1.000078
Cr3   Cr    Cr6+3 0.413260 0.917540 0.499520 1.042036
O13   O     O_3   0.499990 0.000010 0.499990 -0.263247
C7    C     C_3   0.752306 0.568701 0.735315 -0.100724
C8    C     C_3   0.773197 0.645431 0.771046 -0.116605
H1    H     H_    0.857032 0.630969 0.782847 0.108008
H2    H     H_    0.818659 0.490558 0.716472 0.120239
H3    H     H_    0.689781 0.827661 0.732981 0.104137
C9    C     C_1   0.697901 0.607805 0.900103 -0.010019
C10   C     C_1   0.631380 0.728609 0.615543 -0.020094
C11   C     C_3   0.660132 0.573921 0.770369 -0.080550
C12   C     C_3   0.680714 0.651297 0.805053 0.032848
C13   C     C_3   0.569173 0.682426 0.744186 0.051790
C14   C     C_3   0.660640 0.677106 0.709749 0.068273
C15   C     C_3   0.589209 0.759202 0.779712 -0.100087
C16   C     C_3   0.681280 0.753938 0.744800 -0.113077
C17   C     C_1   0.689653 0.632693 0.857662 -0.057195
C18   C     C_1   0.648918 0.699269 0.657428 -0.052726
H4    H     H_    0.522269 0.836848 0.798236 0.097325
H5    H     H_    0.652379 0.500380 0.783229 0.139062
C19   C     C_3   0.075795 0.155553 0.733836 0.284333
C20   C     C_3   0.149967 0.071073 0.773102 0.264961
H6    H     H_    0.341044 0.989738 0.744737 0.113172
C21   C     C_1   0.083804 0.206363 0.900561 -0.001922
C22   C     C_1   0.232417 0.136714 0.617715 -0.001798
C23   C     C_3   0.052373 0.258522 0.766624 -0.083152
C24   C     C_3   0.128031 0.172182 0.805966 0.081294
C25   C     C_3   0.158855 0.255890 0.744660 -0.157726
C26   C     C_3   0.179893 0.153361 0.711967 -0.000570
C27   C     C_3   0.233020 0.169490 0.784434 -0.000206
C28   C     C_3   0.256646 0.066472 0.751195 -0.126154
C29   C     C_1   0.104235 0.187492 0.857952 0.004379
C30   C     C_1   0.205345 0.145218 0.659916 -0.031917
H7    H     H_    0.163968 0.331687 0.732647 0.114522
H8    H     H_    0.969472 0.337096 0.773394 0.127694
C31   C     C_3   0.634017 0.284606 0.736140 0.233756
C32   C     C_3   0.568439 0.255494 0.773882 0.021717
C33   C     C_1   0.697457 0.211939 0.901264 -0.002643
C34   C     C_1   0.641755 0.137922 0.615518 0.000706
C35   C     C_3   0.741121 0.224175 0.767332 0.278943
C36   C     C_3   0.677190 0.193817 0.805273 0.019042
C37   C     C_3   0.780674 0.109888 0.739623 -0.124390
C38   C     C_3   0.671162 0.171943 0.708631 0.031172
C39   C     C_3   0.715121 0.079643 0.777790 -0.015497
C40   C     C_3   0.607364 0.141083 0.746494 0.228793
C41   C     C_1   0.684890 0.203609 0.858268 -0.020903
C42   C     C_1   0.657684 0.157584 0.656643 0.006268
H9    H     H_    0.867383 0.050646 0.725678 0.153358
C43   C     C_R   0.740187 0.692260 0.359590 -0.000995
C44   C     C_R   0.743807 0.693521 0.307838 0.014605
C45   C     C_R   0.754216 0.683580 0.204708 0.016923
C46   C     C_R   0.839994 0.688334 0.231436 0.019261
C47   C     C_R   0.834396 0.691987 0.282491 -0.110976
C48   C     C_R   0.767403 0.653097 0.155058 -0.152873
H10   H     H_    0.848931 0.620635 0.137425 0.136962
H11   H     H_    0.901365 0.695260 0.302009 0.108654
C49   C     C_R   0.679256 0.652308 0.129260 -0.007565
C50   C     C_R   0.560444 0.694868 0.355975 0.007229
C51   C     C_R   0.558488 0.706270 0.304872 0.018317
C52   C     C_R   0.651801 0.702417 0.280736 0.022681
C53   C     C_R   0.463618 0.725772 0.277410 -0.122776
C54   C     C_R   0.464807 0.730973 0.226918 -0.100240
C55   C     C_R   0.562072 0.713730 0.201986 0.045405
C56   C     C_R   0.655840 0.700483 0.229184 0.029278
C57   C     C_R   0.570110 0.704654 0.150593 0.033324
C58   C     C_R   0.639328 0.711907 0.382908 0.011324
H12   H     H_    0.390474 0.743121 0.207839 0.129999
H13   H     H_    0.386024 0.740303 0.294504 0.095355
C59   C     C_R   0.253926 0.043539 0.350524 0.210860
C60   C     C_R   0.223964 0.055358 0.300846 0.021805
C61   C     C_R   0.163728 0.079837 0.201909 0.044080
C62   C     C_R   0.151323 0.001919 0.231225 -0.109395
C63   C     C_R   0.181440 0.989429 0.279895 -0.157780
C64   C     C_R   0.125638 0.098377 0.154031 0.196656
H14   H     H_    0.116620 0.951157 0.216919 0.161146
H15   H     H_    0.167193 0.930131 0.300951 0.110476
C65   C     C_R   0.132720 0.182891 0.126044 -0.008805
C66   C     C_R   0.290536 0.203664 0.342752 -0.047424
C67   C     C_R   0.265497 0.211221 0.292527 -0.017171
C68   C     C_R   0.234055 0.136262 0.271672 0.003864
C69   C     C_R   0.271155 0.293078 0.262436 -0.126736
C70   C     C_R   0.260029 0.292940 0.212069 0.223553
C71   C     C_R   0.229526 0.217448 0.190757 0.046546
C72   C     C_R   0.209365 0.144448 0.221442 -0.037711
C73   C     C_R   0.206375 0.221285 0.140424 -0.007723
C74   C     C_R   0.285787 0.118336 0.372168 0.036757
H16   H     H_    0.281897 0.361109 0.277103 0.134287
C75   C     C_R   0.580682 0.255874 0.371610 -0.177809
C76   C     C_R   0.589157 0.279103 0.322011 -0.033418
C77   C     C_R   0.593858 0.299932 0.218812 0.017269
C78   C     C_R   0.510369 0.391880 0.247180 0.289655
C79   C     C_R   0.505397 0.380327 0.298347 0.209660
C80   C     C_R   0.598662 0.305417 0.166859 0.245533
H17   H     H_    0.508716 0.312609 0.393826 0.109873
C81   C     C_R   0.691716 0.218213 0.141011 0.009290
C82   C     C_R   0.765687 0.085553 0.368801 0.022809
C83   C     C_R   0.768766 0.096081 0.317756 0.052432
C84   C     C_R   0.679104 0.192816 0.294219 0.005248
C85   C     C_R   0.856344 0.009527 0.289565 -0.129042
C86   C     C_R   0.855162 0.017276 0.239241 -0.116381
C87   C     C_R   0.767731 0.112171 0.215862 0.013385
C88   C     C_R   0.679729 0.201924 0.242975 -0.033651
C89   C     C_R   0.771278 0.119743 0.165637 -0.159473
C90   C     C_R   0.660191 0.151908 0.392593 -0.008232
H18   H     H_    0.841799 0.050618 0.146009 0.166323
H19   H     H_    0.923735 0.949079 0.218466 0.105546
H20   H     H_    0.924507 0.933108 0.305826 0.099697
O14   O     O_R   0.818720 0.150820 0.967160 -0.504000
O15   O     O_R   0.006410 0.181720 0.970200 -0.495172
C91   C     C_R   0.046988 0.237153 0.949538 0.529431
O16   O     O_R   0.027890 0.334070 0.964920 -0.518203
O17   O     O_R   0.809600 0.521790 0.967960 -0.496397
C92   C     C_R   0.711741 0.562877 0.948302 0.538176
O18   O     O_R   0.635520 0.542770 0.964420 -0.512265
O19   O     O_R   0.665950 0.325030 0.970100 -0.499793
C93   C     C_R   0.723548 0.226131 0.950471 0.540316
O20   O     O_R   0.816620 0.158530 0.074540 -0.519249
O21   O     O_R   0.004460 0.188870 0.069750 -0.480946
C94   C     C_R   0.052305 0.240650 0.086470 0.556104
O22   O     O_R   0.025800 0.341780 0.072300 -0.521042
O23   O     O_R   0.807650 0.528950 0.067500 -0.504934
C95   C     C_R   0.706508 0.577699 0.085581 0.536805
O24   O     O_R   0.633420 0.550490 0.071810 -0.494559
O25   O     O_R   0.664000 0.332180 0.069640 -0.434017
C96   C     C_R   0.721023 0.235007 0.090867 0.570789
Cr4   Cr    Cr6+3 0.909170 0.177380 0.020380 1.039662
Cr5   Cr    Cr6+3 0.912710 0.429210 0.018220 1.015285
Cr6   Cr    Cr6+3 0.657170 0.432570 0.019030 1.060519
O26   O     O_3   0.826350 0.346390 0.019210 -0.254785
C97   C     C_3   0.319469 0.181816 0.814941 -0.281029
C98   C     C_3   0.376275 0.089047 0.853598 -0.431156
H21   H     H_    0.317251 0.101531 0.883843 0.153459
H22   H     H_    0.407905 0.002969 0.837408 0.155051
H23   H     H_    0.448426 0.093779 0.869448 0.131352
H24   H     H_    0.385265 0.175894 0.790061 0.225246
H25   H     H_    0.276973 0.267463 0.832870 0.136176
C99   C     C_3   0.452479 0.343545 0.794424 -0.278678
C100  C     C_3   0.361043 0.389149 0.755220 -0.426789
H26   H     H_    0.375127 0.442980 0.728811 0.168681
H27   H     H_    0.360899 0.317922 0.734965 0.195486
H28   H     H_    0.276698 0.442686 0.772581 0.123130
H29   H     H_    0.430003 0.304205 0.824586 0.139371
H30   H     H_    0.458006 0.416453 0.810289 0.132152
O27   O     O_3   0.596419 0.388947 0.712434 -0.721552
H31   H     H_    0.547545 0.448587 0.736364 0.310340
O28   O     O_3   0.538594 0.095791 0.733819 -0.739166
H32   H     H_    0.587220 0.026184 0.714149 0.318723
C101  C     C_3   0.767765 0.960646 0.800713 -0.267020
C102  C     C_3   0.684262 0.947963 0.833351 -0.431079
H33   H     H_    0.657237 0.009324 0.864365 0.149522
H34   H     H_    0.608952 0.963408 0.812186 0.184949
H35   H     H_    0.725347 0.859521 0.848103 0.141673
H36   H     H_    0.798068 0.895125 0.771260 0.130448
H37   H     H_    0.842260 0.945487 0.822618 0.169595
O29   O     O_3   0.809827 0.269666 0.779563 -0.675557
H38   H     H_    0.812463 0.310231 0.749978 0.355877
C103  C     C_3   0.846887 0.653149 0.389663 -0.267803
C104  C     C_3   0.932770 0.527110 0.379435 -0.447437
H39   H     H_    0.891633 0.474171 0.382428 0.163918
H40   H     H_    0.971414 0.514815 0.342670 0.154707
H41   H     H_    0.000542 0.496545 0.407072 0.133263
H42   H     H_    0.884421 0.708302 0.383067 0.133961
H43   H     H_    0.829670 0.657110 0.429288 0.167108
C105  C     C_3   0.934443 0.697498 0.206978 -0.299542
C106  C     C_3   0.041842 0.581139 0.203588 -0.408354
H44   H     H_    0.070982 0.545409 0.240649 0.157706
H45   H     H_    0.027152 0.520288 0.181770 0.188156
H46   H     H_    0.108834 0.591828 0.185515 0.175358
H47   H     H_    0.909517 0.735676 0.170091 0.142026
H48   H     H_    0.952765 0.756473 0.228276 0.134237
C107  C     C_3   0.464863 0.755547 0.118746 -0.259861
C108  C     C_3   0.395680 0.885499 0.125293 -0.459633
H49   H     H_    0.362389 0.908822 0.162968 0.166109
H50   H     H_    0.449381 0.923924 0.117526 0.151198
H51   H     H_    0.323454 0.921869 0.099587 0.134614
H52   H     H_    0.486763 0.741846 0.079405 0.166607
H53   H     H_    0.412616 0.715651 0.126738 0.173960
C109  C     C_3   0.488981 0.651338 0.380970 -0.268469
C110  C     C_3   0.560678 0.547415 0.413341 -0.427195
H54   H     H_    0.628883 0.477033 0.391368 0.159153
H55   H     H_    0.599281 0.569926 0.443800 0.165079
H56   H     H_    0.506443 0.516098 0.429348 0.123839
H57   H     H_    0.417221 0.719408 0.401987 0.184970
H58   H     H_    0.449734 0.622172 0.353826 0.163655
O30   O     O_3   0.078678 0.035993 0.136064 -0.706577
H59   H     H_    0.113175 0.006504 0.103514 0.326317
O31   O     O_3   0.251258 0.960255 0.378678 -0.701702
H60   H     H_    0.285478 0.888183 0.359489 0.303441
C111  C     C_3   0.262220 0.260061 0.102299 -0.223924
C112  C     C_3   0.303509 0.183424 0.056705 -0.465074
H61   H     H_    0.356333 0.092071 0.067077 0.138717
H62   H     H_    0.232062 0.194040 0.033941 0.164600
H63   H     H_    0.355948 0.207224 0.033960 0.140244
H64   H     H_    0.203646 0.350445 0.091758 0.197482
H65   H     H_    0.340309 0.253982 0.117372 0.200429
O32   O     O_3   0.267049 0.374446 0.184265 -0.766440
H66   H     H_    0.292219 0.418046 0.204731 0.339749
C113  C     C_3   0.334019 0.279254 0.362532 -0.258550
C114  C     C_3   0.239236 0.396427 0.379731 -0.400864
H67   H     H_    0.180788 0.443635 0.349428 0.146218
H68   H     H_    0.190822 0.386354 0.409827 0.174941
H69   H     H_    0.275931 0.448009 0.393612 0.143367
H70   H     H_    0.395099 0.236826 0.391025 0.191302
H71   H     H_    0.388240 0.288535 0.335578 0.159637
O33   O     O_3   0.515443 0.394869 0.140695 -0.638720
H72   H     H_    0.442762 0.400452 0.150137 0.358725
O34   O     O_3   0.436479 0.493944 0.224327 -0.700081
H73   H     H_    0.387537 0.553239 0.248390 0.359847
O35   O     O_3   0.413818 0.467387 0.322928 -0.771840
H74   H     H_    0.431599 0.466718 0.357688 0.314746
C115  C     C_3   0.873424 0.010313 0.397671 -0.276749
C116  C     C_3   0.960995 0.048396 0.390925 -0.428654
H75   H     H_    0.990288 0.038941 0.352580 0.168833
H76   H     H_    0.924200 0.139550 0.402179 0.160824
H77   H     H_    0.035868 0.994967 0.414038 0.178692
H78   H     H_    0.856464 0.017337 0.437445 0.175653
H79   H     H_    0.910111 0.918676 0.387349 0.134868
C117  C     C_3   0.449468 0.705111 0.733214 -0.283746
C118  C     C_3   0.436790 0.670859 0.681551 -0.429091
H80   H     H_    0.428888 0.736892 0.655270 0.163466
H81   H     H_    0.510356 0.586792 0.671023 0.209247
H82   H     H_    0.358619 0.665120 0.679336 0.136671
H83   H     H_    0.427792 0.657234 0.759922 0.137205
H84   H     H_    0.387551 0.797589 0.738420 0.140043
O36   O     O_3   0.142392 0.976540 0.788647 -0.685587
H85   H     H_    0.163942 0.924919 0.759882 0.304540
O37   O     O_3   0.994280 0.147085 0.706387 -0.694207
H86   H     H_    0.035412 0.071612 0.689658 0.310141

loop_
_geom_bond_atom_site_label_1
_geom_bond_atom_site_label_2
_geom_bond_distance
_ccdc_geom_bond_type
C113  H71   1.095352 S    
C68   C72   1.410527 A    
C31   C32   1.541459 S    
O22   Cr5   2.042219 S    
C100  H26   1.109408 S    
C31   C35   1.532971 S    
O16   Cr5   2.049116 S    
C48   H10   1.081537 S    
Cr6   O26   1.997312 S    
C75   C90   1.398080 A    
C32   C99   1.527714 S    
C35   O29   1.396091 S    
C77   C88   1.419051 A    
O33   H72   0.990318 S    
C49   C57   1.412578 A    
C80   C81   1.409276 A    
C66   C67   1.411740 A    
C43   C103  1.523208 S    
C101  H36   1.108980 S    
C114  H67   1.109011 S    
C25   C27   1.549832 S    
O4    Cr2   1.914635 S    
C115  H78   1.107856 S    
C23   C24   1.546962 S    
C106  H44   1.111859 S    
O25   Cr6   1.911092 S    
O19   Cr6   1.931322 S    
C118  H82   1.110344 S    
O8    Cr1   1.931162 S    
O28   H32   0.990275 S    
C117  H83   1.110902 S    
C60   C68   1.415915 A    
C36   C39   1.547677 S    
C79   O35   1.381895 S    
O21   Cr4   1.940222 S    
C99   C100  1.527966 S    
O7    C6    1.285616 A    
C53   H13   1.080713 S    
C103  H42   1.110001 S    
C12   C17   1.459859 S    
C65   C94   1.464206 S    
C11   C12   1.537295 S    
C51   C53   1.407312 A    
O15   Cr4   1.930010 S    
C10   C18   1.200933 T    
C13   C117  1.535545 S    
C109  C110  1.531279 S    
O25   C96   1.282326 A    
C67   C68   1.402873 A    
C31   C38   1.533034 S    
C112  H63   1.110747 S    
O36   H85   0.991130 S    
O17   Cr5   1.922939 S    
C15   C16   1.550239 S    
C7    H2    1.109865 S    
C37   C39   1.557452 S    
C64   O30   1.379904 S    
C84   C88   1.411121 A    
C78   C79   1.417138 A    
C75   H17   1.076636 S    
C82   C115  1.527535 S    
C38   C40   1.539626 S    
C112  H62   1.107574 S    
O29   H38   0.990342 S    
C102  H33   1.109295 S    
C34   C42   1.202969 T    
C102  H35   1.110272 S    
O27   H31   0.988332 S    
C99   H29   1.106352 S    
C111  C112  1.533009 S    
C104  H40   1.108727 S    
C98   H23   1.109106 S    
C105  H47   1.110532 S    
C7    C8    1.550761 S    
C32   C40   1.546843 S    
C57   C107  1.523318 S    
C110  H54   1.111324 S    
O18   Cr6   2.027978 S    
C11   C13   1.544335 S    
C92   O18   1.278061 A    
C7    C11   1.553956 S    
C54   H12   1.080858 S    
C61   C62   1.400696 A    
C107  H53   1.110002 S    
C25   H7    1.109886 S    
C66   C74   1.434926 A    
C49   C95   1.482657 S    
C22   C30   1.200855 T    
C102  H34   1.108013 S    
C99   H30   1.110867 S    
C35   C36   1.538581 S    
C100  H27   1.108995 S    
Cr3   O13   1.991102 S    
C85   C86   1.383584 A    
C59   O31   1.380129 S    
C43   C58   1.414809 A    
C80   O33   1.376328 S    
C37   C38   1.553846 S    
C110  H56   1.110290 S    
C47   H11   1.081143 S    
C105  H48   1.111123 S    
O35   H74   0.983337 S    
C87   C89   1.383636 A    
C54   C55   1.402691 A    
Cr5   O26   1.990853 S    
C23   C25   1.555648 S    
O23   C95   1.290673 A    
C19   C23   1.543603 S    
C118  H81   1.108491 S    
C35   C37   1.548389 S    
C8    C16   1.549527 S    
O1    Cr1   2.050139 S    
C5    O11   1.278849 A    
C38   C42   1.462658 S    
C20   O36   1.397558 S    
C108  H49   1.106123 S    
C70   C71   1.405763 A    
C46   C105  1.510965 S    
C101  H37   1.110716 S    
C21   C91   1.417847 S    
Cr1   O13   1.971226 S    
C82   C90   1.412564 A    
C8    H1    1.110027 S    
O15   C91   1.266320 A    
C112  H61   1.108659 S    
C83   C85   1.405205 A    
C78   O34   1.385206 S    
C77   C80   1.429585 A    
O23   Cr5   1.930808 S    
C62   C63   1.383492 A    
C117  H84   1.108404 S    
O31   H60   0.989138 S    
O6    C3    1.271745 A    
C39   C101  1.528579 S    
C7    C14   1.538944 S    
C113  C114  1.526265 S    
C50   C51   1.408931 A    
C24   C29   1.451646 S    
C63   H15   1.081183 S    
O12   Cr3   1.918245 S    
C32   C36   1.552449 S    
C9    C92   1.428555 S    
C13   C15   1.541623 S    
C44   C47   1.407730 A    
C103  H43   1.106180 S    
C97   H24   1.096414 S    
C108  H50   1.110524 S    
C107  C108  1.525899 S    
C40   O28   1.397791 S    
O10   Cr2   1.932703 S    
C37   H9    1.109215 S    
C114  H68   1.106081 S    
C25   C26   1.545726 S    
C24   C27   1.531969 S    
C26   C30   1.458324 S    
O7    Cr1   2.055499 S    
C20   C24   1.530035 S    
C104  H41   1.106451 S    
C33   C41   1.204980 T    
C45   C48   1.405381 A    
O12   C6    1.310110 A    
C12   C15   1.531704 S    
O1    C3    1.265611 A    
C109  H57   1.106049 S    
C116  H76   1.111063 S    
C59   C60   1.409957 A    
C60   C63   1.405829 A    
C71   C73   1.412241 A    
C45   C56   1.411287 A    
C45   C46   1.412460 A    
C107  H52   1.108128 S    
O14   Cr4   2.058775 S    
C86   H19   1.083655 S    
C19   C20   1.529121 S    
H6    C28   1.108569 S    
C36   C41   1.467559 S    
C55   C56   1.416237 A    
C100  H28   1.110141 S    
C55   C57   1.413152 A    
C65   C73   1.400254 A    
C48   C49   1.403121 A    
C66   C113  1.514486 S    
C44   C52   1.414669 A    
C75   C76   1.413761 A    
C89   H18   1.084765 S    
C1    O3    1.268124 A    
C20   C28   1.545798 S    
C101  C102  1.523151 S    
Cr4   O26   1.970824 S    
C87   C88   1.409811 A    
C114  H69   1.109145 S    
C14   C18   1.459103 S    
C91   O16   1.267829 A    
C113  H70   1.077572 S    
C19   C26   1.527321 S    
O37   H86   0.991156 S    
C103  C104  1.527678 S    
C3    C22   1.426465 S    
C111  H65   1.109214 S    
C118  H80   1.109803 S    
O9    Cr2   2.031796 S    
O2    Cr1   1.939657 S    
C15   H4    1.105042 S    
C69   H16   1.076369 S    
O24   Cr6   2.047602 S    
C43   C44   1.420108 A    
O20   Cr4   2.044163 S    
Cr2   O13   1.997393 S    
C53   C54   1.386837 A    
O17   C92   1.283035 A    
O6    Cr3   1.929611 S    
C23   H8    1.109128 S    
C19   O37   1.397228 S    
C86   C87   1.395909 A    
C76   C79   1.426094 A    
O11   Cr3   2.046268 S    
C111  H64   1.110260 S    
C2    O5    1.275965 A    
O3    Cr2   2.052066 S    
C27   C97   1.524768 S    
C64   C65   1.418689 A    
O21   C94   1.258490 A    
O19   C93   1.274782 A    
C67   C69   1.412790 A    
C98   H21   1.106135 S    
C106  H46   1.110411 S    
C5    C58   1.490668 S    
H3    C16   1.106640 S    
C115  H79   1.110276 S    
C27   C28   1.550642 S    
O2    C1    1.280184 A    
C61   C64   1.390194 A    
C108  H51   1.109530 S    
C31   O27   1.395574 S    
C115  C116  1.531217 S    
O20   C96   1.267951 A    
O5    Cr3   2.033460 S    
C97   C98   1.525970 S    
C13   C14   1.535491 S    
C62   H14   1.083103 S    
C52   C56   1.413987 A    
C59   C74   1.413734 A    
C51   C52   1.411222 A    
C21   C29   1.196615 T    
C105  C106  1.518691 S    
O4    C2    1.281817 A    
C4    C90   1.489611 S    
C70   O32   1.381643 S    
C83   C84   1.422154 A    
C76   C84   1.412206 A    
C26   C28   1.552259 S    
C69   C70   1.389961 A    
C14   C16   1.538327 S    
C106  H45   1.111329 S    
C11   H5    1.107484 S    
C109  H58   1.099575 S    
C116  H77   1.110451 S    
C98   H22   1.105695 S    
C73   C111  1.531697 S    
O32   H66   0.990672 S    
C97   H25   1.110469 S    
C71   C72   1.424249 A    
O14   C93   1.268932 A    
C117  C118  1.525874 S    
C61   C72   1.407192 A    
C8    C12   1.536637 S    
C94   O22   1.284470 A    
C104  H39   1.111437 S    
C50   C58   1.418612 A    
C39   C40   1.541474 S    
C81   C89   1.400017 A    
C1    C34   1.430628 S    
C46   C47   1.401012 A    
C2    C10   1.426515 S    
O30   H59   0.991459 S    
C9    C17   1.201941 T    
O34   H73   0.988810 S    
C77   C78   1.417337 A    
C116  H75   1.107447 S    
C6    C74   1.496575 S    
O10   C5    1.296721 A    
C33   C93   1.433345 S    
C110  H55   1.109155 S    
C85   H20   1.081068 S    
C4    O9    1.270067 A    
C95   O24   1.282072 A    
C50   C109  1.529761 S    
C82   C83   1.409781 A    
O8    C4    1.293872 A    
C81   C96   1.480068 S    
