data_mof_unit_41867.cif
_audit_creation_date              2013-03-05T15:47:05-0500
_audit_creation_method            fapswitch 2.2
_symmetry_space_group_name_H-M    P1
_symmetry_Int_Tables_number       1
_space_group_crystal_system       triclinic
_cell_length_a                    23.502733
_cell_length_b                    11.053257
_cell_length_c                    9.907529
_cell_angle_alpha                 111.81262
_cell_angle_beta                  97.906192
_cell_angle_gamma                 92.125954
_cell_volume                      2355.89500533

loop_
_atom_site_label
_atom_site_type_symbol
_atom_site_description
_atom_site_fract_x
_atom_site_fract_y
_atom_site_fract_z
_atom_type_partial_charge
O1    O     O_R   0.505330 0.332340 0.577400 -0.555621
O2    O     O_R   0.494670 0.667660 0.422600 -0.558745
O3    O     O_R   0.488470 0.295500 0.332650 -0.523063
O4    O     O_R   0.511530 0.704500 0.667350 -0.524693
C1    C     C_R   0.495527 0.253636 0.439283 0.778828
C2    C     C_R   0.504491 0.746362 0.560716 0.776251
O5    O     O_R   0.426310 0.518390 0.622390 -0.534450
O6    O     O_R   0.573690 0.481610 0.377610 -0.531849
O7    O     O_R   0.409450 0.481550 0.377650 -0.582958
O8    O     O_R   0.590550 0.518450 0.622350 -0.582689
C3    C     C_R   0.391058 0.500206 0.501287 0.839191
C4    C     C_R   0.608945 0.500388 0.498842 0.840661
Cu1   Cu    Cu3+1 0.509980 0.521810 0.644910 1.078589
Cu2   Cu    Cu3+1 0.490020 0.478190 0.355090 1.078865
C5    C     C_R   0.884712 0.621909 0.534871 0.641533
C6    C     C_R   0.116558 0.385462 0.485532 0.647298
N1    N     N_R   0.852102 0.506271 0.500704 -0.459859
N2    N     N_R   0.148828 0.500341 0.514042 -0.461253
C7    C     C_R   0.876444 0.391405 0.476850 0.639707
C8    C     C_R   0.125077 0.616772 0.549004 0.637898
C9    C     C_R   0.936275 0.388881 0.483868 -0.065254
C10   C     C_R   0.065784 0.620704 0.552037 -0.062215
C11   C     C_R   0.971007 0.506370 0.518459 -0.036730
C12   C     C_R   0.031262 0.503742 0.521323 -0.034265
C13   C     C_R   0.945481 0.625993 0.548815 -0.129579
C14   C     C_R   0.056842 0.384246 0.491920 -0.127512
C15   C     C_R   0.961816 0.271574 0.458694 -0.141674
C16   C     C_R   0.040682 0.739241 0.585833 -0.144523
C17   C     C_R   0.021468 0.268139 0.465262 0.336858
C18   C     C_R   0.981477 0.743868 0.587959 0.336199
O9    O     O_2   0.857879 0.730986 0.551069 -0.428968
O10   O     O_2   0.142224 0.273146 0.446545 -0.430203
O11   O     O_2   0.842647 0.279956 0.445902 -0.475901
O12   O     O_2   0.158826 0.728127 0.579189 -0.477018
H1    H     H_    0.935531 0.181565 0.436580 0.235228
H2    H     H_    0.067279 0.830137 0.614128 0.235805
C19   C     C_R   0.230748 0.496874 0.379365 0.379318
C20   C     C_R   0.752509 0.468608 0.360389 0.373440
C21   C     C_R   0.290516 0.498138 0.380001 -0.239635
C22   C     C_R   0.692862 0.466683 0.363094 -0.208433
H3    H     H_    0.307373 0.496343 0.282981 0.207849
H4    H     H_    0.663031 0.438229 0.260558 0.221777
C23   C     C_R   0.328546 0.500654 0.503758 -0.106745
C24   C     C_R   0.671491 0.501868 0.496840 -0.108066
C25   C     C_R   0.306402 0.502920 0.628928 -0.136238
C26   C     C_R   0.710301 0.539285 0.629331 -0.152373
H5    H     H_    0.334683 0.505310 0.726021 0.212688
H6    H     H_    0.695099 0.567162 0.734114 0.196807
C27   C     C_R   0.247259 0.501480 0.629923 -0.123294
C28   C     C_R   0.769370 0.541649 0.628406 -0.116645
H7    H     H_    0.230713 0.503405 0.727403 0.189456
H8    H     H_    0.798814 0.570100 0.731588 0.185432
C29   C     C_R   0.209263 0.498442 0.506567 0.217770
C30   C     C_R   0.790872 0.506521 0.495565 0.217097
H9    H     H_    0.479306 0.861423 0.377843 0.220655
H10   H     H_    0.520614 0.138612 0.622238 0.223400
C31   C     C_2   0.492190 0.112335 0.402009 0.158282
C32   C     C_2   0.507872 0.887660 0.597997 0.158845
C33   C     C_2   0.504552 0.069011 0.511458 -0.171348
C34   C     C_2   0.495445 0.931006 0.488589 -0.175084
N3    N     N_2   0.475010 0.445410 0.137370 -0.285981
N4    N     N_2   0.524990 0.554590 0.862630 -0.283279
C35   C     C_2   0.505542 0.510681 0.080856 0.390542
C36   C     C_2   0.494689 0.488806 0.919035 0.388847
H11   H     H_    0.557121 0.624760 0.931063 0.246252
H12   H     H_    0.442542 0.376048 0.069174 0.246276
N5    N     N_R   0.044958 0.146633 0.449631 0.182195
O13   O     O_R   0.022564 0.039662 0.340348 -0.261161
O14   O     O_R   0.079441 0.138167 0.559718 -0.243695
N6    N     N_R   0.959645 0.869840 0.636298 0.173895
O15   O     O_R   0.973490 0.954155 0.580367 -0.261342
O16   O     O_R   0.937080 0.909909 0.756433 -0.251654
N7    N     N_R   0.193093 0.494412 0.250182 0.151207
O17   O     O_R   0.139001 0.449844 0.222994 -0.303656
O18   O     O_R   0.213681 0.529486 0.153371 -0.310704
N8    N     N_R   0.772987 0.431936 0.221112 0.150040
O19   O     O_R   0.824957 0.471078 0.213826 -0.306428
O20   O     O_R   0.738356 0.365273 0.098787 -0.297410
N9    N     N_R   0.524749 0.975735 0.749315 0.142020
O21   O     O_R   0.567788 0.953021 0.831460 -0.276166
O22   O     O_R   0.491621 0.065050 0.811013 -0.285003
N10   N     N_R   0.475462 0.024230 0.250651 0.139882
O23   O     O_R   0.432527 0.046911 0.168188 -0.281148
O24   O     O_R   0.508626 0.934872 0.189280 -0.287141
Cl1   Cl    Cl    0.438581 0.369186 0.804750 -0.576762
Cl2   Cl    Cl    0.562115 0.629169 0.194893 -0.558468

loop_
_geom_bond_atom_site_label_1
_geom_bond_atom_site_label_2
_geom_bond_distance
_ccdc_geom_bond_type
O5    Cu1   1.945699 S    
C15   C17   1.397110 A    
N7    O17   1.300844 A    
C2    C32   1.461496 S    
C21   H3    1.082822 S    
C20   N8    1.442765 S    
O5    C3    1.304368 A    
C28   C30   1.398610 A    
O1    C1    1.302353 A    
C7    C9    1.400165 A    
C12   C14   1.418468 A    
C31   C33   1.341321 D    
C32   C34   1.341298 D    
O4    Cu1   1.946045 S    
N3    C35   1.311965 D    
N4    C36   1.311952 D    
N2    C29   1.432961 S    
C17   N5    1.434047 S    
N3    H12   1.027809 S    
Cu1   N4    2.027074 S    
C27   H7    1.083080 S    
C28   H8    1.083116 S    
C11   C12   1.414124 A    
C3    C23   1.472939 S    
N6    O15   1.300927 A    
C8    O12   1.349914 S    
C22   H4    1.082937 S    
C9    C15   1.400842 A    
C33   C34   1.459313 S    
C10   C16   1.400903 A    
H9    C34   1.084451 S    
N7    O18   1.301733 A    
O2    C2    1.302343 A    
C18   N6    1.434051 S    
C24   C26   1.401888 A    
C25   H5    1.082480 S    
C6    C14   1.413364 A    
C26   H6    1.082976 S    
N5    O13   1.301159 A    
N8    O19   1.300975 A    
O4    C2    1.295573 A    
C7    O11   1.349876 S    
N9    O22   1.301523 A    
C21   C23   1.405121 A    
C15   H1    1.083796 S    
Cu2   N3    2.027074 S    
N9    O21   1.301072 A    
N5    O14   1.301337 A    
O7    Cu2   1.937161 S    
O7    C3    1.301700 A    
C20   C30   1.415943 A    
C25   C27   1.390958 A    
O6    C4    1.304028 A    
C23   C25   1.401731 A    
O3    Cu2   1.946045 S    
O8    C4    1.301732 A    
C32   N9    1.440753 S    
C8    C10   1.399942 A    
N10   O24   1.301534 A    
C9    C11   1.408511 A    
C35   Cl2   1.765658 S    
C10   C12   1.408604 A    
O1    Cu1   1.940923 S    
C36   Cl1   1.765368 S    
C13   C18   1.419905 A    
C5    N1    1.367533 A    
C19   N7    1.443179 S    
O6    Cu2   1.945699 S    
N4    H11   1.027829 S    
N8    O20   1.301809 A    
O3    C1    1.295589 A    
O8    Cu1   1.937166 S    
C5    O9    1.348166 S    
C6    O10   1.348174 S    
C26   C28   1.388904 A    
H10   C33   1.084423 S    
C1    C31   1.461562 S    
C16   C18   1.397071 A    
C19   C29   1.415287 A    
C19   C21   1.403390 A    
C20   C22   1.405320 A    
C27   C29   1.399747 A    
N1    C7    1.365014 A    
N2    C8    1.364925 A    
C11   C13   1.418308 A    
O2    Cu2   1.940923 S    
C5    C13   1.413249 A    
C35   C36   1.512866 S    
C22   C24   1.405001 A    
C16   H2    1.083806 S    
C14   C17   1.420057 A    
C6    N2    1.367645 A    
N10   O23   1.301070 A    
C31   N10   1.440781 S    
C4    C24   1.472432 S    
N6    O16   1.301307 A    
Cu1   Cu2   2.698388 S    
N1    C30   1.433087 S    
