data_mof_unit_68460.cif
_audit_creation_date              2012-12-11T16:06:27-0500
_audit_creation_method            fapswitch 2.2
_symmetry_space_group_name_H-M    P1
_symmetry_Int_Tables_number       1
_space_group_crystal_system       triclinic
_cell_length_a                    7.199697
_cell_length_b                    14.447328
_cell_length_c                    15.794133
_cell_angle_alpha                 89.984083
_cell_angle_beta                  89.999417
_cell_angle_gamma                 89.999921
_cell_volume                      1642.84854054

loop_
_atom_site_label
_atom_site_type_symbol
_atom_type_description
_atom_site_fract_x
_atom_site_fract_y
_atom_site_fract_z
_atom_type_partial_charge
O1    O     O_R   0.388780 0.834790 0.412340 -0.537273
O2    O     O_R   0.111220 0.165210 0.912340 -0.541861
O3    O     O_R   0.888780 0.665210 0.587660 -0.537271
O4    O     O_R   0.611220 0.334790 0.087660 -0.541861
O5    O     O_R   0.059040 0.845930 0.587040 -0.546661
O6    O     O_R   0.440960 0.154070 0.087040 -0.535098
O7    O     O_R   0.559040 0.654070 0.412960 -0.546661
O8    O     O_R   0.940960 0.345930 0.912960 -0.535045
C1    C     C_R   0.227588 0.867648 0.615519 0.689263
C2    C     C_R   0.272285 0.132702 0.115891 0.688665
C3    C     C_R   0.727589 0.632351 0.384481 0.689261
C4    C     C_R   0.772286 0.367296 0.884107 0.688651
O9    O     O_R   0.059070 0.845930 0.412970 -0.544720
O10   O     O_R   0.440930 0.154070 0.912970 -0.536998
O11   O     O_R   0.559070 0.654070 0.587030 -0.544719
O12   O     O_R   0.940930 0.345930 0.087030 -0.536989
O13   O     O_R   0.888760 0.665210 0.412340 -0.538367
O14   O     O_R   0.611240 0.334790 0.912340 -0.545474
O15   O     O_R   0.388760 0.834790 0.587660 -0.538364
O16   O     O_R   0.111240 0.165210 0.087660 -0.545468
C5    C     C_R   0.227831 0.868660 0.385374 0.686242
C6    C     C_R   0.271842 0.131374 0.885256 0.682386
C7    C     C_R   0.727829 0.631341 0.614627 0.686241
C8    C     C_R   0.771842 0.368626 0.114744 0.682370
O17   O     O_3   0.222280 0.690700 0.500000 -0.375968
O18   O     O_3   0.277720 0.309300 0.000000 -0.378662
O19   O     O_3   0.722280 0.809300 0.500000 -0.375967
O20   O     O_3   0.777720 0.190700 0.000000 -0.378675
V1    V     V_3+5 0.947430 0.761000 0.500000 1.371108
V2    V     V_3+5 0.552570 0.239000 0.000000 1.370023
V3    V     V_3+5 0.447430 0.739000 0.500000 1.371111
V4    V     V_3+5 0.052570 0.261000 0.000000 1.370096
C9    C     C_3   0.897965 0.490092 0.670287 -0.321772
C10   C     C_3   0.554654 0.467004 0.204516 -0.317940
C11   C     C_3   0.398055 0.009862 0.329678 -0.321759
C12   C     C_3   0.054653 0.033004 0.795479 -0.317934
H1    H     H_    0.876737 0.455261 0.608322 0.168902
H2    H     H_    0.489607 0.494788 0.145809 0.148807
H3    H     H_    0.376904 0.044710 0.391640 0.168891
H4    H     H_    0.989592 0.005223 0.854185 0.148815
H5    H     H_    0.033854 0.526402 0.666264 0.142864
H6    H     H_    0.472695 0.405166 0.223756 0.133182
H7    H     H_    0.533904 0.973515 0.333681 0.142863
H8    H     H_    0.972707 0.094845 0.776237 0.133176
C13   C     C_3   0.906940 0.416373 0.741784 -0.359766
C14   C     C_3   0.542242 0.540980 0.274844 -0.345214
C15   C     C_3   0.407062 0.083567 0.258171 -0.359741
C16   C     C_3   0.042239 0.959027 0.725152 -0.345221
H9    H     H_    0.049866 0.411680 0.767544 0.132177
H10   H     H_    0.439896 0.519677 0.323412 0.127073
H11   H     H_    0.549959 0.088190 0.232374 0.132147
H12   H     H_    0.939905 0.980333 0.676581 0.127075
H13   H     H_    0.878060 0.346968 0.714128 0.135249
H14   H     H_    0.483655 0.605622 0.247178 0.144610
H15   H     H_    0.378344 0.152985 0.285824 0.135254
H16   H     H_    0.983637 0.894388 0.752816 0.144607
H17   H     H_    0.520016 0.470659 0.634641 0.153607
H18   H     H_    0.813828 0.559431 0.104757 0.166232
H19   H     H_    0.020148 0.029381 0.365414 0.153611
H20   H     H_    0.313792 0.940567 0.895244 0.166299
H21   H     H_    0.546141 0.362237 0.739865 0.154136
H22   H     H_    0.786972 0.665955 0.212576 0.149007
H23   H     H_    0.046390 0.137821 0.260207 0.154153
H24   H     H_    0.286939 0.834044 0.787426 0.149001
C17   C     C_3   0.554200 0.505647 0.695376 -0.335553
C18   C     C_3   0.868907 0.529095 0.164472 -0.319488
C19   C     C_3   0.054260 0.994401 0.304667 -0.335541
C20   C     C_3   0.368888 0.970901 0.835531 -0.319512
C21   C     C_3   0.777319 0.611092 0.771507 -0.384681
C22   C     C_3   0.841878 0.397222 0.269043 -0.385571
C23   C     C_3   0.277170 0.888901 0.228485 -0.384638
C24   C     C_3   0.341898 0.102773 0.730959 -0.385582
C25   C     C_3   0.738749 0.560999 0.686180 0.071330
C26   C     C_3   0.760082 0.439034 0.186399 0.061423
C27   C     C_3   0.238751 0.939001 0.313821 0.071318
C28   C     C_3   0.260083 0.060966 0.813601 0.061428
H25   H     H_    0.664648 0.662231 0.783616 0.101067
H26   H     H_    0.987501 0.374418 0.257607 0.112994
H27   H     H_    0.164443 0.837784 0.216406 0.101080
H28   H     H_    0.487522 0.125571 0.742398 0.112999
H29   H     H_    0.906505 0.652670 0.767159 0.141112
H30   H     H_    0.764072 0.333782 0.286898 0.134655
H31   H     H_    0.406325 0.847294 0.232799 0.141075
H32   H     H_    0.264108 0.166217 0.713102 0.134649
C29   C     C_3   0.761551 0.437458 0.812134 0.035662
C30   C     C_3   0.737843 0.562108 0.312757 0.028928
C31   C     C_3   0.261554 0.062538 0.187864 0.035634
C32   C     C_3   0.237842 0.937892 0.687243 0.028929
C33   C     C_3   0.568478 0.432553 0.766868 -0.398178
C34   C     C_3   0.853082 0.601688 0.237177 -0.413978
C35   C     C_3   0.068567 0.067509 0.233187 -0.398272
C36   C     C_3   0.353063 0.898308 0.762826 -0.413973
C37   C     C_3   0.782255 0.539261 0.845641 0.341143
C38   C     C_3   0.839956 0.470838 0.341272 0.336194
C39   C     C_3   0.282070 0.960733 0.154352 0.341143
C40   C     C_3   0.339974 0.029157 0.658730 0.336203
H33   H     H_    0.652351 0.552247 0.881890 0.072855
H34   H     H_    0.988239 0.491227 0.349019 0.089159
H35   H     H_    0.152098 0.947788 0.118152 0.072871
H36   H     H_    0.488254 0.008762 0.650986 0.089161
H37   H     H_    0.437673 0.553729 0.709988 0.142007
H38   H     H_    0.017971 0.512568 0.153543 0.151392
H39   H     H_    0.937675 0.946353 0.290063 0.141996
H40   H     H_    0.517952 0.987421 0.846464 0.151367
H41   H     H_    0.454082 0.444751 0.812832 0.136553
H42   H     H_    0.995102 0.621433 0.258364 0.143023
H43   H     H_    0.954101 0.055374 0.187258 0.136613
H44   H     H_    0.495082 0.878557 0.741642 0.143022
O21   O     O_3   0.923789 0.553930 0.907304 -0.563385
C41   C     C_3   0.108106 0.552134 0.876236 0.118676
H45   H     H_    0.121540 0.557215 0.806659 0.100553
H46   H     H_    0.175038 0.486667 0.896718 0.145430
C42   C     C_3   0.215350 0.632512 0.914682 -0.749283
H47   H     H_    0.359991 0.632636 0.890485 0.167292
H48   H     H_    0.148388 0.699068 0.897108 0.220545
H49   H     H_    0.218119 0.626105 0.984778 0.226722
O22   O     O_3   0.792814 0.434482 0.422399 -0.567168
C43   C     C_3   0.605415 0.407004 0.431248 0.090567
H50   H     H_    0.540551 0.383103 0.371544 0.117338
H51   H     H_    0.524135 0.465570 0.457755 0.128740
C44   C     C_3   0.594178 0.326392 0.493017 -0.740363
H52   H     H_    0.446697 0.311372 0.507809 0.185727
H53   H     H_    0.657383 0.263853 0.464183 0.218125
H54   H     H_    0.667866 0.342939 0.552784 0.220616
O23   O     O_3   0.423474 0.946017 0.092649 -0.563418
C45   C     C_3   0.607847 0.947831 0.123638 0.118552
H55   H     H_    0.621416 0.942616 0.193194 0.100575
H56   H     H_    0.674669 0.013357 0.103237 0.145461
C46   C     C_3   0.715115 0.867570 0.085005 -0.749294
H57   H     H_    0.859795 0.867461 0.109128 0.167339
H58   H     H_    0.648293 0.800953 0.102484 0.220622
H59   H     H_    0.717696 0.874117 0.014937 0.226705
O24   O     O_3   0.292849 0.065514 0.577601 -0.567164
C47   C     C_3   0.105457 0.093001 0.568749 0.090567
H60   H     H_    0.040586 0.116903 0.628452 0.117335
H61   H     H_    0.024172 0.034440 0.542238 0.128733
C48   C     C_3   0.094247 0.173615 0.506982 -0.740340
H62   H     H_    0.946768 0.188635 0.492177 0.185729
H63   H     H_    0.157432 0.236151 0.535831 0.218110
H64   H     H_    0.167979 0.157072 0.447219 0.220629

loop_
_geom_bond_atom_site_label_1
_geom_bond_atom_site_label_2
_ccdc_geom_bond_type
O17   V3    S    
C32   C40   S    
O1    C5    A    
C45   H55   S    
C31   C35   S    
O19   V1    S    
C9    C13   S    
C21   H25   S    
C18   H38   S    
O3    C7    A    
C10   H6    S    
C17   H37   S    
C24   C28   S    
C11   C15   S    
C47   C48   S    
C23   H27   S    
C19   H39   S    
C18   C34   S    
O7    C3    A    
C48   H63   S    
C11   C27   S    
O5    C1    A    
C4    C29   S    
O9    V1    S    
C22   H26   S    
C22   C38   S    
C1    O15   A    
C42   H47   S    
C21   C37   S    
C1    C32   S    
O4    C8    A    
C38   O22   S    
C39   H35   S    
C23   C39   S    
C38   H34   S    
C3    C30   S    
C18   C26   S    
H22   C34   S    
O1    V3    S    
O13   V1    S    
O2    V4    S    
O3    V1    S    
C43   H50   S    
C44   H54   S    
C30   C38   S    
H19   C19   S    
C41   H45   S    
C29   C37   S    
H18   C18   S    
C32   C36   S    
C2    O16   A    
C31   C39   S    
O2    C6    A    
C16   C32   S    
C21   C25   S    
C10   C14   S    
C6    C28   S    
C12   C28   S    
C23   H31   S    
C46   H59   S    
O11   C7    A    
O15   V3    S    
O12   C8    A    
O10   C6    A    
H23   C35   S    
C7    C25   S    
H21   C33   S    
O5    V1    S    
C48   H64   S    
C2    C31   S    
O7    V3    S    
O8    V4    S    
C35   H43   S    
C12   H4    S    
C34   H42   S    
C30   C34   S    
C17   C25   S    
C29   C33   S    
O18   V4    S    
C47   H61   S    
C45   C46   S    
O10   V2    S    
C9    H1    S    
C43   C44   S    
C15   C31   S    
C11   H3    S    
C22   C26   S    
C39   O23   S    
C13   H9    S    
O8    C4    A    
C14   H14   S    
C19   C35   S    
O9    C5    A    
C41   C42   S    
C44   H52   S    
C24   H32   S    
C10   C26   S    
O14   V2    S    
C43   H51   S    
C9    C25   S    
O6    V2    S    
O24   C47   S    
C12   H8    S    
C19   C27   S    
H24   C36   S    
C4    O14   A    
C37   H33   S    
C11   H7    S    
C15   H15   S    
C46   H57   S    
O16   V4    S    
C16   H16   S    
C5    C27   S    
C3    O13   A    
C45   H56   S    
C10   H2    S    
C20   H40   S    
H17   C17   S    
O6    C2    A    
C15   H11   S    
O11   V3    S    
C40   O24   S    
C17   C33   S    
C20   C28   S    
C48   H62   S    
C14   H10   S    
C47   H60   S    
C13   C29   S    
C9    H5    S    
C42   H49   S    
O20   V2    S    
C24   H28   S    
O22   C43   S    
C23   C27   S    
C8    C26   S    
O23   C45   S    
O12   V4    S    
C40   H36   S    
C46   H58   S    
C20   C36   S    
C12   C16   S    
C22   H30   S    
C41   H46   S    
C44   H53   S    
C21   H29   S    
C13   H13   S    
C24   C40   S    
C16   H12   S    
H20   C20   S    
C33   H41   S    
C42   H48   S    
O21   C41   S    
C36   H44   S    
O4    V2    S    
C37   O21   S    
C14   C30   S    
