data_mof_unit_15517.cif
_audit_creation_date              2012-12-11T16:50:50-0500
_audit_creation_method            fapswitch 2.2
_symmetry_space_group_name_H-M    P1
_symmetry_Int_Tables_number       1
_space_group_crystal_system       triclinic
_cell_length_a                    6.917894
_cell_length_b                    28.826138
_cell_length_c                    32.144489
_cell_angle_alpha                 100.842188
_cell_angle_beta                  89.881712
_cell_angle_gamma                 90.435691
_cell_volume                      6295.52028762

loop_
_atom_site_label
_atom_site_type_symbol
_atom_type_description
_atom_site_fract_x
_atom_site_fract_y
_atom_site_fract_z
_atom_type_partial_charge
O1    O     O_R   0.494350 0.453170 0.452520 -0.545303
O2    O     O_R   0.820980 0.455850 0.538220 -0.543228
O3    O     O_R   0.994300 0.546830 0.547480 -0.536525
C1    C     C_R   0.651719 0.445783 0.551731 0.712447
O4    O     O_R   0.823860 0.447590 0.452270 -0.544166
O5    O     O_R   0.997200 0.538510 0.460920 -0.515286
C2    C     C_R   0.654582 0.434863 0.436456 0.709177
O6    O     O_R   0.491440 0.461490 0.539080 -0.544147
O7    O     O_3   0.661790 0.529840 0.502940 -0.339832
V1    V     V_3+5 0.935470 0.494460 0.499450 1.460299
O8    O     O_R   0.327090 0.544150 0.461780 -0.528611
C3    C     C_R   0.158204 0.555183 0.448946 0.762683
O9    O     O_R   0.324210 0.552410 0.547730 -0.541728
C4    C     C_R   0.155498 0.565348 0.563375 0.703665
V2    V     V_3+5 0.435840 0.505540 0.500550 1.471148
O10   O     O_3   0.159650 0.470160 0.497060 -0.379436
C5    C     C_R   0.210587 0.868269 0.891572 -0.242422
H1    H     H_    0.326080 0.874158 0.914725 0.154608
C6    C     C_R   0.228985 0.831765 0.855787 0.403792
C7    C     C_R   0.078077 0.823321 0.825837 0.000117
C8    C     C_R   0.912186 0.851552 0.832312 -0.224851
H2    H     H_    0.796764 0.845840 0.809130 0.170560
C9    C     C_R   0.894991 0.888175 0.867552 0.261820
C10   C     C_R   0.044816 0.896760 0.898038 -0.147272
C11   C     C_R   0.938922 0.753093 0.776399 -0.158433
H3    H     H_    0.811315 0.754929 0.796219 0.140829
C12   C     C_R   0.950222 0.717654 0.740138 -0.144182
H4    H     H_    0.831270 0.692796 0.733271 0.114948
C13   C     C_R   0.114032 0.713883 0.713615 0.083783
C14   C     C_R   0.266367 0.746588 0.724601 -0.168660
H5    H     H_    0.393102 0.745557 0.704653 0.116844
C15   C     C_R   0.255380 0.781843 0.761027 -0.069140
H6    H     H_    0.373665 0.806887 0.768213 0.144810
C16   C     C_R   0.091782 0.785406 0.787403 0.130302
C17   C     C_R   0.302947 0.654748 0.661216 -0.126155
H7    H     H_    0.434023 0.664757 0.679101 0.101480
C18   C     C_R   0.313167 0.619263 0.624928 -0.145623
H8    H     H_    0.451941 0.603384 0.615751 0.118948
C19   C     C_R   0.145977 0.603875 0.601330 -0.052309
C20   C     C_R   0.968709 0.625278 0.614730 -0.136183
H9    H     H_    0.837149 0.614623 0.597199 0.132339
C21   C     C_R   0.958769 0.661045 0.650756 -0.132844
H10   H     H_    0.820172 0.677203 0.659502 0.104661
C22   C     C_R   0.125501 0.676166 0.674719 0.098025
C23   C     C_R   0.154368 0.658280 0.283304 0.574489
N1    N     N_R   0.136540 0.677658 0.325585 -0.551705
C24   C     C_R   0.109404 0.725401 0.338447 0.588480
C25   C     C_R   0.095682 0.755266 0.308525 -0.036333
C26   C     C_R   0.113877 0.735795 0.265142 -0.016847
C27   C     C_R   0.144909 0.686975 0.252329 -0.029613
C28   C     C_R   0.063932 0.804053 0.320955 -0.133945
C29   C     C_R   0.049558 0.833003 0.290739 -0.138430
C30   C     C_R   0.067619 0.813966 0.247317 -0.029860
C31   C     C_R   0.100638 0.765205 0.234498 -0.015289
C32   C     C_R   0.120241 0.745786 0.191106 -0.030665
C33   C     C_R   0.152267 0.697020 0.178692 -0.138782
C34   C     C_R   0.163973 0.667977 0.208900 -0.138545
C35   C     C_R   0.054091 0.842487 0.216302 0.573061
N2    N     N_R   0.074099 0.823135 0.174147 -0.561370
C36   C     C_R   0.106997 0.775724 0.161217 0.574724
O11   O     O_2   0.178332 0.611283 0.271108 -0.522043
O12   O     O_2   0.097024 0.744101 0.380112 -0.507033
H11   H     H_    0.049273 0.820042 0.354092 0.175930
H12   H     H_    0.024465 0.870369 0.301551 0.172817
O13   O     O_2   0.022656 0.889234 0.228231 -0.519044
O14   O     O_2   0.125830 0.757529 0.119579 -0.516762
H13   H     H_    0.167853 0.681079 0.145565 0.173006
H14   H     H_    0.188065 0.630572 0.198073 0.172556
C37   C     C_R   0.230764 0.865830 0.123234 -0.090266
H15   H     H_    0.369745 0.852758 0.131091 0.114944
C38   C     C_R   0.220750 0.895672 0.093591 -0.195379
H16   H     H_    0.353466 0.904864 0.079059 0.130343
C39   C     C_R   0.041823 0.913309 0.082844 -0.054308
C40   C     C_R   0.873272 0.900177 0.102582 -0.194788
H17   H     H_    0.733268 0.913126 0.095255 0.126658
C41   C     C_R   0.883881 0.870586 0.132491 -0.085978
H18   H     H_    0.752921 0.861143 0.147526 0.116416
C42   C     C_R   0.062666 0.853222 0.143013 0.385191
C43   C     C_R   0.984355 0.645599 0.384089 -0.110916
H19   H     H_    0.858658 0.667087 0.381610 0.162134
C44   C     C_R   0.987453 0.616803 0.414735 0.219483
C45   C     C_R   0.149804 0.587885 0.418037 -0.116232
C46   C     C_R   0.307784 0.590138 0.390714 -0.201086
H20   H     H_    0.434240 0.568603 0.392237 0.167124
C47   C     C_R   0.304281 0.619614 0.360688 -0.068503
H21   H     H_    0.428346 0.620771 0.340303 0.143770
C48   C     C_R   0.141911 0.647394 0.356867 0.314954
C49   C     C_R   0.730809 0.206667 0.825100 0.580817
N3    N     N_R   0.577542 0.175933 0.824827 -0.554940
C50   C     C_R   0.432827 0.173834 0.795233 0.586215
C51   C     C_R   0.437483 0.203513 0.765037 -0.033162
C52   C     C_R   0.594508 0.234824 0.764876 -0.019416
C53   C     C_R   0.743274 0.236272 0.794918 -0.025678
C54   C     C_R   0.289414 0.202460 0.734935 -0.143526
C55   C     C_R   0.297768 0.231909 0.705015 -0.141348
C56   C     C_R   0.454161 0.263250 0.704496 -0.032645
C57   C     C_R   0.602642 0.264815 0.734637 -0.020023
C58   C     C_R   0.759200 0.296315 0.734628 -0.036593
C59   C     C_R   0.907968 0.297121 0.764514 -0.145624
C60   C     C_R   0.900160 0.267461 0.794263 -0.143957
C61   C     C_R   0.465855 0.293169 0.674574 0.580482
N4    N     N_R   0.616556 0.324716 0.675603 -0.567462
C62   C     C_R   0.762287 0.326506 0.704862 0.589376
O15   O     O_2   0.869781 0.209182 0.854847 -0.530535
O16   O     O_2   0.285688 0.142709 0.794568 -0.520762
H22   H     H_    0.166194 0.178954 0.734436 0.172336
H23   H     H_    0.180703 0.230178 0.682439 0.170038
O17   O     O_2   0.327621 0.290702 0.644672 -0.514093
O18   O     O_2   0.908985 0.357741 0.705505 -0.501957
H24   H     H_    0.031053 0.320674 0.765039 0.169828
H25   H     H_    0.017550 0.269096 0.816749 0.168968
C63   C     C_R   0.476268 0.389719 0.643214 0.415565
C64   C     C_R   0.484455 0.417460 0.611744 -0.192327
H26   H     H_    0.370722 0.442810 0.610493 0.148178
C65   C     C_R   0.640880 0.414391 0.583402 -0.135004
C66   C     C_R   0.788580 0.382024 0.586326 -0.195898
H27   H     H_    0.910835 0.378815 0.564894 0.147216
C67   C     C_R   0.778443 0.352765 0.616404 -0.091550
H28   H     H_    0.892037 0.327339 0.617365 0.176155
C68   C     C_R   0.623497 0.356011 0.645164 0.251748
C69   C     C_R   0.404846 0.145568 0.882122 -0.083073
H29   H     H_    0.285030 0.168791 0.879463 0.161914
C70   C     C_R   0.394683 0.115763 0.911821 -0.206870
H30   H     H_    0.266271 0.116492 0.931260 0.136166
C71   C     C_R   0.549570 0.085915 0.916766 -0.061314
C72   C     C_R   0.714030 0.086277 0.890990 -0.172728
H31   H     H_    0.835129 0.063444 0.893733 0.148431
C73   C     C_R   0.722434 0.115390 0.860700 -0.080817
H32   H     H_    0.849077 0.114301 0.840691 0.161375
C74   C     C_R   0.568302 0.145532 0.856018 0.352357
C75   C     C_R   0.728219 0.118622 0.119766 -0.153266
H33   H     H_    0.860695 0.102413 0.106393 0.119948
C76   C     C_R   0.740271 0.154335 0.155817 -0.136437
H34   H     H_    0.881211 0.164244 0.169344 0.101378
C77   C     C_R   0.572517 0.176287 0.174653 0.094874
C78   C     C_R   0.392237 0.161580 0.156363 -0.135383
H35   H     H_    0.260292 0.178147 0.169660 0.100371
C79   C     C_R   0.380092 0.125845 0.120255 -0.155165
H36   H     H_    0.238888 0.115522 0.107071 0.118115
C80   C     C_R   0.547987 0.103832 0.101466 -0.051579
C81   C     C_R   0.448791 0.217013 0.245965 -0.149152
H37   H     H_    0.334095 0.190943 0.244133 0.117149
C82   C     C_R   0.460015 0.252961 0.281873 -0.150288
H38   H     H_    0.353445 0.253942 0.306754 0.134398
C83   C     C_R   0.606801 0.287495 0.285647 0.066067
C84   C     C_R   0.745653 0.284424 0.253300 -0.137042
H39   H     H_    0.860608 0.310489 0.255441 0.131911
C85   C     C_R   0.735104 0.248339 0.217461 -0.150696
H40   H     H_    0.842034 0.247631 0.192712 0.113067
C86   C     C_R   0.585632 0.214335 0.213152 0.081946
C87   C     C_R   0.790794 0.335134 0.345958 -0.147216
H41   H     H_    0.917178 0.314138 0.335559 0.158281
C88   C     C_R   0.804213 0.370202 0.382472 -0.142866
H42   H     H_    0.941370 0.375812 0.398902 0.141321
C89   C     C_R   0.642055 0.397155 0.397861 -0.138448
C90   C     C_R   0.467025 0.388630 0.375407 -0.149722
H43   H     H_    0.340587 0.409508 0.386088 0.139307
C91   C     C_R   0.452924 0.354680 0.338056 0.364014
C92   C     C_R   0.616052 0.326488 0.323398 -0.018344
O19   O     O_R   0.699170 0.038480 0.960880 -0.533077
O20   O     O_R   0.366800 0.052460 0.047690 -0.546201
O21   O     O_R   0.193520 0.961530 0.039110 -0.543067
C93   C     C_R   0.536062 0.065367 0.063401 0.677258
O22   O     O_R   0.369630 0.044100 0.961740 -0.540741
O23   O     O_R   0.196370 0.953120 0.952550 -0.530703
C94   C     C_R   0.538857 0.054167 0.948189 0.752106
O24   O     O_R   0.696320 0.046890 0.047450 -0.544045
O25   O     O_3   0.528890 0.970170 0.997080 -0.358756
V3    V     V_3+5 0.255190 0.005530 0.000540 1.437193
O26   O     O_R   0.866460 0.947530 0.952310 -0.516075
C95   C     C_R   0.034775 0.935214 0.936163 0.771288
O27   O     O_R   0.863630 0.955880 0.038270 -0.544708
C96   C     C_R   0.032196 0.945592 0.051703 0.692635
V4    V     V_3+5 0.754830 0.994440 0.999470 1.461462
O28   O     O_3   0.031000 0.029830 0.002920 -0.375958
O29   O     O_3   0.390561 0.803381 0.850072 -0.648793
H44   H     H_    0.483002 0.814249 0.873478 0.299624
Br1   Br    Br    0.769877 0.621659 0.452513 -0.524342
O30   O     O_3   0.324631 0.397371 0.671609 -0.609710
H45   H     H_    0.353052 0.382269 0.696099 0.317888
Br2   Br    Br    0.669169 0.927044 0.869894 -0.567201
O31   O     O_3   0.279112 0.351378 0.316633 -0.662402
H46   H     H_    0.300150 0.336122 0.286760 0.290607

loop_
_geom_bond_atom_site_label_1
_geom_bond_atom_site_label_2
_ccdc_geom_bond_type
O23   C95   A    
C32   C33   A    
C72   H31   S    
C12   C13   A    
C39   C40   A    
C1    C65   S    
O2    C1    A    
C55   C56   A    
C69   C74   A    
C1    O6    A    
C73   H32   S    
C24   O12   S    
C43   C48   A    
C57   C58   A    
O22   V3    S    
C77   C78   A    
O21   C96   A    
C47   H21   S    
C66   H27   S    
C80   C93   S    
O25   V4    S    
C32   C36   A    
C61   N4    A    
C40   C41   A    
C8    H2    S    
C90   H43   S    
C17   C18   A    
O27   C96   A    
C41   C42   A    
C44   Br1   S    
C9    Br2   S    
C81   C82   A    
O5    C3    A    
C14   H5    S    
C83   C92   S    
C70   C71   A    
O26   C95   A    
C58   C62   A    
C33   C34   A    
N1    C24   A    
C23   O11   S    
C37   C38   A    
C10   C95   S    
C67   H28   S    
C75   C80   A    
C49   O15   S    
C4    C19   S    
C6    O29   S    
O8    V2    S    
C25   C28   A    
C17   H7    S    
C52   C57   A    
C87   H41   S    
O29   H44   S    
O1    V2    S    
O19   C94   A    
C88   C89   A    
C13   C14   A    
O7    V1    S    
C11   C16   A    
O20   V3    S    
C61   O17   S    
C20   C21   A    
C36   O14   S    
N2    C36   A    
C88   H42   S    
O9    C4    A    
C39   C96   S    
C37   C42   A    
N4    C62   A    
C21   C22   A    
N2    C42   S    
C63   C64   A    
O20   C93   A    
O27   V4    S    
C81   C86   A    
C83   C84   A    
C84   C85   A    
C47   C48   A    
C8    C9    A    
O23   V3    S    
C89   C90   A    
C5    C10   A    
V2    O10   S    
C84   H39   S    
C28   C29   A    
C24   C25   A    
O25   V3    S    
C70   H30   S    
C28   H11   S    
C41   H18   S    
C64   H26   S    
C29   H12   S    
C19   C20   A    
C63   C68   A    
C49   C53   A    
C35   N2    A    
C23   N1    A    
C59   H24   S    
C44   C45   A    
N3    C74   S    
C43   H19   S    
C87   C92   A    
C91   C92   A    
C93   O24   A    
C18   H8    S    
O4    C2    A    
C35   O13   S    
C46   H20   S    
C9    C10   A    
C56   C57   A    
C7    C8    A    
C5    H1    S    
V3    O28   S    
C3    C45   S    
C54   C55   A    
C85   H40   S    
C17   C22   A    
C91   O31   S    
C53   C60   A    
C69   H29   S    
O3    C4    A    
C55   H23   S    
C63   O30   S    
C78   C79   A    
C20   H9    S    
C46   C47   A    
C45   C46   A    
O6    V2    S    
O9    V2    S    
C13   C22   S    
O31   H46   S    
C71   C72   A    
C26   C27   A    
C21   H10   S    
C34   H14   S    
C75   H33   S    
C77   C86   S    
C40   H17   S    
C51   C52   A    
N4    C68   S    
C29   C30   A    
C38   C39   A    
N1    C48   S    
O26   V4    S    
O24   V4    S    
C82   C83   A    
C31   C32   A    
C54   H22   S    
C72   C73   A    
O1    C2    A    
C27   C34   A    
O19   V4    S    
C50   O16   S    
C85   C86   A    
C78   H35   S    
C75   C76   A    
C73   C74   A    
O5    V1    S    
C30   C35   A    
C30   C31   A    
C79   C80   A    
C11   C12   A    
C33   H13   S    
C43   C44   A    
C59   C60   A    
C62   O18   S    
C15   H6    S    
C6    C7    A    
O22   C94   A    
C82   H38   S    
C11   H3    S    
C7    C16   S    
O4    V1    S    
C18   C19   A    
O3    V1    S    
V1    O10   S    
C81   H37   S    
C51   C54   A    
C14   C15   A    
C50   C51   A    
C76   H34   S    
O21   V3    S    
C23   C27   A    
C25   C26   A    
C90   C91   A    
C52   C53   A    
C5    C6    A    
C66   C67   A    
C71   C94   S    
C87   C88   A    
O7    V2    S    
C37   H15   S    
C67   C68   A    
C69   C70   A    
C79   H36   S    
O30   H45   S    
C38   H16   S    
C2    C89   S    
C49   N3    A    
C60   H25   S    
C58   C59   A    
C12   H4    S    
C76   C77   A    
C65   C66   A    
N3    C50   A    
C56   C61   A    
C26   C31   A    
O8    C3    A    
C15   C16   A    
C64   C65   A    
V4    O28   S    
O2    V1    S    
