data_mof_unit_63521.cif
_audit_creation_date              2012-12-10T18:40:08-0500
_audit_creation_method            fapswitch 2.2
_symmetry_space_group_name_H-M    P1
_symmetry_Int_Tables_number       1
_space_group_crystal_system       monoclinic
_cell_length_a                    15.757983
_cell_length_b                    11.574985
_cell_length_c                    10.788789
_cell_angle_alpha                 90.0
_cell_angle_beta                  90.030878
_cell_angle_gamma                 90.0
_cell_volume                      1967.85774762

loop_
_atom_site_label
_atom_site_type_symbol
_atom_type_description
_atom_site_fract_x
_atom_site_fract_y
_atom_site_fract_z
_atom_type_partial_charge
C1    C     C_1   0.500000 0.161052 0.500000 -0.185681
C2    C     C_1   0.500000 0.940839 0.500000 0.003280
C3    C     C_3   0.971789 0.404533 0.558988 -0.212149
C4    C     C_3   0.028210 0.595467 0.441011 -0.212149
C5    C     C_3   0.028210 0.404552 0.440977 -0.212148
C6    C     C_3   0.971789 0.595448 0.559023 -0.212148
C7    C     C_1   0.248614 0.500000 0.499820 -0.181090
C8    C     C_1   0.751386 0.500000 0.500180 -0.181091
C9    C     C_3   0.027710 0.499982 0.616126 0.251674
C10   C     C_3   0.972290 0.500018 0.383874 0.251674
C11   C     C_3   0.082774 0.500000 0.499691 0.148986
C12   C     C_1   0.500000 0.838948 0.500000 -0.185682
C13   C     C_3   0.917226 0.500000 0.500309 0.148986
C14   C     C_1   0.173475 0.500000 0.499674 -0.050737
C15   C     C_1   0.826525 0.500000 0.500326 -0.050737
C16   C     C_3   0.939226 0.500039 0.251481 -0.915406
C17   C     C_3   0.060774 0.499961 0.748519 -0.915406
C18   C     C_1   0.499996 0.500000 0.069788 0.038711
C19   C     C_1   0.500004 0.500000 0.930212 0.038711
C20   C     C_R   0.500000 0.281186 0.500000 0.906342
C21   C     C_R   0.500000 0.718814 0.500000 0.906343
C22   C     C_R   0.337368 0.500000 0.499943 0.906752
C23   C     C_R   0.662632 0.500000 0.500057 0.906751
C24   C     C_1   0.500000 0.059160 0.500000 0.003280
H1    H     H_    0.052911 0.327270 0.391871 0.148236
H2    H     H_    0.100033 0.578162 0.764472 0.246404
H3    H     H_    0.947089 0.672730 0.608129 0.148236
H4    H     H_    0.947089 0.327236 0.608066 0.148235
H5    H     H_    0.052911 0.672764 0.391934 0.148235
H6    H     H_    0.993452 0.500050 0.185896 0.243129
H7    H     H_    0.899967 0.421838 0.235528 0.246403
H8    H     H_    0.899967 0.578246 0.235556 0.246403
H9    H     H_    0.006548 0.499950 0.814103 0.243129
H10   H     H_    0.100033 0.421754 0.764444 0.246403
N1    N     N_1   0.499990 0.500000 0.180630 -0.078983
N2    N     N_1   0.500010 0.500000 0.819370 -0.078983
O1    O     O_R   0.499990 0.334450 0.602530 -0.608769
O2    O     O_R   0.500010 0.665550 0.397470 -0.608769
O3    O     O_R   0.500010 0.334450 0.397470 -0.608770
O4    O     O_R   0.499990 0.665550 0.602530 -0.608770
O5    O     O_R   0.376780 0.500000 0.602510 -0.609353
O6    O     O_R   0.623220 0.500000 0.397490 -0.609353
O7    O     O_R   0.376780 0.500000 0.397450 -0.610445
O8    O     O_R   0.623220 0.500000 0.602550 -0.610444
Zn1   Zn    Zn3+2 0.500000 0.500000 0.636920 0.985380
Zn2   Zn    Zn3+2 0.500000 0.500000 0.363080 0.985379

loop_
_geom_bond_atom_site_label_1
_geom_bond_atom_site_label_2
_ccdc_geom_bond_type
C4    H5    S    
C3    C9    S    
C16   H8    S    
C7    C22   S    
C18   N1    T    
C22   O7    A    
C3    C13   S    
C16   H7    S    
C2    C12   T    
C6    C9    S    
N2    Zn1   S    
C10   C16   S    
C4    C11   S    
C20   O1    A    
C9    C11   S    
C23   O6    A    
C17   H9    S    
O3    Zn2   S    
C5    H1    S    
C17   H2    S    
C9    C17   S    
C3    H4    S    
C11   C14   S    
C5    C11   S    
C8    C15   T    
C19   N2    T    
C13   C15   S    
C2    C24   S    
O4    Zn1   S    
O7    Zn2   S    
O2    Zn2   S    
C22   O5    A    
C17   H10   S    
C23   O8    A    
C16   H6    S    
C5    C10   S    
C8    C23   S    
O8    Zn1   S    
C1    C24   T    
C4    C6    S    
C18   C19   S    
O6    Zn2   S    
C20   O3    A    
O5    Zn1   S    
C1    C20   S    
C3    C5    S    
N1    Zn2   S    
O1    Zn1   S    
C12   C21   S    
C7    C14   T    
C21   O2    A    
C6    H3    S    
C4    C10   S    
C6    C13   S    
C10   C13   S    
C21   O4    A    
