data_mof_unit_58274.cif
_audit_creation_date              2012-12-11T15:34:20-0500
_audit_creation_method            fapswitch 2.2
_symmetry_space_group_name_H-M    P1
_symmetry_Int_Tables_number       1
_space_group_crystal_system       triclinic
_cell_length_a                    15.059895
_cell_length_b                    15.06436
_cell_length_c                    34.947063
_cell_angle_alpha                 90.403314
_cell_angle_beta                  89.940523
_cell_angle_gamma                 60.003196
_cell_volume                      6866.1163243

loop_
_atom_site_label
_atom_site_type_symbol
_atom_type_description
_atom_site_fract_x
_atom_site_fract_y
_atom_site_fract_z
_atom_type_partial_charge
C1    C     C_R   0.302304 0.608283 0.555736 0.541953
C2    C     C_R   0.654071 0.663127 0.668772 0.057295
C3    C     C_R   0.255220 0.659202 0.267357 -0.118623
C4    C     C_R   0.189431 0.640544 0.290051 0.025755
C5    C     C_R   0.118466 0.619065 0.272668 -0.116616
C6    C     C_R   0.110539 0.620365 0.232965 -0.114900
C7    C     C_R   0.174175 0.642268 0.210232 0.029481
C8    C     C_R   0.206996 0.560100 0.353513 -0.122988
C9    C     C_R   0.232005 0.553736 0.392136 -0.127762
C10   C     C_R   0.225930 0.717467 0.388422 -0.127935
C11   C     C_R   0.201712 0.723341 0.349817 -0.126845
C12   C     C_R   0.196479 0.642665 0.331834 0.030794
C13   C     C_R   0.562541 0.729270 0.649071 0.135443
C14   C     C_R   0.246433 0.630120 0.409408 0.023039
C15   C     C_R   0.736416 0.024541 0.943037 0.541503
C16   C     C_R   0.745941 0.723030 0.945044 0.542868
C17   C     C_R   0.037289 0.734615 0.948029 0.543104
C18   C     C_R   0.723001 0.038639 0.052845 0.547836
C19   C     C_R   0.733028 0.734278 0.054745 0.548363
C20   C     C_R   0.027587 0.744604 0.057834 0.546294
C21   C     C_R   0.552993 0.709821 0.610492 -0.123825
C22   C     C_R   0.673656 0.677533 0.787918 0.334456
C23   C     C_R   0.663571 0.670214 0.710566 0.349606
C24   C     C_R   0.760509 0.599829 0.849590 -0.124080
C25   C     C_R   0.776841 0.609961 0.888229 -0.132433
C26   C     C_R   0.630418 0.782182 0.888626 -0.132840
C27   C     C_R   0.614451 0.772239 0.849988 -0.126435
C28   C     C_R   0.681670 0.682431 0.829778 0.034260
C29   C     C_R   0.610858 0.588619 0.555110 0.546851
C30   C     C_R   0.714355 0.702733 0.907684 0.023379
C31   C     C_R   0.725563 0.067631 0.904389 0.020972
C32   C     C_R   0.638008 0.091537 0.882674 -0.125664
C33   C     C_R   0.637040 0.107784 0.843461 -0.121818
C34   C     C_R   0.723045 0.101527 0.825264 0.033129
C35   C     C_R   0.807774 0.085069 0.847232 -0.110635
C36   C     C_R   0.809192 0.067950 0.886524 -0.124572
C37   C     C_R   0.753613 0.174034 0.765925 -0.117607
C38   C     C_R   0.746860 0.186547 0.726307 -0.082104
C39   C     C_R   0.713086 0.132232 0.703409 0.040479
C40   C     C_R   0.590467 0.300153 0.553512 0.544439
C41   C     C_R   0.689028 0.063023 0.720673 -0.129785
C42   C     C_R   0.694744 0.051340 0.760284 -0.123363
C43   C     C_R   0.725043 0.108339 0.783252 0.024693
C44   C     C_R   0.593596 0.183034 0.648598 -0.149207
C45   C     C_R   0.563245 0.223394 0.612138 -0.138080
C46   C     C_R   0.729505 0.207561 0.601444 -0.104073
C47   C     C_R   0.761314 0.165567 0.638054 0.106947
C48   C     C_R   0.690996 0.157316 0.662436 0.055228
C49   C     C_R   0.629438 0.239685 0.588792 -0.000319
C50   C     C_R   0.086082 0.700849 0.910011 0.020029
C51   C     C_R   0.300015 0.610456 0.446152 0.541694
C52   C     C_R   0.108378 0.766144 0.888620 -0.127043
C53   C     C_R   0.126203 0.750860 0.849373 -0.090677
C54   C     C_R   0.123349 0.669469 0.830986 0.044336
C55   C     C_R   0.110343 0.598792 0.852615 -0.128941
C56   C     C_R   0.091455 0.614515 0.891926 -0.127904
C57   C     C_R   0.210679 0.576344 0.771476 -0.145062
C58   C     C_R   0.221886 0.571592 0.731837 -0.136163
C59   C     C_R   0.150559 0.651929 0.709008 0.013858
C60   C     C_R   0.065198 0.735254 0.726298 -0.069910
C61   C     C_R   0.053786 0.741375 0.766286 0.109200
C62   C     C_R   0.608325 0.590548 0.445498 0.561959
C63   C     C_R   0.128610 0.661949 0.788974 0.052246
C64   C     C_R   0.174226 0.732768 0.649803 0.106998
C65   C     C_R   0.211095 0.720781 0.612066 -0.111229
C66   C     C_R   0.233538 0.550119 0.608939 -0.140758
C67   C     C_R   0.197050 0.561161 0.646295 -0.149258
C68   C     C_R   0.170332 0.650572 0.667485 0.058953
C69   C     C_R   0.244564 0.628242 0.591976 -0.001220
C70   C     C_R   0.692520 0.718040 0.091199 0.022290
C71   C     C_R   0.604325 0.798139 0.109811 0.141276
C72   C     C_R   0.587866 0.786815 0.148794 -0.065808
C73   C     C_R   0.587934 0.302819 0.443792 0.542228
C74   C     C_R   0.654785 0.697450 0.168310 0.051423
C75   C     C_R   0.734536 0.615266 0.148803 -0.117901
C76   C     C_R   0.753192 0.625303 0.110608 -0.159203
C77   C     C_R   0.590655 0.653104 0.226619 0.105556
C78   C     C_R   0.589769 0.643926 0.266768 0.131133
C79   C     C_R   0.642703 0.679802 0.289908 -0.006165
C80   C     C_R   0.696703 0.724085 0.273232 0.128796
C81   C     C_R   0.701200 0.728845 0.233034 0.104419
C82   C     C_R   0.647931 0.693560 0.210143 0.013844
C83   C     C_R   0.562222 0.740515 0.353920 -0.122510
C84   C     C_R   0.631706 0.623922 0.591605 -0.002919
C85   C     C_R   0.553401 0.721011 0.392456 0.090150
C86   C     C_R   0.713195 0.558558 0.386635 -0.161066
C87   C     C_R   0.721157 0.579045 0.348414 -0.143082
C88   C     C_R   0.643541 0.667850 0.331625 0.019036
C89   C     C_R   0.627099 0.626577 0.408670 0.059504
C90   C     C_R   0.699471 0.100127 0.088183 0.023863
C91   C     C_R   0.774232 0.117461 0.104970 -0.127495
C92   C     C_R   0.761761 0.154135 0.142436 -0.119964
C93   C     C_R   0.674640 0.173551 0.163695 0.036791
C94   C     C_R   0.595860 0.165008 0.145710 -0.117573
C95   C     C_R   0.724846 0.563418 0.610438 -0.140968
C96   C     C_R   0.607945 0.129167 0.108171 -0.120553
C97   C     C_R   0.578251 0.257660 0.223827 -0.118929
C98   C     C_R   0.572643 0.263080 0.263603 -0.128526
C99   C     C_R   0.660010 0.202071 0.285608 0.022297
C100  C     C_R   0.753604 0.137195 0.267361 -0.120344
C101  C     C_R   0.759018 0.130805 0.227570 -0.112800
C102  C     C_R   0.671101 0.190174 0.205445 0.032909
C103  C     C_R   0.723200 0.223692 0.348799 -0.128776
C104  C     C_R   0.707077 0.245765 0.387824 -0.129548
C105  C     C_R   0.555621 0.228225 0.385313 -0.127617
C106  C     C_R   0.735905 0.583012 0.648559 -0.154614
C107  C     C_R   0.571582 0.206631 0.346306 -0.127910
C108  C     C_R   0.653082 0.208255 0.327564 0.026242
C109  C     C_R   0.620546 0.252651 0.406052 0.022566
C110  C     C_R   0.084460 0.707450 0.093755 0.023467
C111  C     C_R   0.097854 0.616726 0.110197 -0.127989
C112  C     C_R   0.133417 0.591710 0.147514 -0.125087
C113  C     C_R   0.156246 0.656891 0.168833 0.033243
C114  C     C_R   0.150599 0.743185 0.151374 -0.119579
C115  C     C_R   0.115097 0.768227 0.114070 -0.126208
C116  C     C_R   0.247765 0.659905 0.227705 -0.119146
Cr1   Cr    Cr6+3 0.421670 0.426920 0.499620 1.008995
Cr2   Cr    Cr6+3 0.427030 0.651190 0.500980 1.032117
Cr3   Cr    Cr6+3 0.651280 0.421870 0.499380 1.008090
Cr4   Cr    Cr6+3 0.910810 0.908010 0.001130 1.010020
Cr5   Cr    Cr6+3 0.682800 0.909890 0.998370 1.019003
Cr6   Cr    Cr6+3 0.908370 0.682300 0.002180 1.009160
H1    H     H_    0.787409 0.497347 0.596413 0.139435
H2    H     H_    0.878017 0.049201 0.902407 0.125269
H3    H     H_    0.763466 0.242219 0.713763 0.150752
H4    H     H_    0.776709 0.218996 0.783169 0.111392
H5    H     H_    0.570046 0.122484 0.827096 0.108146
H6    H     H_    0.663124 0.020158 0.703570 0.119374
H7    H     H_    0.674127 0.998798 0.773094 0.124152
H8    H     H_    0.538496 0.177400 0.666871 0.111600
H9    H     H_    0.485717 0.247319 0.603159 0.133374
H10   H     H_    0.874820 0.080202 0.833693 0.116043
H11   H     H_    0.480560 0.757613 0.596319 0.126183
H12   H     H_    0.781886 0.218034 0.583311 0.118379
H13   H     H_    0.105091 0.833204 0.901620 0.126173
H14   H     H_    0.074493 0.562920 0.907580 0.126349
H15   H     H_    0.193673 0.497846 0.659316 0.111264
H16   H     H_    0.288509 0.506743 0.719051 0.115628
H17   H     H_    0.268141 0.514905 0.788654 0.113674
H18   H     H_    0.137976 0.805001 0.833026 0.130281
H19   H     H_    0.008633 0.796139 0.708680 0.141308
H20   H     H_    0.841905 0.547268 0.902211 0.127890
H21   H     H_    0.218591 0.781888 0.599155 0.121196
H22   H     H_    0.108974 0.534968 0.838734 0.109475
H23   H     H_    0.258148 0.478085 0.594111 0.131912
H24   H     H_    0.819648 0.562161 0.097013 0.133463
H25   H     H_    0.784947 0.522954 0.331320 0.107825
H26   H     H_    0.524943 0.847670 0.164683 0.102383
H27   H     H_    0.807477 0.532358 0.662734 0.136710
H28   H     H_    0.502946 0.810101 0.340899 0.097103
H29   H     H_    0.786030 0.545519 0.163803 0.113775
H30   H     H_    0.771492 0.486104 0.398148 0.129632
H31   H     H_    0.845019 0.097102 0.090023 0.123140
H32   H     H_    0.548525 0.117738 0.095786 0.132064
H33   H     H_    0.517856 0.192824 0.330420 0.101818
H34   H     H_    0.500108 0.315333 0.277234 0.106347
H35   H     H_    0.509745 0.305192 0.207455 0.107151
H36   H     H_    0.822491 0.162487 0.155409 0.100542
H37   H     H_    0.821707 0.089424 0.283911 0.104300
H38   H     H_    0.831142 0.076510 0.214196 0.105834
H39   H     H_    0.786635 0.225153 0.334780 0.099935
H40   H     H_    0.758501 0.264149 0.403055 0.124303
H41   H     H_    0.527991 0.178986 0.161420 0.098306
H42   H     H_    0.488685 0.232254 0.398600 0.126181
H43   H     H_    0.075862 0.567805 0.095020 0.124080
H44   H     H_    0.106087 0.838302 0.102029 0.125861
H45   H     H_    0.191743 0.788635 0.333543 0.101907
H46   H     H_    0.812899 0.529140 0.834870 0.131590
H47   H     H_    0.312046 0.673699 0.280370 0.122421
H48   H     H_    0.298159 0.675987 0.210701 0.101738
H49   H     H_    0.138952 0.523813 0.160276 0.099141
H50   H     H_    0.067204 0.604510 0.289822 0.108071
H51   H     H_    0.051855 0.608412 0.220139 0.102402
H52   H     H_    0.202780 0.497346 0.340034 0.101081
H53   H     H_    0.246820 0.485787 0.407699 0.123771
H54   H     H_    0.167162 0.795043 0.167344 0.100469
H55   H     H_    0.235569 0.777972 0.401035 0.125859
H56   H     H_    0.580549 0.854517 0.902889 0.127510
H57   H     H_    0.551935 0.836593 0.835643 0.129683
H58   H     H_    0.572272 0.092046 0.895515 0.127173
N1    N     N_R   0.733076 0.588776 0.768489 -0.240587
N2    N     N_R   0.727847 0.585144 0.730590 -0.247324
N3    N     N_R   0.605172 0.759303 0.729960 -0.190011
N4    N     N_R   0.610199 0.762923 0.767884 -0.247342
O1    O     O_R   0.502070 0.323090 0.541280 -0.518787
O2    O     O_R   0.520720 0.641670 0.461580 -0.454597
O3    O     O_R   0.674120 0.502090 0.457500 -0.534995
O4    O     O_R   0.640110 0.338380 0.459630 -0.504695
O5    O     O_3   0.499990 0.499990 0.499990 -0.240074
O6    O     O_R   0.017640 0.822070 0.960410 -0.521347
O7    O     O_R   0.822000 0.989470 0.960340 -0.503387
O8    O     O_R   0.666920 0.007430 0.955290 -0.522630
O9    O     O_R   0.694410 0.812480 0.959650 -0.507188
O10   O     O_R   0.831550 0.656950 0.958960 -0.521190
O11   O     O_R   0.998590 0.685540 0.963930 -0.502346
O12   O     O_R   0.338340 0.520690 0.539540 -0.501727
O13   O     O_R   0.008220 0.831200 0.045060 -0.520397
O14   O     O_R   0.813270 0.997930 0.038810 -0.503973
O15   O     O_R   0.657500 0.016560 0.039940 -0.505803
O16   O     O_R   0.685680 0.820940 0.038120 -0.477386
O17   O     O_R   0.822130 0.666070 0.043610 -0.525899
O18   O     O_R   0.989860 0.694000 0.042400 -0.502584
O19   O     O_3   0.833990 0.833400 0.000560 -0.235676
O20   O     O_R   0.324760 0.674070 0.543580 -0.521923
O21   O     O_R   0.522400 0.640310 0.540110 -0.503742
O22   O     O_R   0.675940 0.500630 0.542210 -0.517352
O23   O     O_R   0.641790 0.337020 0.538150 -0.501090
O24   O     O_R   0.500260 0.324550 0.456580 -0.520224
O25   O     O_R   0.336660 0.522040 0.461020 -0.504321
O26   O     O_R   0.322940 0.675540 0.458880 -0.512570
N5    N     N_3   0.863634 0.133218 0.650880 -0.642036
H59   H     H_    0.900967 0.053768 0.654421 0.243265
H60   H     H_    0.904650 0.147159 0.629918 0.221436
N6    N     N_3   0.967437 0.827957 0.784039 -0.632488
H61   H     H_    0.922299 0.881711 0.763468 0.233775
H62   H     H_    0.921729 0.801676 0.796454 0.240493
N7    N     N_3   0.146260 0.825610 0.670811 -0.650046
H63   H     H_    0.152074 0.878760 0.653458 0.219675
H64   H     H_    0.199238 0.807534 0.692870 0.228165
N8    N     N_2   0.535464 0.888657 0.089270 -0.487187
H65   H     H_    0.510489 0.874589 0.063680 0.251238
C117  C     C_3   0.458557 0.978413 0.109651 -0.316205
H66   H     H_    0.420822 0.043471 0.089507 0.135699
H67   H     H_    0.494683 0.000628 0.132673 0.153559
H68   H     H_    0.399110 0.963510 0.121809 0.124469
N9    N     N_2   0.534239 0.600220 0.283703 -0.538120
H69   H     H_    0.496052 0.634923 0.308746 0.255337
C118  C     C_3   0.590183 0.489508 0.285975 -0.300035
H70   H     H_    0.655886 0.463394 0.305833 0.148809
H71   H     H_    0.618985 0.454442 0.257301 0.171825
H72   H     H_    0.538442 0.462691 0.296894 0.149317
N10   N     N_3   0.534203 0.622085 0.201898 -0.624574
H73   H     H_    0.496132 0.591691 0.217140 0.256911
H74   H     H_    0.476857 0.687988 0.188729 0.214291
N11   N     N_2   0.748280 0.761961 0.296624 -0.529495
H75   H     H_    0.784171 0.718320 0.320304 0.257914
C119  C     C_3   0.688415 0.870318 0.305506 -0.308331
H76   H     H_    0.736899 0.894906 0.321026 0.147770
H77   H     H_    0.621856 0.886137 0.323922 0.138948
H78   H     H_    0.660409 0.915896 0.278891 0.166372
N12   N     N_3   0.760647 0.767583 0.214618 -0.619157
H79   H     H_    0.822548 0.705851 0.200794 0.222822
H80   H     H_    0.792590 0.796072 0.234215 0.262480
N13   N     N_3   0.467406 0.795426 0.414324 -0.604703
H81   H     H_    0.400451 0.807680 0.400698 0.221111
H82   H     H_    0.468399 0.864320 0.413959 0.215567
N14   N     N_2   0.476805 0.810440 0.668308 -0.496046
H83   H     H_    0.437938 0.875405 0.651909 0.242582
C120  C     C_3   0.408047 0.780293 0.685030 -0.292962
H84   H     H_    0.372800 0.756320 0.662227 0.132516
H85   H     H_    0.346321 0.846139 0.701100 0.145085
H86   H     H_    0.449757 0.716009 0.705257 0.175396

loop_
_geom_bond_atom_site_label_1
_geom_bond_atom_site_label_2
_ccdc_geom_bond_type
C78   N9    S    
C55   C56   A    
C100  H37   S    
C101  C102  A    
C47   N5    S    
C53   H18   S    
C24   H46   S    
C41   C42   A    
C39   C48   S    
C25   H20   S    
C80   N11   S    
C19   O17   A    
Cr6   O11   S    
C87   C88   A    
Cr1   O24   S    
C38   H3    S    
Cr5   O8    S    
C118  H71   S    
C114  C115  A    
Cr2   O2    S    
N8    H65   S    
C39   C41   A    
C77   C78   A    
C52   C53   A    
C99   C108  S    
C105  C107  A    
C46   C49   A    
C120  H84   S    
C93   C94   A    
C87   H25   S    
C64   N7    S    
C64   C68   A    
Cr6   O17   S    
C42   H7    S    
C36   H2    S    
C27   H57   S    
C34   C35   A    
C22   N1    A    
Cr4   O6    S    
C3    C116  A    
C31   C36   A    
C104  H40   S    
C5    C6    A    
C65   H21   S    
Cr2   O5    S    
N6    H62   S    
C112  H49   S    
C54   C63   S    
C44   H8    S    
C40   C49   S    
C62   C89   S    
C97   C98   A    
C33   H5    S    
C29   O21   A    
N13   H81   S    
C57   H17   S    
C92   H36   S    
N12   H79   S    
C46   C47   A    
C81   N12   S    
C61   C63   A    
C2    C13   A    
Cr3   O4    S    
C112  C113  A    
C66   H23   S    
C22   N4    A    
C16   O9    A    
C103  C104  A    
C1    O20   A    
C110  C111  A    
C96   H32   S    
C14   C51   S    
C101  H38   S    
C75   H29   S    
C8    C9    A    
C77   N10   S    
C18   O14   A    
Cr4   O14   S    
N11   H75   S    
C70   C71   A    
C111  H43   S    
C8    C12   A    
C4    C12   S    
C97   C102  A    
C90   C91   A    
Cr5   O15   S    
C62   O2    A    
C83   H28   S    
C58   H16   S    
C114  H54   S    
C66   C67   A    
C37   H4    S    
C40   O23   A    
C76   H24   S    
C59   C60   A    
C106  H27   S    
C22   C28   S    
C119  H76   S    
C11   H45   S    
N11   C119  S    
C41   H6    S    
Cr6   O10   S    
C21   H11   S    
C79   C88   S    
C56   H14   S    
C57   C63   A    
Cr3   O3    S    
N14   C120  S    
C98   H34   S    
C103  H39   S    
C120  H85   S    
C74   C75   A    
C13   C21   A    
C67   C68   A    
C18   C90   S    
Cr3   O5    S    
Cr2   O21   S    
C24   C25   A    
Cr5   O19   S    
C23   N2    A    
C72   C74   A    
C10   C14   A    
Cr4   O7    S    
C91   C92   A    
C9    C14   A    
C85   C89   A    
C86   C87   A    
C3    H47   S    
C40   O1    A    
C81   C82   A    
C117  H68   S    
N7    H63   S    
N1    N2    A    
C15   C31   S    
C2    C106  A    
C85   N13   S    
C1    C69   S    
C29   O22   A    
C79   C80   A    
C60   C61   A    
N12   H80   S    
C35   C36   A    
C97   H35   S    
C7    C116  A    
C37   C43   A    
C94   C96   A    
C75   C76   A    
Cr5   O16   S    
C23   N3    A    
C37   C38   A    
C95   C106  A    
C86   H30   S    
C60   H19   S    
C46   H12   S    
C51   O25   A    
C50   C52   A    
C47   C48   A    
C21   C84   A    
C45   C49   A    
C107  C108  A    
C1    O12   A    
N10   H74   S    
C33   C34   A    
C26   C27   A    
C105  H42   S    
C116  H48   S    
N9    H69   S    
Cr3   O22   S    
C115  H44   S    
C90   C96   A    
C13   N14   S    
C103  C108  A    
Cr1   O5    S    
C29   C84   S    
C20   C110  S    
C83   C85   A    
C73   O24   A    
Cr1   O1    S    
C45   H9    S    
N9    C118  S    
C119  H77   S    
C70   C76   A    
C17   O11   A    
Cr6   O19   S    
Cr4   O13   S    
C42   C43   A    
C53   C54   A    
C3    C4    A    
Cr5   O9    S    
C2    C23   S    
C73   O4    A    
C44   C45   A    
C113  C114  A    
C74   C82   S    
C95   H1    S    
C25   C30   A    
C52   H13   S    
C105  C109  A    
C54   C55   A    
C117  H67   S    
C120  H86   S    
C55   H22   S    
C111  C112  A    
N5    H60   S    
N6    H61   S    
C10   H55   S    
C31   C32   A    
Cr2   O20   S    
C34   C43   S    
C24   C28   A    
C80   C81   A    
C19   C70   S    
C86   C89   A    
C17   C50   S    
C110  C115  A    
N14   H83   S    
C91   H31   S    
C6    C7    A    
C6    H51   S    
C17   O6    A    
N7    H64   S    
C15   O7    A    
C26   H56   S    
C99   C100  A    
N8    C117  S    
Cr2   O26   S    
C64   C65   A    
C7    C113  S    
Cr1   O25   S    
C58   C59   A    
C20   O18   A    
C71   C72   A    
Cr1   O12   S    
C72   H26   S    
C32   C33   A    
C78   C79   A    
C51   O26   A    
Cr6   O18   S    
C57   C58   A    
C38   C39   A    
C77   C82   A    
C65   C69   A    
C35   H10   S    
C92   C93   A    
C5    H50   S    
N13   H82   S    
C9    H53   S    
C19   O16   A    
C8    H52   S    
C73   C109  S    
C117  H66   S    
C67   H15   S    
N3    N4    A    
C50   C56   A    
C20   O13   A    
C16   O10   A    
C10   C11   A    
C15   O8    A    
C118  H70   S    
N5    H59   S    
C66   C69   A    
C4    C5    A    
C71   N8    S    
Cr3   O23   S    
C93   C102  S    
C98   C99   A    
C61   N6    S    
C119  H78   S    
C18   O15   A    
Cr4   O19   S    
C104  C109  A    
C32   H58   S    
C59   C68   S    
C100  C101  A    
C83   C88   A    
C16   C30   S    
C94   H41   S    
C84   C95   A    
C118  H72   S    
C107  H33   S    
C44   C48   A    
C11   C12   A    
N10   H73   S    
C62   O3    A    
C27   C28   A    
C26   C30   A    
