data_mof_unit_60682.cif
_audit_creation_date              2012-12-10T17:30:42-0500
_audit_creation_method            fapswitch 2.2
_symmetry_space_group_name_H-M    P1
_symmetry_Int_Tables_number       1
_space_group_crystal_system       triclinic
_cell_length_a                    21.571442
_cell_length_b                    21.560673
_cell_length_c                    22.065851
_cell_angle_alpha                 60.717509
_cell_angle_beta                  119.333202
_cell_angle_gamma                 90.393633
_cell_volume                      7429.10365933

loop_
_atom_site_label
_atom_site_type_symbol
_atom_type_description
_atom_site_fract_x
_atom_site_fract_y
_atom_site_fract_z
_atom_type_partial_charge
C1    C     C_R   0.619828 0.500487 0.499651 0.773934
C2    C     C_3   0.290005 0.708197 0.082563 0.131171
C3    C     C_3   0.177888 0.749710 0.971707 -0.121560
C4    C     C_3   0.208201 0.790953 0.917414 0.127346
C5    C     C_3   0.222631 0.778004 0.028138 -0.215488
C6    C     C_3   0.252041 0.820357 0.972324 -0.246828
C7    C     C_1   0.336418 0.662373 0.174403 -0.022097
C8    C     C_1   0.162391 0.836940 0.825601 -0.052029
C9    C     C_3   0.751778 0.427206 0.577368 -0.379003
C10   C     C_3   0.821599 0.424328 0.574427 -0.332879
C11   C     C_3   0.673737 0.509163 0.419848 -0.396092
C12   C     C_R   0.419849 0.580028 0.339767 0.819111
C13   C     C_3   0.715193 0.568046 0.501517 -0.388148
C14   C     C_3   0.688708 0.501248 0.499692 0.092194
C15   C     C_3   0.811347 0.500810 0.501560 0.035663
C16   C     C_3   0.744383 0.513701 0.418366 -0.449844
C17   C     C_3   0.790346 0.565261 0.508868 0.278221
C18   C     C_3   0.713025 0.207070 0.028016 -0.160373
C19   C     C_3   0.686022 0.293608 0.972562 -0.157968
C20   C     C_1   0.625159 0.375172 0.750196 -0.180904
C21   C     C_1   0.875160 0.125007 0.249828 -0.183031
C22   C     C_3   0.735290 0.205622 0.971666 -0.160626
C23   C     C_R   0.379409 0.500260 0.498977 0.747415
C24   C     C_3   0.708983 0.291465 0.917602 0.189798
C25   C     C_3   0.814458 0.206725 0.027471 -0.157435
C26   C     C_3   0.791496 0.208870 0.082429 0.189955
C27   C     C_3   0.787455 0.293266 0.972014 -0.152543
C28   C     C_3   0.765191 0.294712 0.028369 -0.156355
C29   C     C_1   0.662980 0.337452 0.825725 -0.074293
C30   C     C_1   0.837446 0.162832 0.174302 -0.077825
C31   C     C_3   0.277608 0.439233 0.487685 -0.351882
C32   C     C_3   0.205644 0.441147 0.486706 -0.399262
C33   C     C_3   0.328355 0.485194 0.582805 -0.389781
C34   C     C_R   0.580134 0.419955 0.660261 0.822500
C35   C     C_3   0.249921 0.577421 0.426399 -0.379951
C36   C     C_3   0.310322 0.500296 0.498834 0.161350
C37   C     C_3   0.189157 0.501767 0.499742 0.165495
C38   C     C_3   0.257521 0.484689 0.584073 -0.362689
C39   C     C_3   0.179163 0.578783 0.427866 -0.375784
C40   C     C_R   0.998132 0.881404 0.496961 0.758256
C41   C     C_R   0.080017 0.919791 0.660221 0.824789
C42   C     C_R   0.000944 0.119317 0.501337 0.749174
C43   C     C_R   0.919965 0.080009 0.339756 0.814054
C44   C     C_R   0.998450 0.379713 0.499886 0.751319
C45   C     C_3   0.275542 0.720846 0.971638 -0.240681
C46   C     C_R   0.879755 0.500177 0.500310 0.800325
C47   C     C_R   0.000813 0.620252 0.500124 0.811383
C48   C     C_R   0.120324 0.501896 0.499963 0.749324
C49   C     C_3   0.028811 0.812112 0.446750 -0.458834
C50   C     C_3   0.032246 0.738940 0.450244 -0.425813
C51   C     C_3   0.048048 0.743612 0.588228 -0.374272
C52   C     C_3   0.916541 0.805442 0.456624 0.362679
C53   C     C_3   0.997374 0.812288 0.496964 0.098764
C54   C     C_3   0.000338 0.689316 0.499734 0.096693
C55   C     C_3   0.047953 0.671264 0.590160 -0.333592
C56   C     C_3   0.318501 0.749681 0.027155 0.523010
C57   C     C_3   0.919026 0.733742 0.456421 -0.414606
C58   C     C_3   0.075313 0.207119 0.518034 -0.353203
C59   C     C_3   0.074431 0.278100 0.519099 -0.398851
C60   C     C_3   0.935538 0.254848 0.415209 -0.391085
C61   C     C_3   0.990931 0.178753 0.570104 -0.377279
C62   C     C_3   0.001038 0.188355 0.501344 0.160912
C63   C     C_3   0.998646 0.310741 0.499898 0.164540
C64   C     C_3   0.935089 0.327181 0.413560 -0.360216
C65   C     C_3   0.987696 0.251335 0.567909 -0.378473
C66   C     C_1   0.374559 0.624755 0.249892 -0.174990
C67   C     C_1   0.124768 0.874767 0.750106 -0.183084
C68   C     C_3   0.245965 0.679220 0.027486 -0.217144
Cu1   Cu    Cu3+1 0.500030 0.437550 0.499970 0.930847
Cu2   Cu    Cu3+1 0.499970 0.562450 0.500030 0.940433
Cu3   Cu    Cu3+1 0.062480 0.999860 0.500010 0.927714
Cu4   Cu    Cu3+1 0.937520 0.999990 0.499990 0.934526
Cu5   Cu    Cu3+1 0.041430 0.458600 0.582880 0.977723
Cu6   Cu    Cu3+1 0.958570 0.541400 0.417120 0.912737
H1    H     H_    0.830520 0.379824 0.564946 0.136002
H2    H     H_    0.658007 0.460425 0.418318 0.187840
H3    H     H_    0.758662 0.471246 0.408629 0.175694
H4    H     H_    0.672406 0.621610 0.443067 0.145752
H5    H     H_    0.719499 0.567711 0.554009 0.198115
H6    H     H_    0.782652 0.619032 0.455237 0.053485
H7    H     H_    0.626318 0.560245 0.363020 0.161948
H8    H     H_    0.732097 0.569615 0.364069 0.182827
H9    H     H_    0.632716 0.329819 0.949037 0.128216
H10   H     H_    0.296809 0.698265 0.947410 0.132596
H11   H     H_    0.682881 0.171132 0.051998 0.128652
H12   H     H_    0.777964 0.330891 0.052639 0.128682
H13   H     H_    0.817601 0.329198 0.948032 0.135438
H14   H     H_    0.867761 0.170511 0.050994 0.130969
H15   H     H_    0.722521 0.169435 0.947407 0.129444
H16   H     H_    0.319230 0.382952 0.539760 0.171234
H17   H     H_    0.264933 0.448280 0.428102 0.163565
H18   H     H_    0.158068 0.452875 0.425918 0.162049
H19   H     H_    0.212158 0.385427 0.536991 0.150717
H20   H     H_    0.372398 0.430493 0.635910 0.149108
H21   H     H_    0.255047 0.878293 0.949063 0.132268
H22   H     H_    0.267406 0.428965 0.636963 0.176636
H23   H     H_    0.271362 0.622684 0.432073 0.176884
H24   H     H_    0.235551 0.589063 0.365260 0.148391
H25   H     H_    0.130544 0.593144 0.366298 0.177849
H26   H     H_    0.167876 0.623184 0.436508 0.144718
H27   H     H_    0.350389 0.528959 0.591738 0.172902
H28   H     H_    0.246444 0.526992 0.595490 0.150917
H29   H     H_    0.086053 0.817615 0.472829 0.204451
H30   H     H_    0.992905 0.860629 0.380427 0.154484
H31   H     H_    0.999892 0.752483 0.385315 0.182688
H32   H     H_    0.201183 0.800552 0.052282 0.145293
H33   H     H_    0.091118 0.708417 0.480742 0.158109
H34   H     H_    0.106185 0.746680 0.616824 0.156642
H35   H     H_    0.106465 0.638071 0.623019 0.156465
H36   H     H_    0.882167 0.855244 0.390536 0.030225
H37   H     H_    0.884515 0.749642 0.390575 0.124854
H38   H     H_    0.893873 0.697815 0.488741 0.221296
H39   H     H_    0.028417 0.742740 0.626743 0.203823
H40   H     H_    0.025191 0.637174 0.626732 0.234614
H41   H     H_    0.083316 0.216150 0.468490 0.173737
H42   H     H_    0.118894 0.750317 0.947469 0.139176
H43   H     H_    0.123542 0.159584 0.579122 0.160256
H44   H     H_    0.120857 0.264217 0.581530 0.164005
H45   H     H_    0.084143 0.320187 0.471865 0.148954
H46   H     H_    0.940885 0.262084 0.364617 0.150779
H47   H     H_    0.942369 0.368267 0.363538 0.175477
H48   H     H_    0.938519 0.164774 0.560664 0.177943
H49   H     H_    0.038113 0.131787 0.632786 0.148745
H50   H     H_    0.031931 0.238346 0.630731 0.178092
H51   H     H_    0.932932 0.273424 0.554592 0.143986
H52   H     H_    0.881407 0.243799 0.402451 0.171350
H53   H     H_    0.243587 0.621069 0.051144 0.148854
H54   H     H_    0.879971 0.352090 0.397579 0.153520
H55   H     H_    0.733001 0.378327 0.579729 0.172514
H56   H     H_    0.766036 0.422486 0.635514 0.179837
H57   H     H_    0.871773 0.408179 0.635694 0.238198
O1    O     O_R   0.591180 0.447260 0.499980 -0.592144
O2    O     O_R   0.947190 0.908860 0.499960 -0.556631
O3    O     O_R   0.113220 0.939420 0.620930 -0.582371
O4    O     O_R   0.007690 0.939530 0.620920 -0.574053
O5    O     O_R   0.052810 0.090990 0.500040 -0.594153
O6    O     O_R   0.947280 0.091100 0.500030 -0.593612
O7    O     O_R   0.992310 0.060320 0.379080 -0.578610
O8    O     O_R   0.886780 0.060430 0.379070 -0.590580
O9    O     O_R   0.035070 0.373890 0.570020 -0.596841
O10   O     O_R   0.965090 0.443800 0.430050 -0.595193
O11   O     O_R   0.943830 0.465050 0.569970 -0.532965
O12   O     O_R   0.591140 0.552730 0.500040 -0.592038
O13   O     O_R   0.873850 0.534970 0.430000 -0.608208
O14   O     O_R   0.034910 0.556200 0.569950 -0.556960
O15   O     O_R   0.964930 0.626120 0.429980 -0.602611
O16   O     O_R   0.126150 0.465040 0.570000 -0.598495
O17   O     O_R   0.056170 0.534950 0.430030 -0.595109
O18   O     O_R   0.439570 0.507730 0.379050 -0.581131
O19   O     O_R   0.439520 0.613200 0.379110 -0.577235
O20   O     O_R   0.408860 0.447270 0.499960 -0.594988
O21   O     O_R   0.408820 0.552740 0.500020 -0.593074
O22   O     O_R   0.560480 0.386800 0.620890 -0.580892
O23   O     O_R   0.560430 0.492270 0.620950 -0.578002
O24   O     O_R   0.052720 0.908740 0.499970 -0.597862
O25   O     O_3   0.394079 0.747578 0.061627 -0.618572
C69   C     C_3   0.407436 0.785981 0.997881 0.040757
H58   H     H_    0.437216 0.825598 0.008252 0.162592
H59   H     H_    0.355877 0.820010 0.933037 0.126150
C70   C     C_3   0.457510 0.730058 0.004361 -0.331619
H60   H     H_    0.510623 0.699335 0.067485 0.225883
H61   H     H_    0.429232 0.688899 0.996163 0.210942
C71   C     C_3   0.475124 0.769158 0.938078 -0.932723
H62   H     H_    0.422845 0.798883 0.874364 0.257213
H63   H     H_    0.511741 0.727125 0.944729 0.256471
H64   H     H_    0.504530 0.809834 0.945865 0.254595
S1    S     S_3+6 0.859027 0.561061 0.602478 -0.036039
O26   O     O_2   0.933592 0.556814 0.613840 -0.278071
O27   O     O_2   0.832897 0.631245 0.593653 -0.331070
O28   O     O_3   0.869379 0.486970 0.688609 -0.535432
H65   H     H_    0.833007 0.505030 0.695853 0.349145
O29   O     O_3   0.886506 0.802281 0.502469 -0.574259
C72   C     C_3   0.807340 0.826384 0.452184 0.091594
H66   H     H_    0.788048 0.794082 0.493435 0.200006
H67   H     H_    0.783519 0.814964 0.402310 0.108458
C73   C     C_3   0.777169 0.909540 0.413839 -0.331801
H68   H     H_    0.799371 0.919345 0.464652 0.236199
H69   H     H_    0.795898 0.943034 0.372357 0.215254
C74   C     C_3   0.692006 0.935864 0.362808 -0.947288
H70   H     H_    0.668553 0.927803 0.310665 0.256229
H71   H     H_    0.671919 0.996182 0.335994 0.260263
H72   H     H_    0.671755 0.904294 0.403246 0.261054

loop_
_geom_bond_atom_site_label_1
_geom_bond_atom_site_label_2
_ccdc_geom_bond_type
C58   C62   S    
C23   O21   A    
C13   H5    S    
C69   H58   S    
Cu5   Cu6   S    
C35   C36   S    
C18   C26   S    
C24   C27   S    
C41   O4    A    
C56   O25   S    
C1    O1    A    
C33   H20   S    
C52   O29   S    
Cu3   O3    S    
C63   C65   S    
C39   H26   S    
C41   C67   S    
C57   H37   S    
C9    H56   S    
C52   C53   S    
Cu2   O12   S    
C51   H39   S    
Cu5   O16   S    
C33   H27   S    
C42   O5    A    
O25   C69   S    
C71   H63   S    
C3    C68   S    
C18   C19   S    
C2    C68   S    
C3    H42   S    
C5    C6    S    
C11   C14   S    
C72   C73   S    
C57   H38   S    
O28   H65   S    
C15   C16   S    
C23   C36   S    
C48   O16   A    
C33   C36   S    
C43   O7    A    
C60   C62   S    
C16   H3    S    
C10   H1    S    
C65   H50   S    
C24   C29   S    
C41   O3    A    
C23   O20   A    
C10   H57   S    
C73   C74   S    
C2    C7    S    
C45   C56   S    
C44   O10   A    
C64   H54   S    
C22   C25   S    
Cu2   O19   S    
C50   H31   S    
C40   O24   A    
C43   O8    A    
S1    O28   S    
C35   H24   S    
C9    C10   S    
C42   C62   S    
C4    C8    S    
C5    H32   S    
C74   H72   S    
C20   C34   S    
C73   H69   S    
C32   H19   S    
C47   O15   A    
C44   O9    A    
Cu2   O23   S    
C13   C14   S    
C55   H35   S    
C42   O6    A    
C61   C62   S    
C49   H30   S    
C19   H9    S    
C47   O14   A    
C60   C64   S    
Cu3   O7    S    
C20   C29   T    
C34   O23   A    
C44   C63   S    
C18   H11   S    
C4    C45   S    
Cu1   O20   S    
C70   C71   S    
C12   O19   A    
C71   H64   S    
Cu2   O21   S    
S1    O27   D    
C17   S1    S    
S1    O26   D    
C61   H49   S    
C51   H34   S    
Cu4   O4    S    
C46   O13   A    
C58   C59   S    
C72   H66   S    
Cu5   O11   S    
C58   H43   S    
Cu1   O22   S    
C74   H70   S    
C58   H41   S    
Cu5   O14   S    
C61   H48   S    
C51   C53   S    
C70   H61   S    
C69   H59   S    
C35   C39   S    
C9    C14   S    
C37   C38   S    
C1    O12   A    
C11   C16   S    
C39   H25   S    
C31   C32   S    
C52   H36   S    
C31   H16   S    
Cu3   O24   S    
C45   C68   S    
C16   H8    S    
C50   C54   S    
C32   C37   S    
C37   C48   S    
C27   H13   S    
C19   C28   S    
C68   H53   S    
C72   H67   S    
C47   C54   S    
C4    C6    S    
Cu4   O6    S    
C55   H40   S    
Cu6   O10   S    
C49   C50   S    
C69   C70   S    
C31   H17   S    
C28   H12   S    
C50   H33   S    
C22   C24   S    
C45   H10   S    
C3    C4    S    
Cu3   O5    S    
O29   C72   S    
C21   C30   T    
C34   O22   A    
Cu6   O17   S    
C15   C17   S    
Cu6   O13   S    
C54   C55   S    
C73   H68   S    
C59   H45   S    
C10   C15   S    
C18   C22   S    
C59   C63   S    
C12   O18   A    
Cu6   O15   S    
C6    C56   S    
C3    C5    S    
C49   H29   S    
C40   C53   S    
C26   C30   S    
C11   H7    S    
Cu5   O9    S    
C9    H55   S    
C25   C27   S    
C40   O2    A    
C26   C28   S    
C33   C38   S    
C13   C17   S    
C11   H2    S    
Cu1   O18   S    
C70   H60   S    
C60   H52   S    
C19   C24   S    
C25   C26   S    
Cu3   Cu4   S    
C37   C39   S    
C2    C56   S    
C7    C66   T    
Cu4   O2    S    
C32   H18   S    
C12   C66   S    
Cu1   O1    S    
C49   C53   S    
C48   O17   A    
C46   O11   A    
C22   H15   S    
C60   H46   S    
C51   C55   S    
C17   H6    S    
C25   H14   S    
Cu1   Cu2   S    
C71   H62   S    
C52   C57   S    
C13   H4    S    
C63   C64   S    
C2    C5    S    
C61   C65   S    
C59   H44   S    
Cu4   O8    S    
C8    C67   T    
C38   H28   S    
C6    H21   S    
C38   H22   S    
C27   C28   S    
C31   C36   S    
C1    C14   S    
C15   C46   S    
C35   H23   S    
C21   C43   S    
C64   H47   S    
C65   H51   S    
C74   H71   S    
C54   C57   S    
