data_mof_unit_58642.cif
_audit_creation_date              2012-12-10T17:52:25-0500
_audit_creation_method            fapswitch 2.2
_symmetry_space_group_name_H-M    P1
_symmetry_Int_Tables_number       1
_space_group_crystal_system       triclinic
_cell_length_a                    19.214771
_cell_length_b                    10.714383
_cell_length_c                    9.886274
_cell_angle_alpha                 89.282163
_cell_angle_beta                  89.846936
_cell_angle_gamma                 91.943372
_cell_volume                      2033.99081759

loop_
_atom_site_label
_atom_site_type_symbol
_atom_type_description
_atom_site_fract_x
_atom_site_fract_y
_atom_site_fract_z
_atom_type_partial_charge
C1    C     C_R   0.503705 0.259643 0.501780 0.865947
C2    C     C_R   0.853156 0.465443 0.509087 0.087887
C3    C     C_R   0.516851 0.107563 0.760035 -0.165013
C4    C     C_R   0.365602 0.498157 0.500197 0.861055
C5    C     C_R   0.496952 0.044786 0.879153 -0.122069
C6    C     C_R   0.460248 0.931146 0.872727 -0.141073
C7    C     C_R   0.449514 0.875023 0.747830 -0.159251
C8    C     C_R   0.475261 0.933138 0.627222 0.100398
C9    C     C_R   0.499270 0.057583 0.631590 0.095350
C10   C     C_R   0.504164 0.125276 0.506831 -0.121631
C11   C     C_R   0.497503 0.063865 0.383208 -0.216091
C12   C     C_R   0.290006 0.489530 0.500478 -0.081934
C13   C     C_R   0.487609 0.936949 0.381172 -0.177923
C14   C     C_R   0.480305 0.870459 0.502546 -0.147869
C15   C     C_R   0.407645 0.337044 0.142775 -0.169906
C16   C     C_R   0.491663 0.738434 0.500075 0.903575
C17   C     C_R   0.362234 0.256923 0.073512 -0.213395
C18   C     C_R   0.362278 0.257102 0.933528 -0.182456
C19   C     C_R   0.407781 0.337333 0.862050 -0.156351
C20   C     C_R   0.454345 0.420080 0.928896 0.149339
C21   C     C_R   0.454290 0.420098 0.073656 0.143342
C22   C     C_R   0.544547 0.575466 0.069104 -0.004398
C23   C     C_R   0.928644 0.457511 0.511641 0.274338
C24   C     C_R   0.544113 0.575299 0.926016 -0.165927
C25   C     C_R   0.634320 0.499269 0.499948 0.880476
C26   C     C_R   0.253250 0.507655 0.620356 -0.205896
C27   C     C_R   0.181371 0.495295 0.621437 -0.237054
C28   C     C_R   0.145006 0.465491 0.502506 -0.012749
C29   C     C_R   0.181703 0.449768 0.380213 0.518270
C30   C     C_R   0.254346 0.458551 0.381609 -0.312894
C31   C     C_2   0.596147 0.657355 0.135936 0.968102
C32   C     C_3   0.154141 0.509833 0.162214 0.069318
C33   C     C_3   0.095052 0.601600 0.173705 -0.346034
C34   C     C_R   0.068999 0.457668 0.507782 0.305023
C35   C     C_3   0.098817 0.699257 0.059993 -0.933816
C36   C     C_R   0.818066 0.510281 0.622120 -0.153321
C37   C     C_R   0.746613 0.522765 0.618248 -0.188645
C38   C     C_R   0.709532 0.491117 0.501141 -0.042978
C39   C     C_R   0.744374 0.446135 0.388103 -0.169063
C40   C     C_R   0.815910 0.433067 0.392123 -0.163911
H1    H     H_    0.279978 0.530743 0.713582 0.166786
H2    H     H_    0.405482 0.330696 0.754868 0.209555
H3    H     H_    0.154270 0.508583 0.716141 0.166620
H4    H     H_    0.579998 0.636324 0.869538 0.159229
H5    H     H_    0.282677 0.439823 0.289616 0.165394
H6    H     H_    0.845684 0.535725 0.713607 0.155431
H7    H     H_    0.720449 0.557400 0.706728 0.163156
H8    H     H_    0.716297 0.419212 0.297622 0.191614
H9    H     H_    0.841967 0.398793 0.303421 0.156343
H10   H     H_    0.500853 0.113433 0.287043 0.175629
H11   H     H_    0.695294 0.682438 0.198625 0.340264
H12   H     H_    0.547828 0.192639 0.771426 0.174628
H13   H     H_    0.150403 0.463957 0.062199 0.174460
H14   H     H_    0.205469 0.561507 0.163260 0.122238
H15   H     H_    0.044098 0.549609 0.168686 0.248043
H16   H     H_    0.098477 0.649715 0.272518 0.215869
H17   H     H_    0.148929 0.753886 0.064247 0.261850
H18   H     H_    0.055452 0.764293 0.071160 0.274289
H19   H     H_    0.094121 0.653489 0.960044 0.266276
H20   H     H_    0.508943 0.085571 0.976371 0.148901
H21   H     H_    0.442100 0.884538 0.964663 0.143935
H22   H     H_    0.420575 0.786648 0.746576 0.158310
H23   H     H_    0.487127 0.890934 0.284354 0.208106
H24   H     H_    0.404714 0.330535 0.250060 0.206686
H25   H     H_    0.326969 0.193999 0.129002 0.159705
H26   H     H_    0.327203 0.194077 0.879804 0.157432
N1    N     N_R   0.031633 0.398246 0.410417 -0.110099
N2    N     N_R   0.962591 0.398445 0.412028 -0.181983
N3    N     N_R   0.965948 0.514474 0.610660 -0.178068
N4    N     N_R   0.034907 0.514572 0.608720 -0.188937
N5    N     N_R   0.499340 0.498800 0.142780 -0.165497
N6    N     N_R   0.499320 0.498720 0.857170 -0.131125
O1    O     O_R   0.500000 0.316780 0.614690 -0.651550
O2    O     O_R   0.663979 0.617353 0.153525 -0.819853
O3    O     O_3   0.147045 0.414937 0.262972 -0.637285
O4    O     O_R   0.499990 0.316750 0.385360 -0.641207
O5    O     O_R   0.398140 0.500000 0.614700 -0.648907
O6    O     O_R   0.398130 0.499970 0.385370 -0.644757
O7    O     O_R   0.500010 0.683250 0.614640 -0.625450
O8    O     O_R   0.500000 0.683220 0.385310 -0.591329
O9    O     O_R   0.601870 0.500030 0.614630 -0.619817
O10   O     O_R   0.601860 0.500000 0.385300 -0.595496
O11   O     O_2   0.580965 0.762807 0.167566 -0.655171
Zn1   Zn    Zn3+2 0.500000 0.500020 0.653130 0.925196
Zn2   Zn    Zn3+2 0.500000 0.499980 0.346870 0.959812

loop_
_geom_bond_atom_site_label_1
_geom_bond_atom_site_label_2
_ccdc_geom_bond_type
C33   H15   S    
C23   N3    A    
C30   H5    S    
C19   C20   A    
H11   O2    S    
C32   O3    S    
C32   H13   S    
C7    C8    A    
C26   C27   A    
C29   C30   A    
C21   N5    A    
C35   H18   S    
C5    C6    A    
C6    H21   S    
C28   C29   A    
O7    Zn1   S    
C40   H9    S    
C31   O11   D    
C35   H19   S    
C18   C19   A    
N5    Zn2   S    
C8    C9    A    
C15   H24   S    
C36   H6    S    
C4    C12   S    
C9    C10   A    
C34   N4    A    
O1    Zn1   S    
C19   H2    S    
C33   H16   S    
C28   C34   S    
C13   C14   A    
C25   O9    A    
O8    Zn2   S    
C32   H14   S    
C22   C31   S    
N1    N2    A    
C39   C40   A    
C31   O2    S    
O5    Zn1   S    
C12   C26   A    
C16   O8    A    
C23   N2    A    
C7    H22   S    
C4    O6    A    
C37   C38   A    
C3    C9    A    
C2    C40   A    
C25   C38   S    
C13   H23   S    
C17   C18   A    
N6    Zn1   S    
O6    Zn2   S    
C25   O10   A    
C24   H4    S    
C22   C24   A    
C37   H7    S    
C22   N5    A    
C2    C23   S    
O9    Zn1   S    
C24   N6    A    
C2    C36   A    
C15   C17   A    
C36   C37   A    
C8    C14   A    
C5    H20   S    
C12   C30   A    
C1    O4    A    
C1    C10   S    
C3    C5    A    
C34   N1    A    
C3    H12   S    
C6    C7    A    
C29   O3    S    
C18   H26   S    
O10   Zn2   S    
C17   H25   S    
C35   H17   S    
C16   O7    A    
C1    O1    A    
C32   C33   S    
C4    O5    A    
C11   H10   S    
C11   C13   A    
C38   C39   A    
C33   C35   S    
C14   C16   S    
N3    N4    A    
C10   C11   A    
C27   H3    S    
C15   C21   A    
C20   C21   A    
C27   C28   A    
C20   N6    A    
O4    Zn2   S    
C26   H1    S    
C39   H8    S    
