data_mof_unit_57881.cif
_audit_creation_date              2012-12-10T17:26:14-0500
_audit_creation_method            fapswitch 2.2
_symmetry_space_group_name_H-M    P1
_symmetry_Int_Tables_number       1
_space_group_crystal_system       triclinic
_cell_length_a                    10.169687
_cell_length_b                    10.766244
_cell_length_c                    27.769301
_cell_angle_alpha                 90.236923
_cell_angle_beta                  79.636833
_cell_angle_gamma                 95.119846
_cell_volume                      2978.69121041

loop_
_atom_site_label
_atom_site_type_symbol
_atom_type_description
_atom_site_fract_x
_atom_site_fract_y
_atom_site_fract_z
_atom_type_partial_charge
C1    C     C_R   0.555890 0.732829 0.498394 0.941196
C2    C     C_R   0.512766 0.608652 0.126237 0.006727
C3    C     C_R   0.492768 0.497109 0.647436 -0.168199
C4    C     C_R   0.506635 0.502038 0.352567 -0.171761
C5    C     C_R   0.494657 0.610482 0.026422 0.088908
C6    C     C_R   0.480892 0.383618 0.975121 0.108595
C7    C     C_R   0.502228 0.381979 0.024402 -0.053621
C8    C     C_R   0.474010 0.611457 0.977309 -0.121852
C9    C     C_R   0.501895 0.495477 0.050377 0.018914
C10   C     C_R   0.478390 0.499348 0.950901 0.019564
C11   C     C_R   0.518645 0.722330 0.051393 -0.219018
C12   C     C_R   0.443916 0.267177 0.504871 0.937347
C13   C     C_R   0.454564 0.273186 0.949587 -0.130503
C14   C     C_R   0.522549 0.721545 0.100873 -0.152677
C15   C     C_R   0.455900 0.275511 0.899728 -0.163531
C16   C     C_R   0.497946 0.498662 0.594194 0.929615
C17   C     C_R   0.501971 0.501128 0.405801 0.938221
C18   C     C_R   0.444231 0.720361 0.953912 0.409015
C19   C     C_R   0.534014 0.273077 0.047445 0.402692
C20   C     C_2   0.587265 0.864902 0.502920 -0.359837
C21   C     C_2   0.411801 0.135167 0.513097 -0.352072
C22   C     C_2   0.487025 0.933720 0.520050 -0.145016
C23   C     C_R   0.476927 0.502052 0.900034 -0.095257
C24   C     C_2   0.510750 0.066487 0.518606 -0.140043
C25   C     C_2   0.926214 0.508632 0.503904 -0.025649
C26   C     C_2   0.073769 0.491341 0.496112 -0.023366
C27   C     C_R   0.491046 0.613801 0.823336 0.540201
C28   C     C_R   0.506212 0.385142 0.176831 0.538627
C29   C     C_R   0.481176 0.391366 0.823768 0.519456
C30   C     C_R   0.511047 0.607078 0.176504 0.511510
C31   C     C_R   0.367266 0.486860 0.731269 0.083481
C32   C     C_R   0.630828 0.511040 0.268509 0.084624
C33   C     C_R   0.368515 0.481805 0.680221 0.423413
C34   C     C_R   0.510148 0.495060 0.100672 -0.099027
C35   C     C_R   0.630582 0.515457 0.319536 0.424437
C36   C     C_R   0.613496 0.511193 0.665234 -0.305279
C37   C     C_R   0.385445 0.489063 0.335053 -0.304877
C38   C     C_R   0.613606 0.512510 0.715308 0.205908
C39   C     C_R   0.384424 0.487446 0.285062 0.208592
C40   C     C_R   0.490706 0.501421 0.748203 0.277433
C41   C     C_R   0.506861 0.497545 0.251917 0.275906
C42   C     C_3   0.112008 0.639580 0.557442 -0.600040
C43   C     C_3   0.888032 0.360457 0.442550 -0.596989
C44   C     C_3   0.744859 0.526044 0.733616 -0.844020
C45   C     C_R   0.479750 0.616996 0.874910 -0.127857
C46   C     C_3   0.252620 0.474683 0.267111 -0.846534
C47   C     C_3   0.453418 0.853107 0.879114 -0.669268
C48   C     C_3   0.598633 0.163982 0.119402 -0.758488
C49   C     C_3   0.761879 0.519763 0.232104 -0.875663
C50   C     C_3   0.235569 0.478469 0.767308 -0.866081
C51   C     C_R   0.517708 0.382265 0.125381 -0.102594
C52   C     C_R   0.462379 0.727797 0.902582 0.151100
C53   C     C_R   0.543407 0.273394 0.097701 0.102559
C54   C     C_R   0.473320 0.388916 0.874298 -0.000669
H1    H     H_    0.708391 0.522024 0.639941 0.185747
H2    H     H_    0.427719 0.183579 0.967488 0.199176
H3    H     H_    0.613114 0.107175 0.517643 0.190493
H4    H     H_    0.384108 0.893086 0.531130 0.187136
H5    H     H_    0.198946 0.679357 0.573280 0.241038
H6    H     H_    0.069030 0.717675 0.541408 0.172151
H7    H     H_    0.037551 0.592351 0.587488 0.193038
H8    H     H_    0.801118 0.320693 0.426699 0.246241
H9    H     H_    0.962504 0.407715 0.412516 0.192160
H10   H     H_    0.931004 0.282354 0.458582 0.171097
H11   H     H_    0.832273 0.532463 0.703032 0.230548
H12   H     H_    0.290804 0.479309 0.360512 0.186143
H13   H     H_    0.750959 0.611940 0.755645 0.255064
H14   H     H_    0.752240 0.444036 0.756775 0.248750
H15   H     H_    0.165670 0.468506 0.297874 0.230383
H16   H     H_    0.245187 0.556895 0.244071 0.248166
H17   H     H_    0.245625 0.388913 0.245060 0.255236
H18   H     H_    0.439111 0.929669 0.905872 0.249007
H19   H     H_    0.548656 0.881525 0.853734 0.251430
H20   H     H_    0.367252 0.847818 0.859437 0.249924
H21   H     H_    0.657912 0.107633 0.091412 0.231977
H22   H     H_    0.670905 0.197764 0.143169 0.261494
H23   H     H_    0.309804 0.093988 0.513882 0.152636
H24   H     H_    0.515182 0.102186 0.140607 0.261415
H25   H     H_    0.827078 0.550774 0.312490 0.343022
H26   H     H_    0.173565 0.437730 0.686765 0.342946
H27   H     H_    0.823782 0.444960 0.239932 0.241789
H28   H     H_    0.748906 0.508615 0.193538 0.243664
H29   H     H_    0.817483 0.612393 0.234685 0.246517
H30   H     H_    0.172502 0.551081 0.758324 0.243935
H31   H     H_    0.181676 0.384656 0.765629 0.244960
H32   H     H_    0.247543 0.493417 0.805810 0.243932
H33   H     H_    0.323672 0.778249 0.009725 0.340441
H34   H     H_    0.689839 0.906026 0.491725 0.154198
H35   H     H_    0.525396 0.095604 0.037230 0.336175
H36   H     H_    0.114868 0.425557 0.469134 0.137225
H37   H     H_    0.885110 0.574398 0.530889 0.137963
H38   H     H_    0.534596 0.810044 0.119032 0.188403
H39   H     H_    0.441474 0.187731 0.881306 0.190329
H40   H     H_    0.536371 0.812160 0.033111 0.201137
N1    N     N_R   0.491157 0.502447 0.799620 -0.337238
N2    N     N_R   0.505274 0.496345 0.200599 -0.338893
N3    N     N_2   0.842700 0.448890 0.480020 -0.056750
N4    N     N_2   0.157300 0.551110 0.519980 -0.054773
O1    O     O_R   0.431060 0.692470 0.504020 -0.615816
O2    O     O_2   0.493290 0.278676 0.203354 -0.554526
O3    O     O_2   0.514367 0.714998 0.201390 -0.552378
O4    O     O_2   0.478469 0.283718 0.798677 -0.552015
O5    O     O_3   0.747832 0.533429 0.338552 -0.750311
O6    O     O_3   0.251786 0.462002 0.660986 -0.749987
O7    O     O_3   0.383499 0.815545 0.980185 -0.795133
O8    O     O_3   0.571423 0.171660 0.019498 -0.775170
O9    O     O_R   0.568940 0.307530 0.495980 -0.618304
O10   O     O_R   0.651120 0.659650 0.491200 -0.611766
O11   O     O_R   0.348880 0.340350 0.508800 -0.612161
O12   O     O_R   0.389980 0.516390 0.577660 -0.546604
O13   O     O_R   0.610020 0.483610 0.422340 -0.543186
O14   O     O_R   0.610040 0.483570 0.564830 -0.643393
O15   O     O_R   0.389960 0.516430 0.435170 -0.639651
O16   O     O_2   0.500496 0.719425 0.796595 -0.563070
Zn1   Zn    Zn3+2 0.353060 0.521910 0.508560 0.978644
Zn2   Zn    Zn3+2 0.646940 0.478090 0.491440 0.977136

loop_
_geom_bond_atom_site_label_1
_geom_bond_atom_site_label_2
_ccdc_geom_bond_type
C16   O12   A    
C23   C45   A    
C33   O6    S    
C48   H22   S    
C27   N1    A    
C27   O16   S    
C1    O1    A    
C50   H30   S    
C39   C41   A    
C5    C9    A    
C34   C51   A    
H26   O6    S    
C5    C11   A    
C35   O5    S    
C42   N4    S    
O1    Zn1   S    
C28   C51   A    
C32   C49   S    
C41   N2    S    
C29   C54   A    
C3    C33   A    
C49   H27   S    
C31   C40   A    
C48   H24   S    
C46   H15   S    
C30   N2    A    
C50   H31   S    
C24   H3    S    
H35   O8    S    
C32   C41   A    
C31   C33   A    
O13   Zn2   S    
C13   H2    S    
C28   O2    S    
C19   C53   A    
C4    C35   A    
C48   H21   S    
H25   O5    S    
C44   H11   S    
C17   O13   A    
C12   O11   A    
C43   H10   S    
C6    C7    A    
C48   C53   S    
C47   H18   S    
C25   H37   S    
C18   C52   A    
C32   C35   A    
C49   H29   S    
C47   H19   S    
C42   H6    S    
C29   N1    A    
O11   Zn1   S    
C45   C52   A    
C25   C26   S    
C12   C21   S    
C8    C18   A    
C51   C53   A    
C49   H28   S    
C15   C54   A    
C38   C44   S    
C5    C8    A    
H33   O7    S    
C37   H12   S    
N3    Zn2   S    
C42   H7    S    
C14   H38   S    
C46   H17   S    
C17   O15   A    
C26   N4    D    
C39   C46   S    
C4    C17   S    
C11   H40   S    
C25   N3    D    
C20   C22   D    
C7    C19   A    
C13   C15   A    
C9    C34   A    
C22   C24   S    
C44   H14   S    
C31   C50   S    
O14   Zn2   S    
C16   O14   A    
C23   C54   A    
C22   H4    S    
C7    C9    A    
C1    C20   S    
C2    C34   A    
C43   N3    S    
C47   H20   S    
C42   H5    S    
C15   H39   S    
C12   O9    A    
C47   C52   S    
C10   C23   A    
C26   H36   S    
C2    C30   A    
C28   N2    A    
O10   Zn2   S    
C36   C38   A    
C18   O7    S    
C37   C39   A    
C36   H1    S    
C6    C13   A    
C38   C40   A    
C27   C45   A    
N4    Zn1   S    
C3    C36   A    
C20   H34   S    
C30   O3    S    
C11   C14   A    
C29   O4    S    
C2    C14   A    
O9    Zn2   S    
C46   H16   S    
C6    C10   A    
C50   H32   S    
C1    O10   A    
C19   O8    S    
C4    C37   A    
C8    C10   A    
C43   H9    S    
C21   C24   D    
C21   H23   S    
C44   H13   S    
C40   N1    S    
O12   Zn1   S    
C3    C16   S    
C43   H8    S    
O15   Zn1   S    
