data_mof_unit_35862.cif
_audit_creation_date              2012-12-10T20:02:18-0500
_audit_creation_method            fapswitch 2.2
_symmetry_space_group_name_H-M    P1
_symmetry_Int_Tables_number       1
_space_group_crystal_system       triclinic
_cell_length_a                    10.664778
_cell_length_b                    14.939378
_cell_length_c                    14.145871
_cell_angle_alpha                 90.246369
_cell_angle_beta                  90.088967
_cell_angle_gamma                 89.821182
_cell_volume                      2253.75853408

loop_
_atom_site_label
_atom_site_type_symbol
_atom_type_description
_atom_site_fract_x
_atom_site_fract_y
_atom_site_fract_z
_atom_type_partial_charge
C1    C     C_R   0.492191 0.327863 0.499835 0.902846
C2    C     C_R   0.503189 0.672227 0.500145 0.905367
C3    C     C_R   0.872372 0.497956 0.500569 -0.063384
C4    C     C_R   0.127895 0.503504 0.499581 -0.062127
C5    C     C_R   0.939226 0.443955 0.564498 0.068163
C6    C     C_R   0.061602 0.557453 0.435425 0.063152
C7    C     C_R   0.403088 0.095621 0.423917 0.473621
C8    C     C_R   0.559954 0.909760 0.430354 0.459329
C9    C     C_R   0.406011 0.188698 0.426287 0.436609
C10   C     C_R   0.574064 0.817301 0.434032 0.421186
C11   C     C_R   0.472220 0.232359 0.500095 -0.242104
C12   C     C_R   0.503158 0.768292 0.500402 -0.261932
C13   C     C_R   0.520927 0.183760 0.575814 -0.226614
C14   C     C_R   0.423898 0.811392 0.564567 -0.179798
C15   C     C_R   0.516977 0.091852 0.574180 -0.182894
C16   C     C_R   0.410123 0.902860 0.561219 -0.175175
C17   C     C_R   0.462622 0.047798 0.497412 -0.105528
C18   C     C_R   0.476312 0.951900 0.494292 -0.137734
C19   C     C_R   0.413690 0.443348 0.105993 0.379089
C20   C     C_R   0.474152 0.580474 0.895544 0.393184
C21   C     C_R   0.420308 0.444259 0.205469 0.018461
C22   C     C_R   0.476282 0.577778 0.795305 -0.087124
C23   C     C_R   0.260160 0.502148 0.499850 0.881628
C24   C     C_R   0.739977 0.498084 0.500158 0.882215
C25   C     C_R   0.576440 0.556064 0.203702 -0.000679
C26   C     C_R   0.522111 0.423003 0.796195 0.010039
C27   C     C_R   0.575161 0.557070 0.104365 -0.182044
C28   C     C_R   0.521440 0.422274 0.895543 -0.318198
C29   C     C_R   0.494068 0.500410 0.053354 0.019346
C30   C     C_R   0.496590 0.501208 0.946798 0.076628
C31   C     C_R   0.240685 0.759072 0.345970 -0.220837
C32   C     C_R   0.819988 0.223022 0.657954 -0.259562
C33   C     C_R   0.171791 0.703393 0.405427 0.429873
C34   C     C_R   0.860969 0.288472 0.595158 0.425282
C35   C     C_R   0.125561 0.620356 0.370261 -0.090024
C36   C     C_R   0.879432 0.377715 0.627988 -0.104936
C37   C     C_R   0.146922 0.596542 0.273971 -0.130534
C38   C     C_R   0.852413 0.399598 0.724088 -0.112926
C39   C     C_R   0.216040 0.654829 0.216414 -0.169629
C40   C     C_R   0.809980 0.331618 0.784523 -0.202996
C41   C     C_R   0.264117 0.734992 0.251737 0.447603
C42   C     C_R   0.793646 0.244078 0.752491 0.400359
C43   C     C_R   0.932622 0.554206 0.436611 -0.193408
C44   C     C_R   0.067839 0.447649 0.563412 -0.181771
H1    H     H_    0.560697 0.054735 0.631170 0.176340
H2    H     H_    0.347374 0.935756 0.610680 0.191598
H3    H     H_    0.359124 0.401196 0.245670 0.189789
H4    H     H_    0.457750 0.638054 0.755632 0.136017
H5    H     H_    0.639004 0.600159 0.241956 0.167312
H6    H     H_    0.540606 0.361514 0.758152 0.152499
H7    H     H_    0.638246 0.601460 0.067379 0.198091
H8    H     H_    0.540049 0.360199 0.932329 0.202343
H9    H     H_    0.276433 0.821649 0.373773 0.152683
H10   H     H_    0.807484 0.155176 0.632345 0.175320
H11   H     H_    0.235520 0.637288 0.143480 0.223067
H12   H     H_    0.788942 0.346140 0.857881 0.221475
H13   H     H_    0.879291 0.596376 0.388806 0.151424
H14   H     H_    0.121385 0.405083 0.610757 0.156948
H15   H     H_    0.565934 0.216836 0.634900 0.183632
H16   H     H_    0.369528 0.773870 0.615448 0.201055
N1    N     N_R   0.500000 0.499980 0.252470 -0.145981
N2    N     N_R   0.500000 0.500020 0.747530 -0.107694
O1    O     O_R   0.500010 0.369070 0.579480 -0.637014
O2    O     O_R   0.499990 0.630930 0.420520 -0.614428
O3    O     O_R   0.500010 0.369060 0.420520 -0.598255
O4    O     O_R   0.499990 0.630940 0.579480 -0.619901
O5    O     O_R   0.316760 0.500010 0.579480 -0.614665
O6    O     O_R   0.683240 0.499990 0.420520 -0.622773
O7    O     O_R   0.316760 0.500000 0.420520 -0.625662
O8    O     O_R   0.683240 0.500000 0.579480 -0.602057
Zn1   Zn    Zn3+2 0.500000 0.500010 0.606140 0.967984
Zn2   Zn    Zn3+2 0.500000 0.499990 0.393860 0.978189
O9    O     O_3   0.333709 0.788352 0.192381 -0.694696
H17   H     H_    0.362299 0.841827 0.228106 0.352656
O10   O     O_3   0.750982 0.180698 0.815237 -0.730105
H18   H     H_    0.742889 0.122575 0.781658 0.337453
O11   O     O_3   0.326207 0.387626 0.064583 -0.725449
H19   H     H_    0.313469 0.405223 0.997950 0.350508
O12   O     O_3   0.447692 0.658650 0.944061 -0.737919
H20   H     H_    0.434068 0.707454 0.897845 0.341593
O13   O     O_3   0.153205 0.732975 0.497109 -0.764647
H21   H     H_    0.095242 0.692696 0.530735 0.350812
O14   O     O_3   0.883768 0.261230 0.503201 -0.726523
H22   H     H_    0.901870 0.313395 0.462821 0.354552
C45   C     C_2   0.101604 0.511192 0.230868 0.945973
O15   O     O_2   0.074519 0.447039 0.280073 -0.601605
O16   O     O_R   0.092036 0.503745 0.132493 -0.785213
H23   H     H_    0.061217 0.442738 0.111266 0.377886
C46   C     C_2   0.865911 0.491828 0.764495 0.973351
O17   O     O_2   0.905559 0.553511 0.716692 -0.614790
O18   O     O_R   0.831538 0.508446 0.858418 -0.813221
H24   H     H_    0.843223 0.573351 0.877638 0.355831
O19   O     O_3   0.341270 0.054630 0.349452 -0.674130
H25   H     H_    0.334939 0.989539 0.360825 0.327228
O20   O     O_3   0.632291 0.955800 0.365693 -0.671632
H26   H     H_    0.625001 0.021008 0.376296 0.348050
O21   O     O_3   0.341465 0.234282 0.356748 -0.671480
H27   H     H_    0.309200 0.290964 0.384096 0.331502
O22   O     O_3   0.660062 0.778010 0.373596 -0.692311
H28   H     H_    0.689225 0.720719 0.400926 0.316968

loop_
_geom_bond_atom_site_label_1
_geom_bond_atom_site_label_2
_ccdc_geom_bond_type
C22   H4    S    
O16   H23   S    
O19   H25   S    
C27   C29   A    
C40   H12   S    
O9    H17   S    
C23   O7    A    
O20   H26   S    
C1    C11   S    
C2    C12   S    
O21   H27   S    
C24   O8    A    
C39   C41   A    
C20   C30   A    
C45   O15   D    
C38   C46   S    
C3    C43   A    
C42   O10   S    
C37   C45   S    
C35   C37   A    
C26   H6    S    
C5    C36   S    
C11   C13   A    
C6    C35   S    
C15   C17   A    
C23   O5    A    
C19   O11   S    
C33   C35   A    
C39   H11   S    
O14   H22   S    
C44   H14   S    
C7    C17   A    
C1    O3    A    
C31   C33   A    
O8    Zn1   S    
C46   O18   S    
C21   N1    A    
C40   C42   A    
C3    C24   S    
C8    O20   S    
C1    O1    A    
C32   H10   S    
C2    O2    A    
O13   H21   S    
C45   O16   S    
C7    O19   S    
C4    C6    A    
C16   H2    S    
O18   H24   S    
C4    C23   S    
C43   H13   S    
C4    C44   A    
C3    C5    A    
O11   H19   S    
C8    C18   A    
C32   C34   A    
O7    Zn2   S    
O10   H18   S    
C29   C30   S    
C22   N2    A    
O4    Zn1   S    
O6    Zn2   S    
C17   C18   S    
C25   N1    A    
C31   H9    S    
C9    C11   A    
O1    Zn1   S    
C10   C12   A    
N1    Zn2   S    
C16   C18   A    
C5    C44   A    
C20   C22   A    
C6    C43   A    
C13   C15   A    
C14   C16   A    
C34   O14   S    
C15   H1    S    
C19   C29   A    
C7    C9    A    
C9    O21   S    
C31   C41   A    
C20   O12   S    
C19   C21   A    
C12   C14   A    
C2    O4    A    
C13   H15   S    
C25   C27   A    
O3    Zn2   S    
C14   H16   S    
C26   C28   A    
O22   H28   S    
C28   C30   A    
C26   N2    A    
C37   C39   A    
C38   C40   A    
C28   H8    S    
C36   C38   A    
C27   H7    S    
C34   C36   A    
N2    Zn1   S    
O5    Zn1   S    
O2    Zn2   S    
C10   O22   S    
C25   H5    S    
C24   O6    A    
C41   O9    S    
O12   H20   S    
C8    C10   A    
C32   C42   A    
C46   O17   D    
C33   O13   S    
C21   H3    S    
