data_mof_unit_40780.cif
_audit_creation_date              2013-03-05T15:52:10-0500
_audit_creation_method            fapswitch 2.2
_symmetry_space_group_name_H-M    P1
_symmetry_Int_Tables_number       1
_space_group_crystal_system       triclinic
_cell_length_a                    11.32904
_cell_length_b                    11.375347
_cell_length_c                    18.904804
_cell_angle_alpha                 89.23985
_cell_angle_beta                  89.850307
_cell_angle_gamma                 119.586929
_cell_volume                      2118.31688235

loop_
_atom_site_label
_atom_site_type_symbol
_atom_site_description
_atom_site_fract_x
_atom_site_fract_y
_atom_site_fract_z
_atom_type_partial_charge
O1    O     O_R   0.911480 0.572650 0.170990 -0.492083
O2    O     O_R   0.427350 0.338830 0.170990 -0.495741
O3    O     O_R   0.661170 0.088520 0.170990 -0.457648
O4    O     O_R   0.572650 0.911480 0.829010 -0.508454
O5    O     O_R   0.338830 0.427350 0.829010 -0.456856
O6    O     O_R   0.088520 0.661170 0.829010 -0.458611
O7    O     O_R   0.640340 0.528970 0.175680 -0.479130
O8    O     O_R   0.471030 0.111370 0.175680 -0.471903
O9    O     O_R   0.888630 0.359660 0.175680 -0.473332
O10   O     O_R   0.528970 0.640340 0.824320 -0.403273
O11   O     O_R   0.111370 0.471030 0.824320 -0.449120
O12   O     O_R   0.359660 0.888630 0.824320 -0.490495
C1    C     C_R   0.517056 0.450062 0.146773 0.550622
C2    C     C_R   0.557830 0.079848 0.143494 0.575143
C3    C     C_R   0.936116 0.485319 0.148196 0.564884
C4    C     C_R   0.420373 0.541514 0.859196 0.541480
C5    C     C_R   0.118611 0.577136 0.859527 0.541086
C6    C     C_R   0.480394 0.934817 0.852105 0.571529
O13   O     O_R   0.909980 0.572450 0.331530 -0.479312
O14   O     O_R   0.427550 0.337530 0.331530 -0.473528
O15   O     O_R   0.662470 0.090020 0.331530 -0.480699
O16   O     O_R   0.572450 0.909980 0.668470 -0.501255
O17   O     O_R   0.337530 0.427550 0.668470 -0.457736
O18   O     O_R   0.090020 0.662470 0.668470 -0.429003
O19   O     O_R   0.638950 0.528780 0.324500 -0.493239
O20   O     O_R   0.471220 0.110170 0.324500 -0.476471
O21   O     O_R   0.889830 0.361050 0.324500 -0.495783
O22   O     O_R   0.528780 0.638950 0.675500 -0.453344
O23   O     O_R   0.110170 0.471220 0.675500 -0.464700
O24   O     O_R   0.361050 0.889830 0.675500 -0.508738
C7    C     C_R   0.518116 0.455426 0.353063 0.548286
C8    C     C_R   0.544728 0.064322 0.353834 0.569543
C9    C     C_R   0.937439 0.480141 0.353030 0.558016
C10   C     C_R   0.427422 0.544024 0.639092 0.535792
C11   C     C_R   0.118788 0.575488 0.638840 0.541662
C12   C     C_R   0.478783 0.933147 0.645590 0.588573
Cr1   Cr    Cr6+3 0.769160 0.541570 0.250690 1.173048
Cr2   Cr    Cr6+3 0.458430 0.227590 0.250690 1.188626
Cr3   Cr    Cr6+3 0.772410 0.230840 0.250690 1.191810
Cr4   Cr    Cr6+3 0.541570 0.769160 0.749310 1.151832
Cr5   Cr    Cr6+3 0.227590 0.458430 0.749310 1.137757
Cr6   Cr    Cr6+3 0.230840 0.772410 0.749310 1.130914
O25   O     O_3   0.666667 0.333333 0.250560 -0.358645
O26   O     O_3   0.333333 0.666667 0.749440 -0.430451
C13   C     C_R   0.509271 0.991012 0.922687 0.073584
C14   C     C_R   0.082992 0.566987 0.935068 0.023510
C15   C     C_R   0.425086 0.519223 0.935732 0.025670
C16   C     C_R   0.007709 0.535517 0.079834 0.060030
C17   C     C_R   0.544617 0.027897 0.070846 0.057270
C18   C     C_R   0.464757 0.472698 0.079434 0.042236
C19   C     C_R   0.399601 0.955787 0.968205 -0.043805
C20   C     C_R   0.084751 0.466795 0.976923 -0.059277
C21   C     C_R   0.506007 0.623331 0.980762 -0.052816
C22   C     C_R   0.046389 0.456036 0.047297 0.040809
C23   C     C_R   0.425661 0.985253 0.038734 0.031247
C24   C     C_R   0.528295 0.594687 0.048251 0.016982
C25   C     C_R   0.652512 0.039267 0.027044 -0.067472
C26   C     C_R   0.008486 0.641986 0.038928 -0.007522
C27   C     C_R   0.352174 0.371305 0.041043 -0.008429
C28   C     C_R   0.043324 0.656339 0.967108 -0.026816
C29   C     C_R   0.639087 0.033534 0.952882 -0.030053
C30   C     C_R   0.333670 0.392807 0.969412 -0.026973
C31   C     C_3   0.314350 0.022984 0.974666 0.038852
C32   C     C_3   0.980007 0.319245 0.975079 0.011257
C33   C     C_3   0.649567 0.734781 0.980119 0.070069
C34   C     C_3   0.964375 0.312949 0.055313 0.048059
C35   C     C_3   0.335436 0.033757 0.054355 0.059374
C36   C     C_3   0.664416 0.699155 0.057128 0.087847
H1    H     H_    0.207991 0.968613 0.962984 0.128521
H2    H     H_    0.006461 0.245961 0.956308 0.136577
H3    H     H_    0.652098 0.828846 0.971289 0.098556
H4    H     H_    0.856414 0.274389 0.068772 0.151371
H5    H     H_    0.390204 0.139027 0.072068 0.146852
H6    H     H_    0.729104 0.653224 0.064491 0.143516
C37   C     C_R   0.492232 0.972810 0.571782 0.083094
C38   C     C_R   0.089496 0.554875 0.562997 0.040592
C39   C     C_R   0.451057 0.536915 0.563663 0.031761
C40   C     C_R   0.015911 0.511243 0.418448 0.027539
C41   C     C_R   0.505828 0.999729 0.423418 0.032419
C42   C     C_R   0.484072 0.499650 0.418839 0.013010
C43   C     C_R   0.590294 0.962562 0.532887 -0.064830
C44   C     C_R   0.091383 0.657393 0.520357 -0.059497
C45   C     C_R   0.354616 0.426314 0.527470 -0.059173
C46   C     C_R   0.054124 0.633570 0.450867 0.021234
C47   C     C_R   0.596070 0.971722 0.460561 -0.018722
C48   C     C_R   0.366002 0.410667 0.456219 0.014891
C49   C     C_R   0.396308 0.994944 0.461170 -0.134062
C50   C     C_R   0.036778 0.416553 0.456479 -0.111732
C51   C     C_R   0.577551 0.618885 0.452455 -0.103730
C52   C     C_R   0.073611 0.438213 0.528439 -0.091518
C53   C     C_R   0.389920 0.981760 0.535096 -0.122637
C54   C     C_R   0.560119 0.639189 0.524468 -0.091844
C55   C     C_3   0.739982 0.034628 0.542122 0.097278
C56   C     C_3   0.032925 0.751615 0.525466 0.089705
C57   C     C_3   0.297014 0.279494 0.544543 0.081418
C58   C     C_3   0.996791 0.725892 0.447345 0.125341
C59   C     C_3   0.748601 0.041444 0.461437 0.122778
C60   C     C_3   0.300015 0.260449 0.465125 0.090135
H7    H     H_    0.322499 0.012487 0.434627 0.186378
H8    H     H_    0.014968 0.322831 0.432391 0.195870
H9    H     H_    0.668032 0.689318 0.424171 0.212019
H10   H     H_    0.080968 0.360039 0.557754 0.174212
H11   H     H_    0.310177 0.985545 0.564086 0.166336
H12   H     H_    0.635612 0.728876 0.550374 0.181384
H13   H     H_    0.775346 0.971225 0.569916 0.191471
H14   H     H_    0.105966 0.858287 0.536008 0.128266
H15   H     H_    0.196123 0.234445 0.571080 0.174502
H16   H     H_    0.885917 0.675666 0.437104 0.172641
H17   H     H_    0.800146 0.145304 0.438562 0.156506
H18   H     H_    0.364963 0.218989 0.447631 0.138021
C61   C     C_1   0.766273 0.027203 0.051307 0.252421
N1    N     N_1   0.858039 0.011328 0.061498 -0.169447
C62   C     C_1   0.977280 0.740562 0.068440 0.284073
N2    N     N_1   0.957677 0.822994 0.091480 -0.141046
C63   C     C_1   0.251256 0.243595 0.070426 0.280935
N3    N     N_1   0.163799 0.141062 0.090242 -0.132297
C64   C     C_1   0.027650 0.757497 0.926777 0.289733
N4    N     N_1   0.018544 0.838212 0.893011 -0.146785
C65   C     C_1   0.754848 0.048682 0.910012 0.300491
N5    N     N_1   0.844258 0.058116 0.875836 -0.153341
C66   C     C_1   0.230138 0.277013 0.931018 0.270189
N6    N     N_1   0.151175 0.184501 0.899849 -0.196985
N7    N     N_R   0.385921 0.151481 0.934718 0.050048
O27   O     O_R   0.494520 0.252961 0.960347 -0.301594
O28   O     O_R   0.369839 0.148341 0.866466 -0.230938
N8    N     N_R   0.860938 0.312116 0.938000 0.046891
O29   O     O_R   0.776296 0.339498 0.970830 -0.308527
O30   O     O_R   0.859593 0.313876 0.869156 -0.222157
N9    N     N_R   0.730200 0.708558 0.929019 0.063801
O31   O     O_R   0.731042 0.594439 0.931263 -0.266213
O32   O     O_R   0.771497 0.782599 0.871634 -0.253978
N10   N     N_R   0.035167 0.276148 0.110325 0.065067
O33   O     O_R   0.147597 0.371171 0.137646 -0.315490
O34   O     O_R   0.961363 0.179305 0.155187 -0.214938
N11   N     N_R   0.237239 0.934227 0.106438 0.062141
O35   O     O_R   0.232133 0.817803 0.116040 -0.324480
O36   O     O_R   0.203930 0.978942 0.161665 -0.211471
N12   N     N_R   0.661399 0.780234 0.116537 0.074244
O37   O     O_R   0.555335 0.793980 0.128078 -0.314931
O38   O     O_R   0.746836 0.808105 0.167964 -0.219824
N13   N     N_R   0.789575 0.166783 0.574681 0.067594
O39   O     O_R   0.856663 0.192650 0.633466 -0.265192
O40   O     O_R   0.756842 0.253836 0.549465 -0.276462
N14   N     N_R   0.912166 0.697692 0.571274 0.102725
O41   O     O_R   0.900060 0.776256 0.616574 -0.267574
O42   O     O_R   0.815729 0.572487 0.566843 -0.247386
N15   N     N_R   0.393158 0.252000 0.583182 0.068587
O43   O     O_R   0.356876 0.186922 0.643517 -0.261456
O44   O     O_R   0.517567 0.300069 0.560660 -0.257726
N16   N     N_R   0.077839 0.839298 0.398491 0.055723
O45   O     O_R   0.038902 0.926851 0.385217 -0.159407
O46   O     O_R   0.162655 0.832869 0.354090 -0.299475
N17   N     N_R   0.796157 0.954784 0.430900 0.091654
O47   O     O_R   0.842823 0.893307 0.470906 -0.337775
O48   O     O_R   0.793394 0.939782 0.362723 -0.225503
N18   N     N_R   0.166027 0.195923 0.433035 0.071594
O49   O     O_R   0.057437 0.134914 0.472256 -0.332668
O50   O     O_R   0.154061 0.206869 0.365184 -0.223982

loop_
_geom_bond_atom_site_label_1
_geom_bond_atom_site_label_2
_geom_bond_distance
_ccdc_geom_bond_type
O14   Cr2   2.121779 S    
O19   C7    1.310738 A    
C39   C54   1.407850 A    
O20   C8    1.302565 A    
N8    O29   1.303340 A    
C60   H18   1.103963 S    
C32   N8    1.488618 S    
C49   C53   1.401461 A    
C29   C65   1.474460 S    
O18   Cr6   2.130262 S    
C36   N12   1.473641 S    
N15   O43   1.301022 A    
C15   C30   1.430907 A    
C41   C49   1.406931 A    
C57   C60   1.522465 S    
C17   C25   1.425588 A    
C7    C42   1.467555 S    
O21   C9    1.310119 A    
C16   C22   1.338809 A    
C22   C34   1.426483 S    
C25   C29   1.409528 A    
O8    Cr2   2.003517 S    
C44   C56   1.516600 S    
C18   C27   1.434636 A    
N18   O49   1.297439 A    
N15   O44   1.302478 A    
C62   N2    1.155116 T    
N13   O40   1.302462 A    
C10   C39   1.460848 S    
C9    C40   1.466886 S    
N7    O28   1.302061 A    
C2    C17   1.480926 S    
C13   C19   1.392265 A    
C26   C28   1.397697 A    
C63   N3    1.152261 T    
C14   C20   1.387089 A    
O9    Cr3   1.980310 S    
C43   C55   1.486902 S    
C23   C35   1.412838 S    
O10   Cr4   1.978840 S    
C46   C58   1.483643 S    
C42   C51   1.404652 A    
O2    C1    1.247322 A    
C52   H10   1.079459 S    
O5    C4    1.305106 A    
O12   Cr6   2.010928 S    
O13   Cr1   2.116064 S    
O19   Cr1   1.978941 S    
C34   H4    1.103962 S    
O4    Cr4   2.125962 S    
O21   Cr3   2.007328 S    
N10   O33   1.310048 A    
C26   C62   1.449376 S    
C42   C48   1.397231 A    
O1    C3    1.238951 A    
C32   H2    1.079215 S    
N17   O48   1.300803 A    
C21   C33   1.488612 S    
C49   H7    1.074772 S    
C60   N18   1.458550 S    
C37   C53   1.397755 A    
C15   C21   1.387930 A    
N7    O27   1.302492 A    
C55   H13   1.110481 S    
O17   C10   1.321412 A    
C58   H16   1.112300 S    
O16   Cr4   2.098295 S    
Cr6   O26   2.043120 S    
C3    C16   1.473687 S    
C4    C15   1.471300 S    
C20   C22   1.383466 A    
C34   N10   1.491444 S    
O15   C8    1.285023 A    
C31   C35   1.522998 S    
C11   C38   1.468150 S    
O18   C11   1.315748 A    
C31   H1    1.073446 S    
N11   O35   1.306965 A    
C57   N15   1.467063 S    
C5    C14   1.470447 S    
N14   O42   1.302386 A    
C20   C32   1.503813 S    
C38   C44   1.400212 A    
O3    Cr3   2.130558 S    
C37   C43   1.383604 A    
Cr3   O25   2.042945 S    
O8    C2    1.347836 A    
C17   C23   1.336625 A    
C18   C24   1.334539 A    
C33   H3    1.067031 S    
C32   C34   1.523276 S    
Cr1   O25   2.059955 S    
C35   N11   1.486555 S    
O22   Cr4   2.001474 S    
C12   C37   1.445001 S    
C59   H17   1.108001 S    
O2    Cr2   2.094647 S    
C31   N7    1.470205 S    
O15   Cr3   2.099477 S    
Cr4   O26   2.051485 S    
C33   C36   1.537826 S    
C58   N16   1.467830 S    
O7    Cr1   1.992719 S    
C19   C31   1.504283 S    
C28   C64   1.454713 S    
C45   C57   1.492553 S    
C51   C54   1.413404 A    
C56   C58   1.526660 S    
C66   N6    1.159525 T    
C50   H8    1.076277 S    
O3    C2    1.241392 A    
C57   H15   1.110188 S    
C35   H5    1.099592 S    
C27   C63   1.435722 S    
C50   C52   1.412723 A    
C59   N17   1.460570 S    
O13   C9    1.294790 A    
Cr5   O26   2.060134 S    
N16   O46   1.303855 A    
C14   C28   1.438024 A    
C6    C13   1.454136 S    
C55   C59   1.526691 S    
C41   C47   1.399718 A    
C55   N13   1.465194 S    
N9    O31   1.303009 A    
C21   C24   1.367360 A    
C40   C50   1.401711 A    
N11   O36   1.301064 A    
O6    C5    1.292677 A    
O5    Cr5   2.102178 S    
C56   H14   1.101185 S    
C27   C30   1.407433 A    
N8    O30   1.301619 A    
C61   N1    1.155868 T    
C51   H9    1.073940 S    
N16   O45   1.295085 A    
O20   Cr2   1.973533 S    
C53   H11   1.074621 S    
N14   O41   1.300619 A    
O11   C5    1.352921 A    
C33   N9    1.459042 S    
C65   N5    1.158618 T    
C16   C26   1.424601 A    
N12   O38   1.301023 A    
O1    Cr1   2.098835 S    
O16   C12   1.287684 A    
O23   C11   1.326692 A    
C44   C46   1.369953 A    
O17   Cr5   2.108700 S    
O24   C12   1.296617 A    
C56   N14   1.465907 S    
N18   O50   1.300981 A    
O9    C3    1.349841 A    
O4    C6    1.275986 A    
Cr2   O25   2.051838 S    
C24   C36   1.419670 S    
N13   O39   1.300583 A    
C8    C41   1.454692 S    
C25   C61   1.437476 S    
C13   C29   1.425474 A    
O11   Cr5   1.986705 S    
C19   C23   1.376040 A    
C48   C60   1.495790 S    
C47   C59   1.504161 S    
N12   O37   1.304218 A    
C54   H12   1.079808 S    
O22   C10   1.325791 A    
C1    C18   1.477777 S    
C40   C46   1.388692 A    
O7    C1    1.354291 A    
C45   C48   1.375066 A    
N10   O34   1.301502 A    
O6    Cr6   2.095964 S    
O12   C6    1.313115 A    
C39   C45   1.383513 A    
O23   Cr5   1.983233 S    
O24   Cr6   1.975167 S    
O10   C4    1.349975 A    
N17   O47   1.301421 A    
C64   N4    1.157351 T    
C36   H6    1.098249 S    
C30   C66   1.463483 S    
C43   C47   1.368823 A    
C38   C52   1.417075 A    
N9    O32   1.299679 A    
O14   C7    1.294180 A    
