data_mof_unit_61269.cif
_audit_creation_date              2012-12-11T17:17:06-0500
_audit_creation_method            fapswitch 2.2
_symmetry_space_group_name_H-M    P1
_symmetry_Int_Tables_number       1
_space_group_crystal_system       triclinic
_cell_length_a                    8.207683
_cell_length_b                    16.467339
_cell_length_c                    18.817982
_cell_angle_alpha                 96.827196
_cell_angle_beta                  92.818696
_cell_angle_gamma                 93.274532
_cell_volume                      2517.23449944

loop_
_atom_site_label
_atom_site_type_symbol
_atom_type_description
_atom_site_fract_x
_atom_site_fract_y
_atom_site_fract_z
_atom_type_partial_charge
Ba1   Ba    Ba6+2 0.843980 0.537940 0.465850 1.636847
Ba2   Ba    Ba6+2 0.345840 0.462130 0.534150 1.636918
C1    C     C_3   0.595018 0.826524 0.276551 -0.375680
C2    C     C_3   0.609331 0.743930 0.303956 0.338693
C3    C     C_3   0.476435 0.330337 0.316283 0.312632
C4    C     C_3   0.443255 0.297983 0.237443 -0.387201
C5    C     C_3   0.112655 0.291567 0.731559 0.354040
C6    C     C_3   0.131168 0.268224 0.807172 -0.351988
C7    C     C_3   0.586951 0.245483 0.692856 0.355397
C8    C     C_3   0.569368 0.160978 0.717532 -0.359747
C9    C     C_2   0.302721 0.515620 0.294045 -0.263443
C10   C     C_3   0.441353 0.509282 0.244278 -0.011920
C11   C     C_2   0.379642 0.515814 0.167593 -0.117170
C12   C     C_3   0.116894 0.713415 0.272656 0.302306
C13   C     C_2   0.219277 0.497272 0.146692 -0.079933
C14   C     C_2   0.105091 0.475892 0.203249 -0.131861
C15   C     C_1   0.159667 0.479193 0.271590 0.067068
C16   C     C_R   0.049422 0.493347 0.928988 0.458541
C17   C     C_R   0.158523 0.496927 0.069661 0.458242
C18   C     C_R   0.085981 0.523724 0.800439 -0.127523
C19   C     C_R   0.031038 0.516499 0.727377 0.065393
C20   C     C_R   0.781904 0.444069 0.754952 0.012055
C21   C     C_R   0.835245 0.450603 0.827635 -0.142881
C22   C     C_R   0.990154 0.489129 0.851493 -0.073873
C23   C     C_3   0.098354 0.733927 0.196174 -0.345120
C24   C     C_R   0.882834 0.473837 0.705326 -0.284521
C25   C     C_R   0.378274 0.732773 0.471903 -0.291983
C26   C     C_R   0.526955 0.759146 0.508201 0.039487
C27   C     C_R   0.581353 0.842222 0.514718 -0.120614
C28   C     C_R   0.484936 0.899575 0.484750 0.247401
C29   C     C_R   0.331609 0.871877 0.450669 -0.166300
C30   C     C_R   0.277740 0.788807 0.445417 -0.009728
C31   C     C_R   0.618433 0.147210 0.490734 -0.119016
C32   C     C_R   0.668248 0.230404 0.495575 0.006840
C33   C     C_R   0.717387 0.092164 0.522652 0.251763
C34   C     C_3   0.204692 0.712040 0.620618 0.308300
C35   C     C_R   0.813352 0.260168 0.533197 -0.287059
C36   C     C_R   0.917989 0.206792 0.560988 -0.004275
C37   C     C_R   0.869506 0.122848 0.556829 -0.167679
C38   C     C_3   0.217852 0.804623 0.640059 -0.384190
C39   C     C_3   0.990568 0.289188 0.382809 0.305053
C40   C     C_3   0.969955 0.196579 0.364142 -0.385537
C41   C     C_3   0.708109 0.643791 0.680531 0.308890
C42   C     C_3   0.724683 0.667806 0.761278 -0.384523
H1    H     H_    0.732988 0.742733 0.330124 0.114851
H2    H     H_    0.311586 0.822075 0.684688 0.127567
H3    H     H_    0.253326 0.835293 0.593385 0.061494
H4    H     H_    0.098110 0.826087 0.656817 0.126505
H5    H     H_    0.875589 0.312381 0.402375 0.008846
H6    H     H_    0.089209 0.303776 0.425486 0.075178
H7    H     H_    0.865361 0.180096 0.324338 0.134789
H8    H     H_    0.946853 0.166714 0.412679 0.063387
H9    H     H_    0.082994 0.173290 0.341256 0.123582
H10   H     H_    0.828603 0.628190 0.661221 0.009053
H11   H     H_    0.619575 0.589773 0.668754 0.067758
H12   H     H_    0.614712 0.876267 0.322016 0.092143
H13   H     H_    0.816189 0.720439 0.774604 0.126875
H14   H     H_    0.764928 0.615838 0.788587 0.067170
H15   H     H_    0.604974 0.685315 0.781333 0.130727
H16   H     H_    0.516003 0.737503 0.343817 -0.019826
H17   H     H_    0.471368 0.829876 0.250722 0.115717
H18   H     H_    0.358183 0.345657 0.338963 0.026140
H19   H     H_    0.560414 0.386285 0.320912 0.032218
H20   H     H_    0.366188 0.239668 0.232129 0.133149
H21   H     H_    0.377429 0.342754 0.209210 0.064177
H22   H     H_    0.560373 0.286898 0.211871 0.123255
H23   H     H_    0.688463 0.835280 0.236945 0.136124
H24   H     H_    0.159737 0.688585 0.159862 0.088509
H25   H     H_    0.183276 0.350787 0.729894 0.091025
H26   H     H_    0.981222 0.299092 0.719169 -0.063913
H27   H     H_    0.261811 0.261112 0.821858 0.153934
H28   H     H_    0.085167 0.316732 0.845772 0.076594
H29   H     H_    0.059775 0.209587 0.810558 0.110153
H30   H     H_    0.718013 0.259385 0.684587 -0.066122
H31   H     H_    0.514837 0.243962 0.641182 0.091719
H32   H     H_    0.613564 0.114686 0.676329 0.079688
H33   H     H_    0.439148 0.144622 0.725847 0.152007
H34   H     H_    0.059811 0.650853 0.273787 0.078455
H35   H     H_    0.642820 0.160300 0.768602 0.111540
H36   H     H_    0.467855 0.529686 0.128912 0.109474
H37   H     H_    0.978155 0.456962 0.188054 0.117037
H38   H     H_    0.201786 0.556846 0.817287 0.111782
H39   H     H_    0.755884 0.425769 0.865095 0.106968
H40   H     H_    0.318042 0.552463 0.346077 0.059252
H41   H     H_    0.840805 0.468532 0.649476 0.068072
H42   H     H_    0.505185 0.125801 0.460669 0.107226
H43   H     H_    0.253794 0.915059 0.429134 0.092630
H44   H     H_    0.249377 0.714321 0.288133 -0.023000
H45   H     H_    0.950527 0.081441 0.578937 0.090326
H46   H     H_    0.336636 0.668760 0.467753 0.074101
H47   H     H_    0.850809 0.324602 0.535911 0.069390
H48   H     H_    0.966760 0.731976 0.178716 0.136231
H49   H     H_    0.155117 0.796097 0.192772 0.117267
H50   H     H_    0.325246 0.691367 0.605819 0.009167
H51   H     H_    0.113854 0.696363 0.574662 0.065039
N1    N     N_R   0.205311 0.520726 0.951294 -0.238451
N2    N     N_R   0.258473 0.522381 0.019831 -0.240917
N3    N     N_R   0.002470 0.469961 0.047434 -0.242852
N4    N     N_R   0.949472 0.468069 0.978869 -0.243175
N5    N     N_2   0.533725 0.984988 0.489101 -0.234608
N6    N     N_2   0.671598 0.006330 0.519211 -0.232602
O1    O     O_2   0.875590 0.454550 0.328720 -0.465641
O2    O     O_3   0.653898 0.710476 0.648503 -0.633913
O3    O     O_3   0.038824 0.771006 0.318265 -0.603292
O4    O     O_2   0.314110 0.545480 0.671320 -0.460667
O5    O     O_3   0.061730 0.544170 0.583900 -0.496904
O6    O     O_3   0.555240 0.398120 0.628310 -0.485121
O7    O     O_3   0.156695 0.676112 0.680461 -0.634322
O8    O     O_3   0.629280 0.402460 0.464250 -0.472054
O9    O     O_3   0.140510 0.356300 0.593010 -0.488116
O10   O     O_2   0.255870 0.210969 0.550562 -0.486077
O11   O     O_3   0.172844 0.230052 0.683400 -0.596934
O12   O     O_3   0.127960 0.455900 0.416100 -0.492321
O13   O     O_3   0.560420 0.597610 0.535760 -0.486588
O14   O     O_2   0.379340 0.302240 0.465940 -0.461807
O15   O     O_3   0.548656 0.269598 0.350994 -0.640377
O16   O     O_2   0.444184 0.454901 0.754505 -0.484450
O17   O     O_3   0.528310 0.303381 0.744846 -0.596153
O18   O     O_3   0.634460 0.601950 0.371690 -0.490141
O19   O     O_2   0.777407 0.562373 0.249839 -0.488721
O20   O     O_3   0.029211 0.323814 0.321013 -0.635770
O21   O     O_3   0.583227 0.681210 0.246417 -0.606923
O22   O     O_2   0.810360 0.697790 0.534100 -0.463758
O23   O     O_3   0.049190 0.643760 0.407000 -0.487270
O24   O     O_2   0.936610 0.789739 0.448579 -0.486052
P1    P     P_3+3 0.048660 0.430750 0.339650 0.983993
P2    P     P_3+3 0.638170 0.686040 0.555200 0.987945
P3    P     P_3+3 0.074762 0.749891 0.406428 0.943427
P4    P     P_3+3 0.141040 0.569320 0.660360 0.983795
P5    P     P_3+3 0.122151 0.249986 0.596047 0.952554
P6    P     P_3+3 0.610730 0.586612 0.277970 0.961207
P7    P     P_3+3 0.559820 0.299490 0.443531 0.951912
P8    P     P_3+3 0.576842 0.401325 0.721702 0.953307
H52   H     H_    0.696575 0.861678 0.543934 0.110311

loop_
_geom_bond_atom_site_label_1
_geom_bond_atom_site_label_2
_ccdc_geom_bond_type
C38   H3    S    
C19   C24   A    
Ba2   O8    S    
C23   H49   S    
C10   P6    S    
C18   H38   S    
O5    P4    S    
C32   C35   A    
C16   N1    A    
C39   C40   S    
C39   H6    S    
C41   C42   S    
O16   P8    D    
C5    H26   S    
C17   N2    A    
C5    C6    S    
C13   C17   S    
C35   C36   A    
C21   H39   S    
C16   C22   S    
C36   P5    S    
C26   C27   A    
C40   H9    S    
C36   C37   A    
Ba2   O12   S    
C15   P1    S    
Ba2   O14   S    
C34   O7    S    
Ba1   O13   S    
C42   H15   S    
C39   O20   S    
C13   C14   S    
O19   P6    D    
C28   N5    S    
Ba2   O6    S    
Ba2   P4    S    
C5    O11   S    
C3    H19   S    
C25   H46   S    
Ba1   Ba2   S    
Ba1   O18   S    
C4    H20   S    
C14   H37   S    
C41   H10   S    
Ba1   O8    S    
C12   O3    S    
C17   N3    A    
C4    H21   S    
Ba2   O9    S    
C18   C22   A    
C42   H14   S    
C14   C15   D    
C6    H27   S    
O15   P7    S    
O24   P3    D    
O18   P6    S    
C21   C22   A    
O2    P2    S    
C7    C8    S    
C26   P2    S    
C40   H7    S    
O23   P3    S    
C27   H52   S    
C11   H36   S    
C32   P7    S    
C7    O17   S    
C23   H24   S    
Ba1   O12   S    
C39   H5    S    
C8    H33   S    
O14   P7    D    
C1    H17   S    
C6    H28   S    
C29   H43   S    
C35   H47   S    
C20   P8    S    
C2    H1    S    
C34   C38   S    
Ba1   P1    S    
O4    P4    D    
O12   P1    S    
C33   N6    S    
Ba2   O5    S    
C33   C37   A    
C31   H42   S    
Ba1   O22   S    
C27   C28   A    
C1    H12   S    
O10   P5    D    
O22   P2    D    
C29   C30   A    
O3    P3    S    
C42   H13   S    
C8    H35   S    
N1    N2    A    
C2    H16   S    
O8    P7    S    
C31   C32   A    
C2    O21   S    
C10   C11   S    
C19   P4    S    
O7    P4    S    
O17   P8    S    
C41   H11   S    
C11   C13   D    
C3    O15   S    
C7    H30   S    
C38   H2    S    
C1    C2    S    
O21   P6    S    
C38   H4    S    
C28   C29   A    
C9    C15   D    
C23   H48   S    
C25   C30   A    
C8    H32   S    
C1    H23   S    
Ba1   P2    S    
O1    P1    D    
C16   N4    A    
C5    H25   S    
C9    C10   S    
C9    H40   S    
Ba1   O5    S    
Ba2   O4    S    
C30   P3    S    
Ba1   O23   S    
C12   H44   S    
O20   P1    S    
O6    P8    S    
O13   P2    S    
Ba2   O13   S    
C34   H51   S    
C3    C4    S    
C24   H41   S    
C6    H29   S    
C31   C33   A    
C3    H18   S    
O9    P5    S    
C12   H34   S    
C12   C23   S    
C41   O2    S    
C34   H50   S    
C4    H22   S    
C18   C19   A    
N3    N4    A    
C20   C24   A    
C25   C26   A    
C20   C21   A    
N5    N6    D    
C7    H31   S    
O11   P5    S    
Ba1   O1    S    
C37   H45   S    
C40   H8    S    
