data_mof_unit_16082.cif
_audit_creation_date              2012-12-10T18:20:35-0500
_audit_creation_method            fapswitch 2.2
_symmetry_space_group_name_H-M    P1
_symmetry_Int_Tables_number       1
_space_group_crystal_system       triclinic
_cell_length_a                    14.044852
_cell_length_b                    13.614446
_cell_length_c                    14.895708
_cell_angle_alpha                 89.82228
_cell_angle_beta                  89.464771
_cell_angle_gamma                 82.798749
_cell_volume                      2825.65546181

loop_
_atom_site_label
_atom_site_type_symbol
_atom_type_description
_atom_site_fract_x
_atom_site_fract_y
_atom_site_fract_z
_atom_type_partial_charge
C1    C     C_R   0.500488 0.499296 0.327124 0.875954
C2    C     C_R   0.499117 0.502325 0.672951 0.875511
C3    C     C_R   0.482429 0.511493 0.953405 0.021764
C4    C     C_R   0.484440 0.505190 0.047386 0.021369
C5    C     C_R   0.467815 0.426329 0.904846 0.116373
C6    C     C_R   0.498448 0.590068 0.096485 0.117545
C7    C     C_R   0.497778 0.688950 0.961267 -0.012922
C8    C     C_R   0.445594 0.334549 0.041053 -0.015561
C9    C     C_R   0.502752 0.680483 0.054159 -0.265755
C10   C     C_R   0.446879 0.340682 0.947984 -0.266591
C11   C     C_R   0.807446 0.417589 0.528148 -0.079424
C12   C     C_R   0.192451 0.582507 0.472158 -0.077925
C13   C     C_R   0.788862 0.581643 0.471384 -0.044898
C14   C     C_R   0.211177 0.417925 0.527671 -0.041404
C15   C     C_R   0.888897 0.583259 0.470988 -0.000192
C16   C     C_R   0.111137 0.416022 0.527670 -0.001928
C17   C     C_R   0.949501 0.499214 0.499845 0.052628
C18   C     C_R   0.050486 0.500400 0.499586 0.050828
C19   C     C_R   0.908957 0.414101 0.528527 -0.010182
C20   C     C_R   0.090959 0.585807 0.471513 -0.009015
C21   C     C_R   0.928795 0.667480 0.442520 -0.258757
C22   C     C_R   0.071217 0.331298 0.555060 -0.253670
C23   C     C_R   0.517351 0.314351 0.500027 0.896620
C24   C     C_R   0.482753 0.685692 0.500334 0.888513
C25   C     C_R   0.028726 0.670762 0.443486 0.113899
C26   C     C_R   0.971129 0.328853 0.555920 0.110886
C27   C     C_1   0.469685 0.789026 0.504828 -0.221891
C28   C     C_1   0.531403 0.211014 0.497864 -0.223912
C29   C     C_2   0.461848 0.980377 0.511622 0.090185
C30   C     C_2   0.544445 0.019116 0.495397 0.098536
C31   C     C_1   0.540968 0.123404 0.496136 -0.044731
C32   C     C_1   0.462653 0.876519 0.508712 -0.046664
C33   C     C_R   0.471579 0.427649 0.812889 -0.281004
C34   C     C_R   0.503128 0.585444 0.188538 -0.285933
C35   C     C_R   0.495185 0.510395 0.768279 -0.076190
C36   C     C_R   0.501080 0.495898 0.231846 -0.071894
C37   C     C_R   0.508602 0.599098 0.812895 0.017355
C38   C     C_R   0.493039 0.407221 0.185745 0.022605
C39   C     C_R   0.495898 0.601982 0.908136 0.040313
C40   C     C_R   0.473666 0.414027 0.092280 0.039723
H1    H     H_    0.459360 0.362209 0.775137 0.137763
H2    H     H_    0.509446 0.651809 0.227283 0.133513
H3    H     H_    0.506171 0.746392 0.094347 0.146427
H4    H     H_    0.428208 0.278923 0.908660 0.146265
H5    H     H_    0.773011 0.355094 0.550156 0.148265
H6    H     H_    0.226776 0.645201 0.450520 0.146285
H7    H     H_    0.741837 0.645805 0.448748 0.134619
H8    H     H_    0.258254 0.353659 0.549856 0.133897
H9    H     H_    0.881459 0.731729 0.420212 0.140695
H10   H     H_    0.118411 0.266464 0.576210 0.142941
N1    N     N_R   0.750030 0.500040 0.500070 -0.099005
N2    N     N_R   0.249970 0.499960 0.499930 -0.100103
O1    O     O_R   0.580280 0.500020 0.367860 -0.611234
O2    O     O_R   0.419720 0.499980 0.632140 -0.610409
O3    O     O_R   0.419730 0.500030 0.367840 -0.612228
O4    O     O_R   0.580270 0.499970 0.632160 -0.616334
O5    O     O_R   0.591830 0.359650 0.500030 -0.620010
O6    O     O_R   0.408170 0.640350 0.499970 -0.617137
O7    O     O_R   0.431280 0.359660 0.500010 -0.622089
O8    O     O_R   0.568720 0.640340 0.499990 -0.628209
Zn1   Zn    Zn3+2 0.607200 0.499990 0.500020 0.934153
Zn2   Zn    Zn3+2 0.392800 0.500010 0.499980 0.939587
C41   C     C_3   0.641233 0.959093 0.475540 -0.422790
C42   C     C_3   0.714245 0.976804 0.547962 -0.332016
C43   C     C_3   0.808984 0.910221 0.534740 -0.907677
H11   H     H_    0.797637 0.831276 0.541358 0.262188
H12   H     H_    0.840210 0.922962 0.467546 0.262047
H13   H     H_    0.860493 0.927148 0.586868 0.252902
H14   H     H_    0.728591 0.055210 0.545350 0.223557
H15   H     H_    0.684576 0.962272 0.615462 0.227085
H16   H     H_    0.636705 0.878507 0.471015 0.210002
H17   H     H_    0.667630 0.982415 0.409168 0.197786
C44   C     C_3   0.368129 0.041487 0.538928 -0.409331
C45   C     C_3   0.363654 0.055183 0.641042 -0.323840
C46   C     C_3   0.272771 0.120999 0.670106 -0.922419
H18   H     H_    0.272929 0.196553 0.641977 0.257865
H19   H     H_    0.207978 0.089598 0.646966 0.259067
H20   H     H_    0.270050 0.126354 0.744465 0.248944
H21   H     H_    0.365019 0.981669 0.674005 0.228593
H22   H     H_    0.427018 0.089474 0.663895 0.221242
H23   H     H_    0.359074 0.114556 0.504524 0.207844
H24   H     H_    0.306911 0.003003 0.517498 0.200767
C47   C     C_3   0.545259 0.682640 0.758391 -0.397503
C48   C     C_3   0.652310 0.686739 0.774643 -0.307576
C49   C     C_3   0.688127 0.771313 0.721853 -0.885184
H25   H     H_    0.677104 0.761628 0.648795 0.271976
H26   H     H_    0.649111 0.843434 0.743659 0.264726
H27   H     H_    0.765946 0.771956 0.733843 0.248913
H28   H     H_    0.665832 0.696611 0.847117 0.217098
H29   H     H_    0.693843 0.615726 0.752945 0.231345
H30   H     H_    0.536280 0.673247 0.685456 0.196658
H31   H     H_    0.502205 0.754842 0.768798 0.212349
C50   C     C_3   0.518543 0.308388 0.235024 -0.395621
C51   C     C_3   0.611300 0.250839 0.197460 -0.322697
C52   C     C_3   0.634522 0.151196 0.244803 -0.901511
H32   H     H_    0.645581 0.162364 0.317617 0.267261
H33   H     H_    0.575198 0.105358 0.235870 0.268954
H34   H     H_    0.701300 0.110905 0.215765 0.245251
H35   H     H_    0.605251 0.237632 0.124445 0.222529
H36   H     H_    0.671740 0.295095 0.207324 0.225056
H37   H     H_    0.531241 0.319244 0.307328 0.189231
H38   H     H_    0.458915 0.262988 0.235675 0.218222
C53   C     C_R   0.479460 0.791644 0.927245 0.133502
C54   C     C_R   0.550268 0.855623 0.933258 -0.164897
C55   C     C_R   0.531115 0.953684 0.903887 -0.164892
C56   C     C_R   0.440538 0.989264 0.870718 -0.117827
C57   C     C_R   0.368863 0.926862 0.866982 -0.151049
C58   C     C_R   0.387942 0.828445 0.895467 -0.177116
H39   H     H_    0.620263 0.829339 0.960098 0.125953
H40   H     H_    0.586245 0.002352 0.907565 0.125825
H41   H     H_    0.425658 0.065443 0.848721 0.125975
H42   H     H_    0.298465 0.954785 0.842099 0.138474
H43   H     H_    0.331794 0.780820 0.892591 0.135518
C59   C     C_R   0.400957 0.250888 0.079788 0.132680
C60   C     C_R   0.441521 0.152655 0.064164 -0.163414
C61   C     C_R   0.397898 0.073994 0.099528 -0.124779
C62   C     C_R   0.312825 0.092739 0.149406 -0.120279
C63   C     C_R   0.270897 0.190166 0.163581 -0.147645
C64   C     C_R   0.314290 0.269097 0.128390 -0.165550
H44   H     H_    0.507305 0.137233 0.025463 0.122923
H45   H     H_    0.429951 0.998489 0.088166 0.145589
H46   H     H_    0.279163 0.031755 0.176746 0.125038
H47   H     H_    0.204705 0.204526 0.201774 0.134431
H48   H     H_    0.281032 0.344273 0.139573 0.137628
C65   C     C_3   0.065095 0.766861 0.416267 -0.432043
C66   C     C_3   0.090113 0.824769 0.499224 -0.322842
C67   C     C_3   0.119246 0.925318 0.473105 -0.910386
H49   H     H_    0.183745 0.915595 0.428744 0.261829
H50   H     H_    0.059595 0.970517 0.437794 0.261495
H51   H     H_    0.136157 0.965491 0.534536 0.245528
H52   H     H_    0.026757 0.836676 0.544963 0.227195
H53   H     H_    0.149966 0.782307 0.536462 0.221063
H54   H     H_    0.127743 0.752400 0.370055 0.190527
H55   H     H_    0.009022 0.813858 0.377774 0.200574
C68   C     C_3   0.934056 0.234049 0.585974 -0.433830
C69   C     C_3   0.899011 0.241716 0.683837 -0.329830
C70   C     C_3   0.855890 0.149004 0.712690 -0.893829
H56   H     H_    0.791210 0.141026 0.672428 0.257194
H57   H     H_    0.909153 0.082119 0.703831 0.262069
H58   H     H_    0.834438 0.155125 0.784585 0.248673
H59   H     H_    0.960485 0.251165 0.728140 0.225601
H60   H     H_    0.843887 0.307017 0.692867 0.219890
H61   H     H_    0.876358 0.215994 0.540659 0.195300
H62   H     H_    0.992049 0.170621 0.580460 0.200631

loop_
_geom_bond_atom_site_label_1
_geom_bond_atom_site_label_2
_ccdc_geom_bond_type
C65   H55   S    
O6    Zn2   S    
C55   H40   S    
C50   C51   S    
C57   H42   S    
C52   H32   S    
N1    Zn1   S    
C24   C27   S    
C62   H46   S    
C6    C9    A    
C21   H9    S    
C59   C60   A    
C52   H34   S    
C68   C69   S    
C64   H48   S    
C23   O7    A    
C47   H31   S    
C70   H57   S    
C11   C19   A    
C66   C67   S    
C51   H35   S    
C35   C37   A    
C29   C32   S    
C54   H39   S    
C7    C53   S    
C29   C44   S    
C56   C57   A    
C60   C61   A    
O3    Zn2   S    
C61   C62   A    
C23   O5    A    
C44   C45   S    
C19   C26   A    
C25   C65   S    
C63   C64   A    
C69   H60   S    
C26   C68   S    
C17   C19   A    
C13   N1    A    
O1    Zn1   S    
C14   N2    A    
C4    C40   A    
C34   H2    S    
C43   H12   S    
C20   C25   A    
C5    C33   A    
C57   C58   A    
C53   C58   A    
C42   H15   S    
C18   C20   A    
C59   C64   A    
C8    C59   S    
C22   H10   S    
C68   H61   S    
C3    C39   A    
C45   H22   S    
C30   C41   S    
C1    O1    A    
C48   H29   S    
C44   H23   S    
C54   C55   A    
C12   N2    A    
C56   H41   S    
C49   H26   S    
C70   H58   S    
C9    H3    S    
C45   C46   S    
C10   H4    S    
C24   O6    A    
C48   C49   S    
C4    C6    A    
C2    O2    A    
C50   H37   S    
C13   H7    S    
C2    C35   S    
C14   H8    S    
O2    Zn2   S    
C49   H25   S    
C6    C34   A    
O8    Zn1   S    
C58   H43   S    
C46   H18   S    
C67   H50   S    
C29   C30   D    
C47   C48   S    
C51   H36   S    
C24   O8    A    
C43   H13   S    
C12   C20   A    
C17   C18   A    
C16   C18   A    
C42   H14   S    
C46   H19   S    
C12   H6    S    
C68   H62   S    
C41   H16   S    
C60   H44   S    
C45   H21   S    
C13   C15   A    
C65   C66   S    
C14   C16   A    
C11   H5    S    
C23   C28   S    
C48   H28   S    
C67   H49   S    
C44   H24   S    
C55   C56   A    
C49   H27   S    
C65   H54   S    
C15   C17   A    
C21   C25   A    
O7    Zn2   S    
C16   C22   A    
C27   C32   T    
C28   C31   T    
C69   C70   S    
C3    C5    A    
C50   H38   S    
C52   H33   S    
O5    Zn1   S    
C47   H30   S    
C70   H56   S    
C33   H1    S    
C42   C43   S    
C36   C38   A    
C1    O3    A    
C67   H51   S    
C5    C10   A    
C37   C39   A    
C2    O4    A    
C62   C63   A    
C38   C40   A    
C30   C31   S    
C66   H52   S    
C38   C50   S    
C33   C35   A    
C69   H59   S    
C34   C36   A    
C63   H47   S    
C51   C52   S    
C46   H20   S    
C11   N1    A    
C66   H53   S    
C41   C42   S    
C7    C9    A    
C15   C21   A    
C41   H17   S    
C8    C10   A    
C43   H11   S    
C22   C26   A    
C53   C54   A    
C7    C39   A    
O4    Zn1   S    
C37   C47   S    
N2    Zn2   S    
C61   H45   S    
C8    C40   A    
C3    C4    A    
C1    C36   S    
