data_mof_unit_30938.cif
_audit_creation_date              2012-12-11T14:11:00-0500
_audit_creation_method            fapswitch 2.2
_symmetry_space_group_name_H-M    P1
_symmetry_Int_Tables_number       1
_space_group_crystal_system       triclinic
_cell_length_a                    20.207621
_cell_length_b                    17.146837
_cell_length_c                    15.658846
_cell_angle_alpha                 89.753394
_cell_angle_beta                  51.353152
_cell_angle_gamma                 90.122496
_cell_volume                      4237.43738441

loop_
_atom_site_label
_atom_site_type_symbol
_atom_type_description
_atom_site_fract_x
_atom_site_fract_y
_atom_site_fract_z
_atom_type_partial_charge
C1    C     C_R   0.373683 0.196654 0.997738 -0.058963
C2    C     C_3   0.756891 0.787943 0.439752 -0.033335
C3    C     C_2   0.290182 0.775581 0.594340 1.058040
C4    C     C_2   0.853056 0.752089 0.606161 1.036787
C5    C     C_2   0.219477 0.301436 0.383156 0.973375
C6    C     C_2   0.117378 0.783467 0.418025 0.993708
C7    C     C_2   0.790185 0.275573 0.594336 1.058040
C8    C     C_3   0.660852 0.281403 0.467928 -0.031973
C9    C     C_3   0.240096 0.777273 0.553537 -0.067997
C10   C     C_3   0.819586 0.763096 0.544482 -0.040911
C11   C     C_3   0.256893 0.287946 0.439749 -0.033334
C12   C     C_3   0.160854 0.781400 0.467925 -0.031973
C13   C     C_3   0.740097 0.277270 0.553535 -0.067996
C14   C     C_2   0.272896 0.702896 0.960887 -0.186150
C15   C     C_2   0.754454 0.277225 0.992354 -0.133232
C16   C     C_2   0.779493 0.731808 0.952788 -0.083338
C17   C     C_R   0.628360 0.804119 0.001514 -0.105565
C18   C     C_2   0.224299 0.271453 0.044519 -0.039536
C19   C     C_2   0.772896 0.202896 0.960886 -0.186152
C20   C     C_2   0.254453 0.777225 0.992355 -0.133232
C21   C     C_2   0.279496 0.231810 0.952784 -0.083332
C22   C     C_2   0.724296 0.771451 0.044522 -0.039537
C23   C     C_R   0.345854 0.832307 0.224598 -0.046407
C24   C     C_R   0.603876 0.198160 0.786056 -0.115819
C25   C     C_R   0.653605 0.832257 0.777273 -0.121891
C26   C     C_R   0.382841 0.194770 0.217318 -0.123359
C27   C     C_R   0.845854 0.332307 0.224598 -0.046410
C28   C     C_R   0.655743 0.179831 0.955328 -0.009738
C29   C     C_R   0.103877 0.698160 0.786056 -0.115818
C30   C     C_R   0.153605 0.332257 0.777273 -0.121887
C31   C     C_R   0.882842 0.694770 0.217318 -0.123364
C32   C     C_R   0.344161 0.898983 0.928559 -0.083166
C33   C     C_R   0.668823 0.090635 0.048132 -0.155951
C34   C     C_R   0.642169 0.893809 0.091533 -0.117453
C35   C     C_R   0.358579 0.107412 0.907920 -0.112668
C36   C     C_R   0.844161 0.398983 0.928559 -0.083167
C37   C     C_R   0.168822 0.590635 0.048132 -0.155951
C38   C     C_R   0.142170 0.393810 0.091531 -0.117453
C39   C     C_R   0.361357 0.807650 0.014811 -0.005485
C40   C     C_R   0.858578 0.607412 0.907921 -0.112670
C41   C     C_R   0.392514 0.104066 0.312038 -0.129167
C42   C     C_R   0.643282 0.922118 0.682670 -0.118556
C43   C     C_R   0.601260 0.104907 0.690449 -0.103263
C44   C     C_R   0.356461 0.922430 0.317214 -0.129274
C45   C     C_R   0.892515 0.604066 0.312038 -0.129163
C46   C     C_R   0.143282 0.422118 0.682670 -0.118561
C47   C     C_R   0.101261 0.604907 0.690449 -0.103266
C48   C     C_R   0.856461 0.422430 0.317214 -0.129269
C49   C     C_R   0.337104 0.181672 0.949286 0.104127
C50   C     C_R   0.873681 0.696653 0.997739 -0.058964
C51   C     C_R   0.665120 0.820167 0.049416 0.106941
C52   C     C_R   0.707572 0.154884 0.978250 0.131926
C53   C     C_R   0.316055 0.826907 0.980288 0.044234
C54   C     C_R   0.837102 0.681671 0.949289 0.104131
C55   C     C_R   0.165123 0.320168 0.049413 0.106939
C56   C     C_R   0.207572 0.654884 0.978251 0.131925
C57   C     C_R   0.816055 0.326907 0.980288 0.044232
C58   C     C_R   0.304485 0.866562 0.325126 0.086054
C59   C     C_R   0.621032 0.180847 0.688900 0.069700
C60   C     C_R   0.694584 0.865509 0.675192 0.097910
C61   C     C_R   0.128362 0.304119 0.001512 -0.105561
C62   C     C_R   0.363206 0.177008 0.316406 0.085492
C63   C     C_R   0.804485 0.366562 0.325126 0.086055
C64   C     C_R   0.121033 0.680847 0.688900 0.069701
C65   C     C_R   0.194584 0.365509 0.675192 0.097911
C66   C     C_R   0.863207 0.677008 0.316405 0.085493
C67   C     C_3   0.275291 0.200463 0.525576 -0.170939
C68   C     C_3   0.801419 0.850701 0.458098 -0.163701
C69   C     C_3   0.695810 0.206827 0.481652 -0.189726
C70   C     C_3   0.204611 0.851735 0.541089 -0.176066
C71   C     C_3   0.775296 0.700463 0.525575 -0.170940
C72   C     C_R   0.155743 0.679831 0.955328 -0.009738
C73   C     C_3   0.301423 0.350701 0.458098 -0.163702
C74   C     C_3   0.195814 0.706826 0.481650 -0.189725
C75   C     C_3   0.704614 0.351734 0.541089 -0.176065
C76   C     C_3   0.705365 0.758965 0.557943 -0.197258
C77   C     C_3   0.372359 0.291563 0.424441 -0.171251
C78   C     C_3   0.278072 0.750531 0.438552 -0.220083
C79   C     C_3   0.621081 0.307443 0.585809 -0.191855
C80   C     C_3   0.205364 0.258968 0.557941 -0.197258
C81   C     C_3   0.872359 0.791567 0.424438 -0.171252
C82   C     C_3   0.778070 0.250528 0.438551 -0.220084
C83   C     C_R   0.861357 0.307650 0.014811 -0.005485
C84   C     C_3   0.121080 0.807441 0.585807 -0.191853
C85   C     C_3   0.750481 0.821006 0.576396 0.057991
C86   C     C_3   0.326273 0.229978 0.407065 0.062992
C87   C     C_3   0.242370 0.824797 0.425504 0.086906
C88   C     C_3   0.658291 0.233756 0.597364 0.103716
C89   C     C_3   0.250480 0.321005 0.576397 0.057991
C90   C     C_3   0.826274 0.729978 0.407064 0.062992
C91   C     C_3   0.742371 0.324797 0.425505 0.086907
C92   C     C_3   0.158293 0.733756 0.597363 0.103714
C93   C     C_2   0.403190 0.273743 0.004315 0.484719
C94   C     C_3   0.319582 0.263092 0.544485 -0.040911
C95   C     C_2   0.607437 0.725388 0.985940 0.526559
C96   C     C_2   0.655788 0.256794 0.913682 0.495355
C97   C     C_2   0.372015 0.728601 0.042684 0.420653
C98   C     C_2   0.903188 0.773743 0.004317 0.484720
C99   C     C_2   0.107439 0.225389 0.985938 0.526552
C100  C     C_2   0.155787 0.756794 0.913684 0.495357
C101  C     C_2   0.872014 0.228601 0.042685 0.420650
C102  C     C_2   0.353049 0.252081 0.606168 1.036786
C103  C     C_2   0.719472 0.801429 0.383163 0.973380
C104  C     C_2   0.617375 0.283475 0.418030 0.993709
H1    H     H_    0.322684 0.781173 0.212474 0.116281
H2    H     H_    0.689202 0.059502 0.088179 0.124119
H3    H     H_    0.653445 0.922417 0.142844 0.112532
H4    H     H_    0.346964 0.079250 0.856680 0.135908
H5    H     H_    0.827464 0.428629 0.883332 0.136053
H6    H     H_    0.189202 0.559502 0.088179 0.124118
H7    H     H_    0.153446 0.422418 0.142842 0.112532
H8    H     H_    0.846963 0.579249 0.856682 0.135906
H9    H     H_    0.397832 0.077886 0.370462 0.112226
H10   H     H_    0.653434 0.954874 0.616298 0.111867
H11   H     H_    0.596088 0.076293 0.633440 0.102245
H12   H     H_    0.596882 0.256808 0.814443 0.098571
H13   H     H_    0.346268 0.955452 0.382962 0.116403
H14   H     H_    0.897833 0.577886 0.370462 0.112224
H15   H     H_    0.153435 0.454874 0.616298 0.111868
H16   H     H_    0.096089 0.576293 0.633440 0.102247
H17   H     H_    0.846269 0.455452 0.382962 0.116400
H18   H     H_    0.636183 0.746533 0.613754 0.153490
H19   H     H_    0.441693 0.302899 0.367801 0.143342
H20   H     H_    0.343208 0.727487 0.377737 0.159100
H21   H     H_    0.555517 0.328846 0.648093 0.149387
H22   H     H_    0.136181 0.246538 0.613750 0.153489
H23   H     H_    0.676951 0.783836 0.794983 0.073129
H24   H     H_    0.941692 0.802905 0.367796 0.143340
H25   H     H_    0.843205 0.227482 0.377735 0.159099
H26   H     H_    0.055515 0.828842 0.648089 0.149383
H27   H     H_    0.264896 0.138442 0.552000 0.153433
H28   H     H_    0.811134 0.912941 0.432833 0.162156
H29   H     H_    0.692224 0.147225 0.457329 0.142571
H30   H     H_    0.208509 0.911650 0.564310 0.158253
H31   H     H_    0.764904 0.638443 0.552000 0.153432
H32   H     H_    0.311141 0.412942 0.432833 0.162158
H33   H     H_    0.192231 0.647223 0.457327 0.142573
H34   H     H_    0.377189 0.251158 0.192039 0.095635
H35   H     H_    0.708515 0.411649 0.564309 0.158251
H36   H     H_    0.335457 0.678427 0.920020 0.143572
H37   H     H_    0.691541 0.301192 0.034255 0.131755
H38   H     H_    0.778457 0.732339 0.884201 0.131642
H39   H     H_    0.225245 0.270760 0.113191 0.145033
H40   H     H_    0.835457 0.178427 0.920020 0.143572
H41   H     H_    0.191540 0.801192 0.034256 0.131755
H42   H     H_    0.278460 0.232341 0.884197 0.131643
H43   H     H_    0.725242 0.770759 0.113195 0.145031
H44   H     H_    0.450837 0.276788 0.015494 -0.010797
H45   H     H_    0.822683 0.281173 0.212475 0.116280
H46   H     H_    0.582130 0.718153 0.943002 0.090838
H47   H     H_    0.596238 0.286695 0.951929 -0.023145
H48   H     H_    0.321909 0.685348 0.078351 0.040393
H49   H     H_    0.950836 0.776788 0.015494 -0.010797
H50   H     H_    0.082127 0.218154 0.943005 0.090844
H51   H     H_    0.096237 0.786695 0.951930 -0.023146
H52   H     H_    0.821909 0.185348 0.078351 0.040393
H53   H     H_    0.406041 0.301646 0.667164 0.324900
H54   H     H_    0.699921 0.876359 0.301493 0.326622
H55   H     H_    0.613006 0.328553 0.302527 0.320539
H56   H     H_    0.096883 0.756808 0.814443 0.098571
H57   H     H_    0.350604 0.837424 0.636659 0.355436
H58   H     H_    0.906052 0.801658 0.667150 0.324900
H59   H     H_    0.199933 0.376370 0.301484 0.326624
H60   H     H_    0.113010 0.828542 0.302521 0.320537
H61   H     H_    0.850613 0.337412 0.636650 0.355434
H62   H     H_    0.176950 0.283835 0.794983 0.073128
H63   H     H_    0.877190 0.751158 0.192039 0.095635
H64   H     H_    0.327464 0.928629 0.883332 0.136053
N1    N     N_R   0.408680 0.130810 0.995780 -0.076288
N2    N     N_R   0.578590 0.132790 0.846380 -0.055032
N3    N     N_R   0.578590 0.867210 0.846380 -0.045896
N4    N     N_R   0.421410 0.132790 0.153620 -0.052204
N5    N     N_R   0.921410 0.367210 0.153620 -0.044543
N6    N     N_R   0.078590 0.632790 0.846380 -0.055033
N7    N     N_R   0.078590 0.367210 0.846380 -0.045897
N8    N     N_R   0.921410 0.632790 0.153620 -0.052203
N9    N     N_R   0.403840 0.921910 0.935760 -0.061153
N10   N     N_R   0.596160 0.078090 0.064240 -0.050971
N11   N     N_R   0.596160 0.921910 0.064240 -0.047214
N12   N     N_R   0.591320 0.869190 0.004220 -0.067199
N13   N     N_R   0.403840 0.078090 0.935760 -0.054001
N14   N     N_R   0.903840 0.421910 0.935760 -0.061152
N15   N     N_R   0.096160 0.578090 0.064240 -0.050971
N16   N     N_R   0.096160 0.421910 0.064240 -0.047214
N17   N     N_R   0.903840 0.578090 0.935760 -0.054001
N18   N     N_R   0.426250 0.076100 0.213650 -0.038972
N19   N     N_R   0.573750 0.923900 0.786350 -0.048910
N20   N     N_R   0.573750 0.076100 0.786350 -0.041560
N21   N     N_R   0.426250 0.923900 0.213650 -0.050831
N22   N     N_R   0.926250 0.576100 0.213650 -0.038972
N23   N     N_R   0.591320 0.130810 0.004220 -0.090794
N24   N     N_R   0.073750 0.423900 0.786350 -0.048910
N25   N     N_R   0.073750 0.576100 0.786350 -0.041560
N26   N     N_R   0.926250 0.423900 0.213650 -0.050832
N27   N     N_R   0.408680 0.869190 0.995780 -0.047865
N28   N     N_R   0.908680 0.630810 0.995780 -0.076288
N29   N     N_R   0.091320 0.369190 0.004220 -0.067200
N30   N     N_R   0.091320 0.630810 0.004220 -0.090794
N31   N     N_R   0.908680 0.369190 0.995780 -0.047864
N32   N     N_R   0.421410 0.867210 0.153620 -0.044543
Ni1   Ni    Ni4+2 0.500000 0.131570 0.000000 0.202582
Ni2   Ni    Ni4+2 0.500000 0.868430 0.000000 0.275358
Ni3   Ni    Ni4+2 0.000000 0.631570 0.000000 0.202582
Ni4   Ni    Ni4+2 0.000000 0.368430 0.000000 0.275357
Ni5   Ni    Ni4+2 0.488900 0.000000 0.862310 0.226351
Ni6   Ni    Ni4+2 0.511100 0.000000 0.137690 0.226857
Ni7   Ni    Ni4+2 0.988900 0.500000 0.862310 0.226351
Ni8   Ni    Ni4+2 0.011100 0.500000 0.137690 0.226858
O1    O     O_2   0.378788 0.334317 0.991330 -0.578400
O2    O     O_R   0.386208 0.315990 0.623553 -0.777953
O3    O     O_2   0.682637 0.748218 0.376428 -0.625611
O4    O     O_R   0.727092 0.874654 0.338247 -0.803912
O5    O     O_2   0.556280 0.241025 0.454556 -0.637611
O6    O     O_R   0.647192 0.333117 0.329566 -0.808957
O7    O     O_2   0.312681 0.713198 0.606361 -0.605046
O8    O     O_R   0.313477 0.845653 0.614525 -0.781509
O9    O     O_2   0.850404 0.687675 0.641924 -0.646504
O10   O     O_R   0.886217 0.816000 0.623541 -0.777956
O11   O     O_2   0.182641 0.248228 0.376420 -0.625614
O12   O     O_2   0.616642 0.667488 0.023123 -0.557015
O13   O     O_R   0.227103 0.374662 0.338239 -0.803911
O14   O     O_2   0.056286 0.741015 0.454551 -0.637610
O15   O     O_R   0.147195 0.833109 0.329562 -0.808958
O16   O     O_2   0.812681 0.213188 0.606359 -0.605049
O17   O     O_R   0.813486 0.345644 0.614518 -0.781507
O18   O     O_2   0.721887 0.288017 0.838235 -0.555793
O19   O     O_2   0.436209 0.711537 0.029442 -0.605993
O20   O     O_2   0.878785 0.834316 0.991333 -0.578400
O21   O     O_2   0.116650 0.167488 0.023113 -0.557017
O22   O     O_2   0.221886 0.788018 0.838237 -0.555793
O23   O     O_2   0.936208 0.211536 0.029443 -0.605994
O24   O     O_2   0.350395 0.187666 0.641930 -0.646506

loop_
_geom_bond_atom_site_label_1
_geom_bond_atom_site_label_2
_ccdc_geom_bond_type
C78   C87   S    
C42   N19   A    
C23   C58   A    
C5    O13   S    
H58   O10   S    
C10   C85   S    
C19   H40   S    
N25   Ni7   S    
C12   C74   S    
C43   C59   A    
C31   C66   A    
C18   C21   D    
C103  O3    D    
N17   Ni7   S    
N13   Ni5   S    
C29   N6    A    
C58   C87   S    
C27   N5    A    
C21   C49   S    
C32   C53   A    
C2    C76   S    
C66   C90   S    
N27   Ni2   S    
C5    O11   D    
C33   C52   A    
C65   C89   S    
C62   C86   S    
C31   H63   S    
C34   C51   A    
C50   C54   A    
C93   H44   S    
N5    Ni4   S    
C3    C9    S    
C34   H3    S    
C43   N20   A    
C18   H39   S    
C2    C103  S    
C104  O5    D    
C5    C11   S    
C2    C68   S    
C6    C12   S    
C71   C76   S    
N23   Ni1   S    
C39   C97   S    
C11   C86   S    
C3    O7    D    
C23   H1    S    
C99   H50   S    
N10   Ni6   S    
C77   C94   S    
C80   C89   S    
C38   N16   A    
C12   C84   S    
N29   Ni4   S    
C68   H28   S    
N14   Ni7   S    
C74   C92   S    
C89   C94   S    
C2    C90   S    
C46   H15   S    
C73   C77   S    
C59   C88   S    
N2    Ni1   S    
C69   C82   S    
C43   H11   S    
C15   H37   S    
C37   C56   A    
C50   N28   A    
C19   C52   S    
C42   H10   S    
C38   C55   A    
C13   C75   S    
C44   C58   A    
C56   C72   A    
C1    C49   A    
C35   C49   A    
C8    C79   S    
C69   H29   S    
C57   C83   A    
C17   C95   S    
C25   C60   A    
C70   C84   S    
N14   N31   A    
C75   C91   S    
C7    O16   D    
C10   C71   S    
C25   N3    A    
C79   H21   S    
C29   C64   A    
C26   N4    A    
H53   O2    S    
C27   H45   S    
H55   O6    S    
C102  O24   D    
N15   Ni8   S    
C15   C57   S    
N8    Ni3   S    
C17   C51   A    
C34   N11   A    
C61   C99   S    
C41   C62   A    
N16   N29   A    
C70   C87   S    
C9    C92   S    
C79   C88   S    
C99   O21   D    
C29   H56   S    
C98   O20   D    
C31   N8    A    
H59   O13   S    
C45   H14   S    
H54   O4    S    
C74   H33   S    
N20   Ni5   S    
C50   C98   S    
N15   N30   A    
C67   C80   S    
C15   C19   D    
C14   C20   D    
N7    Ni4   S    
C83   N31   A    
C9    C70   S    
C30   H62   S    
C46   C65   A    
C40   H8    S    
C36   C57   A    
C11   C73   S    
C42   C60   A    
N7    N24   A    
C8    C91   S    
N18   Ni6   S    
C102  O2    S    
C48   C63   A    
C40   N17   A    
C7    O17   S    
C101  H52   S    
C26   H34   S    
C3    O8    S    
C96   H47   S    
C39   N27   A    
C13   C82   S    
C23   N32   A    
C82   C91   S    
N5    N26   A    
C82   H25   S    
C96   O18   D    
N12   Ni2   S    
C16   H38   S    
C73   C89   S    
C77   H19   S    
C44   N21   A    
C67   C94   S    
N8    N22   A    
C72   N30   A    
N9    Ni5   S    
C73   H32   S    
N21   Ni6   S    
C63   C91   S    
N19   Ni5   S    
H61   O17   S    
C95   O12   D    
C8    C69   S    
C101  O23   D    
C95   H46   S    
N28   Ni3   S    
C8    C104  S    
N1    N13   A    
C37   H6    S    
C69   C88   S    
C27   C63   A    
C18   C55   S    
C81   C90   S    
N21   N32   A    
N22   Ni8   S    
C47   H16   S    
C97   O19   D    
H57   O8    S    
C14   H36   S    
C77   C86   S    
C24   H12   S    
C4    O10   S    
C32   H64   S    
C81   H24   S    
C93   O1    D    
N31   Ni4   S    
N24   Ni7   S    
C32   N9    A    
C36   N14   A    
C64   C92   S    
N17   N28   A    
C61   N29   A    
C48   H17   S    
C28   N23   A    
C30   N7    A    
C47   C64   A    
C78   H20   S    
C100  H51   S    
C6    O15   S    
C35   H4    S    
C67   C86   S    
C16   C22   D    
N9    N27   A    
C12   C87   S    
C48   N26   A    
C33   N10   A    
C104  O6    S    
C47   N25   A    
C67   H27   S    
C33   H2    S    
C4    C10   S    
C46   N24   A    
C20   C53   S    
C36   H5    S    
C103  O4    S    
C72   C100  S    
C60   C85   S    
C17   N12   A    
C35   N13   A    
N26   Ni8   S    
C14   C56   S    
C10   C81   S    
C40   C54   A    
N16   Ni8   S    
N3    N19   A    
C28   C96   S    
C76   H18   S    
C24   N2    A    
N3    Ni2   S    
C100  O22   D    
C25   H23   S    
C41   H9    S    
N4    N18   A    
C75   H35   S    
C21   H42   S    
C71   H31   S    
N10   N23   A    
C28   C52   A    
H60   O15   S    
C39   C53   A    
C68   C81   S    
C80   H22   S    
C44   H13   S    
N30   Ni3   S    
C24   C59   A    
C55   C61   A    
C13   C88   S    
C84   H26   S    
N6    Ni3   S    
C97   H48   S    
C71   C90   S    
C41   N18   A    
C68   C85   S    
C9    C78   S    
C26   C62   A    
N4    Ni1   S    
C16   C54   S    
N11   Ni6   S    
C30   C65   A    
C11   C80   S    
N1    Ni1   S    
N11   N12   A    
C45   N22   A    
C7    C13   S    
C22   H43   S    
C94   C102  S    
N6    N25   A    
C1    C93   S    
C4    O9    D    
C74   C78   S    
N2    N20   A    
C45   C66   A    
C70   H30   S    
C83   C101  S    
C20   H41   S    
C1    N1    A    
C84   C92   S    
C6    O14   D    
C38   H7    S    
C75   C79   S    
C76   C85   S    
N32   Ni2   S    
C22   C51   S    
C98   H49   S    
C37   N15   A    
