data_mof_unit_7316.cif
_audit_creation_date              2012-12-11T15:47:06-0500
_audit_creation_method            fapswitch 2.2
_symmetry_space_group_name_H-M    P1
_symmetry_Int_Tables_number       1
_space_group_crystal_system       triclinic
_cell_length_a                    20.164115
_cell_length_b                    7.256633
_cell_length_c                    13.557196
_cell_angle_alpha                 89.816896
_cell_angle_beta                  103.028749
_cell_angle_gamma                 90.172934
_cell_volume                      1932.65502454

loop_
_atom_site_label
_atom_site_type_symbol
_atom_type_description
_atom_site_fract_x
_atom_site_fract_y
_atom_site_fract_z
_atom_type_partial_charge
O1    O     O_R   0.449560 0.506810 0.599700 -0.534717
O2    O     O_R   0.550440 0.006810 0.400300 -0.534591
O3    O     O_R   0.587960 0.180060 0.595760 -0.545875
O4    O     O_R   0.412040 0.680060 0.404240 -0.545987
C1    C     C_R   0.614913 0.344240 0.617547 0.683121
C2    C     C_R   0.385082 0.844152 0.382478 0.682914
O5    O     O_R   0.452380 0.177430 0.611700 -0.538478
O6    O     O_R   0.547620 0.677430 0.388300 -0.538493
O7    O     O_R   0.413900 0.001890 0.416350 -0.540808
O8    O     O_R   0.586100 0.501890 0.583650 -0.540905
C3    C     C_R   0.436305 0.345265 0.637544 0.685810
C4    C     C_R   0.563681 0.846069 0.362477 0.685761
O9    O     O_3   0.487530 0.337490 0.435890 -0.379118
O10   O     O_3   0.512470 0.837490 0.564110 -0.378974
V1    V     V_3+5 0.502310 0.064660 0.511890 1.409539
V2    V     V_3+5 0.497690 0.564660 0.488110 1.408895
C5    C     C_R   0.610086 0.895665 0.110976 -0.159833
C6    C     C_R   0.390163 0.344169 0.890433 -0.160013
H1    H     H_    0.516494 0.891081 0.161100 0.105638
H2    H     H_    0.483731 0.338167 0.840322 0.105381
H3    H     H_    0.693336 0.920302 0.985742 0.123538
H4    H     H_    0.307062 0.343525 0.016369 0.123164
H5    H     H_    0.584173 0.915367 0.032469 0.114799
H6    H     H_    0.416191 0.338836 0.969610 0.114891
C7    C     C_R   0.603623 0.856042 0.285256 -0.025963
C8    C     C_R   0.396410 0.351446 0.714889 -0.025838
C9    C     C_R   0.931880 0.832842 0.316242 -0.170161
C10   C     C_R   0.067978 0.368842 0.682802 -0.168534
C11   C     C_R   0.896476 0.817926 0.392946 0.022031
C12   C     C_R   0.103292 0.369515 0.605673 0.021590
C13   C     C_R   0.825413 0.826948 0.369921 -0.201721
C14   C     C_R   0.174417 0.364801 0.629068 -0.202220
C15   C     C_R   0.787950 0.851391 0.268832 0.067310
C16   C     C_R   0.212028 0.359240 0.730973 0.067437
C17   C     C_R   0.824832 0.867452 0.191003 0.065886
C18   C     C_R   0.175234 0.357517 0.809283 0.065860
C19   C     C_R   0.715221 0.860106 0.242302 0.080735
C20   C     C_R   0.284818 0.355791 0.757842 0.080731
C21   C     C_R   0.681402 0.885463 0.139078 0.139463
C22   C     C_R   0.318786 0.349543 0.861918 0.139602
C23   C     C_R   0.718805 0.900973 0.064499 -0.203251
C24   C     C_R   0.281473 0.348048 0.936962 -0.203076
C25   C     C_R   0.789296 0.891996 0.089812 -0.185582
C26   C     C_R   0.210922 0.352198 0.911295 -0.185594
C27   C     C_R   0.674570 0.845014 0.314458 -0.209352
C28   C     C_R   0.325392 0.357698 0.685236 -0.209417
C29   C     C_R   0.571451 0.881607 0.183779 -0.174157
C30   C     C_R   0.428720 0.344200 0.817239 -0.174055
C31   C     C_R   0.896798 0.857707 0.215868 -0.082297
C32   C     C_R   0.103199 0.362569 0.784017 -0.083799
H7    H     H_    0.696087 0.825968 0.394060 0.096008
H8    H     H_    0.303763 0.362062 0.605005 0.096061
H9    H     H_    0.987025 0.824587 0.334566 0.120471
H10   H     H_    0.012779 0.373913 0.664128 0.123556
H11   H     H_    0.801146 0.814182 0.432730 0.112413
H12   H     H_    0.198614 0.365965 0.565887 0.112397
H13   H     H_    0.815745 0.904715 0.028911 0.114361
H14   H     H_    0.184552 0.350990 0.972585 0.114283
C33   C     C_R   0.217700 0.023276 0.222768 -0.148363
C34   C     C_R   0.783061 0.523014 0.775423 -0.144623
H15   H     H_    0.194043 0.156238 0.203283 0.121520
H16   H     H_    0.807343 0.655802 0.793415 0.122582
C35   C     C_R   0.282888 0.018771 0.286200 -0.160269
C36   C     C_R   0.717851 0.518634 0.712058 -0.160059
H17   H     H_    0.307120 0.147902 0.313668 0.118665
H18   H     H_    0.694220 0.647626 0.683157 0.118509
C37   C     C_R   0.316109 0.850100 0.313815 -0.039780
C38   C     C_R   0.683878 0.350211 0.686225 -0.039781
C39   C     C_R   0.282308 0.686035 0.275967 -0.156604
C40   C     C_R   0.716941 0.186267 0.725808 -0.157170
H19   H     H_    0.306077 0.553187 0.295403 0.118303
H20   H     H_    0.692555 0.053595 0.707828 0.118898
C41   C     C_R   0.217120 0.690496 0.212543 -0.148829
C42   C     C_R   0.782144 0.190608 0.789197 -0.152954
H21   H     H_    0.192998 0.561264 0.185021 0.119983
H22   H     H_    0.805662 0.061528 0.818170 0.119043
C43   C     C_R   0.183768 0.859159 0.185163 -0.034323
C44   C     C_R   0.816249 0.359017 0.814786 -0.034264
O11   O     O_R   0.913920 0.203370 0.916260 -0.541439
O12   O     O_R   0.086080 0.703370 0.083740 -0.540227
O13   O     O_R   0.047620 0.535540 0.888290 -0.533687
O14   O     O_R   0.952380 0.035540 0.111710 -0.535429
C45   C     C_R   0.063617 0.368704 0.862179 0.689180
C46   C     C_R   0.936419 0.867857 0.137825 0.688857
O15   O     O_R   0.912040 0.532780 0.904220 -0.545057
O16   O     O_R   0.087960 0.032780 0.095780 -0.546145
O17   O     O_R   0.949550 0.708160 0.099720 -0.533755
O18   O     O_R   0.050450 0.208160 0.900280 -0.535820
C47   C     C_R   0.885431 0.364876 0.883010 0.674189
C48   C     C_R   0.114574 0.864973 0.116963 0.673883
O19   O     O_3   0.012480 0.375300 0.064060 -0.375441
O20   O     O_3   0.987520 0.875300 0.935940 -0.376166
V3    V     V_3+5 0.997690 0.648180 0.988110 1.446173
V4    V     V_3+5 0.002310 0.148180 0.011890 1.439427
C49   C     C_1   0.933370 0.792299 0.496211 0.306618
N1    N     N_1   0.963008 0.771734 0.579122 -0.363062
C50   C     C_1   0.066225 0.376424 0.501556 0.306158
N2    N     N_1   0.036430 0.382042 0.417972 -0.359575

loop_
_geom_bond_atom_site_label_1
_geom_bond_atom_site_label_2
_ccdc_geom_bond_type
C20   C22   A    
C35   H17   S    
O14   V4    S    
C9    C11   A    
C41   H21   S    
O15   V3    S    
C49   N1    T    
O1    C3    A    
C46   O17   A    
O2    C4    A    
C33   C43   A    
C2    O7    A    
C50   N2    T    
C18   C32   A    
C21   C23   A    
O5    C3    A    
C12   C50   S    
C34   C44   A    
C5    H5    S    
C42   H22   S    
C6    H6    S    
C36   C38   A    
C31   C46   S    
H1    C29   S    
C27   H7    S    
C28   H8    S    
C34   H16   S    
C5    C21   A    
C39   H19   S    
C6    C22   A    
O16   V4    S    
C10   C32   A    
C26   H14   S    
C40   C42   A    
C13   C15   A    
C39   C41   A    
C17   C25   A    
C7    C29   A    
C8    C30   A    
O5    V1    S    
C45   O18   A    
O6    V2    S    
C23   C25   A    
C24   C26   A    
C1    C38   S    
O13   C45   A    
C32   C45   S    
O18   V4    S    
C44   C47   S    
C19   C21   A    
C35   C37   A    
C43   C48   S    
C33   H15   S    
C20   C28   A    
O11   V4    S    
O4    C2    A    
O16   C48   A    
C11   C49   S    
C10   H10   S    
C3    C8    S    
C15   C19   A    
C37   C39   A    
C14   C16   A    
O4    V2    S    
C17   C31   A    
O13   V3    S    
O6    C4    A    
O1    V2    S    
O2    V1    S    
H2    C30   S    
H3    C23   S    
C2    C37   S    
O14   C46   A    
C18   C26   A    
C19   C27   A    
C7    C27   A    
O3    V1    S    
O15   C47   A    
C16   C20   A    
C5    C29   A    
O3    C1    A    
C6    C30   A    
C9    H9    S    
C33   C35   A    
C4    C7    S    
C34   C36   A    
C10   C12   A    
O7    V1    S    
C1    O8    A    
C11   C13   A    
O8    V2    S    
O19   V4    S    
C12   C14   A    
H4    C24   S    
O17   V3    S    
C22   C24   A    
O20   V3    S    
C15   C17   A    
C16   C18   A    
O12   C48   A    
O11   C47   A    
C25   H13   S    
C38   C40   A    
C42   C44   A    
O9    V2    S    
C41   C43   A    
O10   V1    S    
C40   H20   S    
C13   H11   S    
O12   V3    S    
C8    C28   A    
C14   H12   S    
C9    C31   A    
C36   H18   S    
