data_mof_unit_42771.cif
_audit_creation_date              2012-12-10T17:20:23-0500
_audit_creation_method            fapswitch 2.2
_symmetry_space_group_name_H-M    P1
_symmetry_Int_Tables_number       1
_space_group_crystal_system       triclinic
_cell_length_a                    11.706943
_cell_length_b                    10.865197
_cell_length_c                    9.595856
_cell_angle_alpha                 88.748842
_cell_angle_beta                  89.894464
_cell_angle_gamma                 93.034439
_cell_volume                      1218.56855148

loop_
_atom_site_label
_atom_site_type_symbol
_atom_type_description
_atom_site_fract_x
_atom_site_fract_y
_atom_site_fract_z
_atom_type_partial_charge
C1    C     C_R   0.491170 0.262260 0.501642 0.803757
C2    C     C_R   0.306135 0.044142 0.828173 -0.132282
C3    C     C_R   0.304545 0.916549 0.825808 -0.101149
C4    C     C_R   0.356327 0.858287 0.716415 -0.149087
C5    C     C_R   0.417173 0.927035 0.610041 0.089873
C6    C     C_R   0.419384 0.057909 0.613337 0.106422
C7    C     C_R   0.474685 0.127614 0.503266 -0.128712
C8    C     C_R   0.507029 0.068522 0.383162 -0.236489
C9    C     C_R   0.496773 0.942100 0.374443 -0.036610
C10   C     C_R   0.467426 0.869398 0.494516 -0.157549
C11   C     C_R   0.660210 0.655216 0.140221 -0.176436
C12   C     C_R   0.284092 0.499719 0.500118 0.801266
C13   C     C_R   0.741412 0.729549 0.067106 -0.058547
C14   C     C_R   0.740452 0.731257 0.922131 -0.063910
C15   C     C_R   0.658861 0.657929 0.852328 -0.188610
C16   C     C_R   0.578796 0.576727 0.923374 0.201815
C17   C     C_R   0.579160 0.576016 0.072757 0.206718
C18   C     C_R   0.424379 0.427946 0.075953 -0.047025
C19   C     C_R   0.424185 0.428328 0.928151 -0.053519
C20   C     C_R   0.488875 0.736636 0.498388 0.776290
C21   C     C_R   0.715900 0.500524 0.499892 0.821083
C22   C     C_1   0.162397 0.500357 0.500288 -0.173547
C23   C     C_1   0.059931 0.500864 0.500175 0.014130
C24   C     C_1   0.940126 0.501155 0.499902 0.019442
C25   C     C_1   0.837634 0.501021 0.499754 -0.166637
C26   C     C_R   0.359977 0.114132 0.721491 -0.170403
Cu1   Cu    Cu3+1 0.499990 0.499990 0.640660 0.935033
Cu2   Cu    Cu3+1 0.500010 0.500010 0.359340 0.949029
H1    H     H_    0.538294 0.121650 0.292482 0.176038
H2    H     H_    0.661012 0.669535 0.742318 0.206044
H3    H     H_    0.361171 0.370604 0.875035 0.122482
H4    H     H_    0.348211 0.211513 0.721845 0.146705
H5    H     H_    0.261642 0.089128 0.910227 0.137145
H6    H     H_    0.258795 0.862304 0.906051 0.148696
H7    H     H_    0.341283 0.759642 0.713462 0.168003
H8    H     H_    0.362363 0.368836 0.132714 0.136578
H9    H     H_    0.659994 0.668052 0.249522 0.201200
N1    N     N_R   0.501070 0.501210 0.147910 -0.193865
N2    N     N_R   0.501110 0.501290 0.852040 -0.194450
O1    O     O_R   0.499990 0.319640 0.618810 -0.579612
O2    O     O_R   0.500000 0.319660 0.381240 -0.580007
O3    O     O_R   0.337190 0.500000 0.618790 -0.590792
O4    O     O_R   0.337200 0.500030 0.381210 -0.570745
O5    O     O_R   0.500000 0.680340 0.618760 -0.606463
O6    O     O_R   0.500010 0.680360 0.381190 -0.589041
O7    O     O_R   0.662800 0.499970 0.618790 -0.583845
O8    O     O_R   0.662810 0.500000 0.381210 -0.588981
C27   C     C_1   0.821021 0.809956 0.842168 0.253503
N3    N     N_1   0.885459 0.872849 0.778104 -0.271524
C28   C     C_1   0.504004 0.894175 0.235734 0.278386
N4    N     N_1   0.506864 0.859249 0.122844 -0.286650
C29   C     C_1   0.822058 0.807418 0.143685 0.249684
N5    N     N_1   0.886506 0.869684 0.205096 -0.272838

loop_
_geom_bond_atom_site_label_1
_geom_bond_atom_site_label_2
_ccdc_geom_bond_type
C8    C9    A    
C12   O3    A    
C23   C24   S    
Cu2   O8    S    
C26   H4    S    
C6    C7    A    
C13   C29   S    
C9    C10   A    
Cu2   O4    S    
C20   O6    A    
C1    O1    A    
Cu2   N1    S    
Cu1   O1    S    
C19   H3    S    
C2    C3    A    
C18   N1    A    
C4    H7    S    
C5    C10   A    
C2    C26   A    
C13   C14   A    
C24   C25   T    
C11   C13   A    
Cu1   O3    S    
C6    C26   A    
C19   N2    A    
C8    H1    S    
Cu1   O7    S    
C1    O2    A    
C27   N3    T    
C20   O5    A    
C28   N4    T    
C12   O4    A    
C17   N1    A    
C22   C23   T    
C5    C6    A    
Cu2   O6    S    
C16   C17   A    
C16   N2    A    
C15   C16   A    
C12   C22   S    
Cu2   O2    S    
C7    C8    A    
C29   N5    T    
C2    H5    S    
C15   H2    S    
C21   O7    A    
C10   C20   S    
Cu1   Cu2   S    
C11   H9    S    
C21   C25   S    
C14   C15   A    
C18   C19   A    
C14   C27   S    
C3    H6    S    
C1    C7    S    
C18   H8    S    
Cu1   O5    S    
C11   C17   A    
C9    C28   S    
C3    C4    A    
Cu1   N2    S    
C4    C5    A    
C21   O8    A    
