data_mof_unit_13955.cif
_audit_creation_date              2013-03-05T15:44:35-0500
_audit_creation_method            fapswitch 2.2
_symmetry_space_group_name_H-M    P1
_symmetry_Int_Tables_number       1
_space_group_crystal_system       triclinic
_cell_length_a                    27.802779
_cell_length_b                    10.883501
_cell_length_c                    9.687262
_cell_angle_alpha                 90.139006
_cell_angle_beta                  90.55164
_cell_angle_gamma                 90.701492
_cell_volume                      2930.91881474

loop_
_atom_site_label
_atom_site_type_symbol
_atom_site_description
_atom_site_fract_x
_atom_site_fract_y
_atom_site_fract_z
_atom_type_partial_charge
O1    O     O_R   0.500010 0.321960 0.617040 -0.588135
O2    O     O_R   0.499990 0.321920 0.382900 -0.530928
C1    C     C_R   0.500036 0.265132 0.499697 0.893311
O3    O     O_R   0.430270 0.500040 0.617060 -0.599813
O4    O     O_R   0.430260 0.500000 0.382910 -0.584309
C2    C     C_R   0.407457 0.499716 0.499414 0.798805
Cu1   Cu    Cu3+1 0.500010 0.500020 0.638630 0.958696
Cu2   Cu    Cu3+1 0.499990 0.499980 0.361370 0.966837
O5    O     O_R   0.500010 0.678080 0.617100 -0.623239
O6    O     O_R   0.499990 0.678040 0.382960 -0.541873
O7    O     O_R   0.569740 0.500000 0.617090 -0.574110
O8    O     O_R   0.569730 0.499960 0.382940 -0.581697
C3    C     C_R   0.501202 0.735067 0.500015 0.914847
C4    C     C_R   0.592510 0.500456 0.500651 0.785211
C5    C     C_R   0.177375 0.388713 0.476037 0.534487
O9    O     O_2   0.201682 0.283509 0.457118 -0.532376
N1    N     N_R   0.202039 0.496908 0.495533 -0.469955
C6    C     C_R   0.178563 0.605075 0.515327 0.536605
C7    C     C_R   0.278584 0.484667 0.372476 -0.103267
C8    C     C_R   0.328759 0.485906 0.373193 -0.209338
C9    C     C_R   0.329075 0.510627 0.622253 -0.214719
C10   C     C_R   0.278930 0.509999 0.621114 -0.104197
C11   C     C_R   0.253573 0.496940 0.496348 0.360635
C12   C     C_R   0.101838 0.496709 0.497462 -0.047442
C13   C     C_R   0.126862 0.386589 0.476603 -0.019759
C14   C     C_R   0.101094 0.276833 0.458100 -0.143790
C15   C     C_R   0.128096 0.607013 0.516640 -0.022109
C16   C     C_R   0.354475 0.498843 0.498201 -0.032345
H1    H     H_    0.347890 0.520809 0.720096 0.156271
H2    H     H_    0.259701 0.519442 0.717164 0.138635
H3    H     H_    0.119486 0.190590 0.443835 0.187280
C17   C     C_R   0.645412 0.499111 0.502442 -0.091507
C18   C     C_R   0.973594 0.386279 0.471517 0.065564
C19   C     C_R   0.975074 0.606607 0.532270 -0.026385
C20   C     C_R   0.949006 0.496755 0.502368 0.069054
C21   C     C_R   0.945940 0.280520 0.436644 -0.207214
C22   C     C_R   0.896075 0.281999 0.436926 -0.154572
C23   C     C_R   0.871625 0.388826 0.471422 0.014924
C24   C     C_R   0.897821 0.497008 0.504108 -0.111124
C25   C     C_R   0.872725 0.604990 0.538446 -0.142740
C26   C     C_R   0.821939 0.601086 0.539122 0.614462
N2    N     N_R   0.797669 0.494856 0.506548 -0.454549
C27   C     C_R   0.821237 0.389889 0.473028 0.539030
C28   C     C_R   0.721031 0.480031 0.630149 0.493409
C29   C     C_R   0.670574 0.485913 0.627852 -0.323555
C30   C     C_R   0.671146 0.509734 0.379002 -0.240486
C31   C     C_R   0.721191 0.507644 0.381088 -0.199790
C32   C     C_R   0.746153 0.494092 0.506077 0.289509
O10   O     O_2   0.795881 0.286811 0.441680 -0.566973
C33   C     C_R   0.024744 0.385079 0.475696 0.040192
C34   C     C_R   0.050691 0.496552 0.499146 0.069504
C35   C     C_R   0.026112 0.607929 0.524189 0.071392
C36   C     C_R   0.051129 0.275752 0.457939 -0.207465
H4    H     H_    0.651137 0.479747 0.723839 0.178701
H5    H     H_    0.876689 0.198345 0.409505 0.169830
H6    H     H_    0.961590 0.194846 0.405961 0.131771
H7    H     H_    0.034387 0.186630 0.446042 0.136168
O11   O     O_2   0.204016 0.710415 0.533170 -0.529894
C37   C     C_R   0.103571 0.716799 0.535468 -0.146708
H8    H     H_    0.347347 0.476350 0.276098 0.157162
H9    H     H_    0.259088 0.474729 0.275710 0.138893
H10   H     H_    0.122899 0.803265 0.547640 0.188873
C38   C     C_R   0.949147 0.711700 0.571302 -0.291515
C39   C     C_R   0.898941 0.713063 0.570844 0.517888
O12   O     O_2   0.796745 0.702219 0.571203 -0.476120
C40   C     C_R   0.053660 0.717633 0.538453 -0.206002
H11   H     H_    0.966744 0.794728 0.606788 0.156029
H12   H     H_    0.652664 0.520354 0.280900 0.173928
H13   H     H_    0.740745 0.517313 0.285550 0.155791
H14   H     H_    0.037812 0.806882 0.549100 0.136894
C41   C     C_2   0.503493 0.934602 0.385441 0.382691
C42   C     C_2   0.509723 0.866753 0.499717 -0.470282
H15   H     H_    0.525228 0.907442 0.592972 0.106375
C43   C     C_2   0.515662 0.066773 0.394696 0.375763
C44   C     C_2   0.496797 0.132560 0.497824 -0.441442
H16   H     H_    0.476608 0.088240 0.579788 0.124255
C45   C     C_2   0.472394 0.428280 0.922026 0.078162
N3    N     N_2   0.499480 0.498660 0.846910 -0.010508
H17   H     H_    0.443770 0.375586 0.872099 0.076476
C46   C     C_2   0.478576 0.415405 0.076693 -0.008776
N4    N     N_2   0.499460 0.498630 0.153040 -0.263298
H18   H     H_    0.463213 0.334771 0.125722 0.134218
H19   H     H_    0.505218 0.582981 0.108781 0.222608
O13   O     O_3   0.875856 0.818445 0.613260 -0.529988
C47   C     C_3   0.877949 0.906126 0.506329 -0.238513
H20   H     H_    0.855811 0.985898 0.536024 0.204601
H21   H     H_    0.862790 0.868627 0.407811 0.159819
H22   H     H_    0.915335 0.940538 0.490884 0.124827
O14   O     O_3   0.476418 0.886711 0.275373 -0.588142
C48   C     C_3   0.496852 0.913783 0.145791 0.113988
H23   H     H_    0.493237 0.829696 0.081399 0.133924
H24   H     H_    0.536106 0.934224 0.150905 0.143522
C49   C     C_3   0.468864 0.016171 0.073665 -0.315843
H25   H     H_    0.431406 0.983808 0.053006 0.215955
H26   H     H_    0.467102 0.098406 0.141232 0.242338
C50   C     C_3   0.492157 0.052596 0.937461 -0.919443
H27   H     H_    0.529087 0.089399 0.956403 0.271344
H28   H     H_    0.470564 0.125077 0.886612 0.255939
H29   H     H_    0.493846 0.972007 0.867110 0.245340
O15   O     O_3   0.543797 0.123046 0.294762 -0.598380
C51   C     C_3   0.592425 0.088196 0.311881 0.028660
H30   H     H_    0.608842 0.084715 0.207824 0.165312
H31   H     H_    0.596927 0.994829 0.357434 0.116132
C52   C     C_3   0.619779 0.184452 0.398461 -0.352438
H32   H     H_    0.618165 0.274294 0.344755 0.238243
H33   H     H_    0.602621 0.193976 0.500965 0.206735
C53   C     C_3   0.672307 0.149668 0.420023 -0.848902
H34   H     H_    0.674703 0.062125 0.478241 0.256250
H35   H     H_    0.691204 0.222953 0.480145 0.273504
H36   H     H_    0.690475 0.139093 0.319211 0.267046
O16   O     O_3   0.542819 0.525604 0.904975 -0.519150
C54   C     C_3   0.553649 0.650743 0.880286 0.177331
H37   H     H_    0.521272 0.709328 0.890648 0.105489
H38   H     H_    0.568765 0.662819 0.776138 0.191988
C55   C     C_3   0.591972 0.695014 0.984181 -0.425532
H39   H     H_    0.576612 0.697600 0.089541 0.212217
H40   H     H_    0.622486 0.630036 0.985034 0.235381
C56   C     C_3   0.611053 0.822883 0.947643 -0.941909
H41   H     H_    0.630254 0.820170 0.847662 0.270267
H42   H     H_    0.636570 0.855290 0.029166 0.264730
H43   H     H_    0.581102 0.888972 0.939593 0.249236
O17   O     O_3   0.746766 0.470709 0.753017 -0.599114
C57   C     C_3   0.733077 0.364308 0.827926 0.061840
H44   H     H_    0.765911 0.309116 0.845705 0.177569
H45   H     H_    0.706821 0.302399 0.772966 0.126645
C58   C     C_3   0.713023 0.402154 0.968154 -0.336039
H46   H     H_    0.740914 0.455440 0.026442 0.229850
H47   H     H_    0.681354 0.461857 0.952876 0.213803
C59   C     C_3   0.697921 0.290428 0.052936 -0.902033
H48   H     H_    0.669453 0.236736 0.997589 0.257532
H49   H     H_    0.683404 0.321329 0.153306 0.265202
H50   H     H_    0.729309 0.230674 0.073058 0.266031

loop_
_geom_bond_atom_site_label_1
_geom_bond_atom_site_label_2
_geom_bond_distance
_ccdc_geom_bond_type
C49   H25   1.111491 S    
C26   N2    1.366241 A    
C7    C11   1.399603 A    
O16   C54   1.412698 S    
C12   C15   1.408371 A    
C52   H33   1.110934 S    
Cu1   Cu2   2.685884 S    
C40   H14   1.076644 S    
C45   N3    1.297103 D    
Cu1   O7    1.951881 S    
N1    C11   1.432741 S    
C21   C22   1.386722 A    
C37   C40   1.388392 A    
C23   C24   1.410582 A    
O7    C4    1.298775 A    
C57   H45   1.117617 S    
C55   H39   1.110600 S    
C50   H29   1.111155 S    
C18   C21   1.414771 A    
C5    N1    1.367176 A    
C19   C20   1.418331 A    
C17   C29   1.404603 A    
O5    C3    1.294559 A    
C56   H41   1.110912 S    
C31   H13   1.082556 S    
C6    O11   1.349778 S    
C2    C16   1.472892 S    
C7    C8    1.394846 A    
C55   H40   1.111093 S    
C50   H28   1.110468 S    
C53   H34   1.110724 S    
N3    O16   1.353435 S    
C8    H8    1.082960 S    
C1    C44   1.444609 S    
C42   H15   1.088085 S    
C59   H50   1.110722 S    
C12   C34   1.422271 A    
C47   H21   1.114078 S    
C14   H3    1.083560 S    
C49   H26   1.109373 S    
C9    C10   1.394046 A    
C53   H35   1.110410 S    
O3    Cu1   1.948197 S    
C54   H38   1.104197 S    
C52   H32   1.109895 S    
N4    H19   1.025614 S    
N1    C6    1.367039 A    
C45   H17   1.084529 S    
C38   H11   1.076354 S    
C33   C36   1.416439 A    
C43   C44   1.342245 D    
C34   C35   1.420288 A    
C51   H30   1.111303 S    
C57   H44   1.111170 S    
C12   C13   1.408266 A    
C46   H18   1.083948 S    
C24   C25   1.414678 A    
C36   H7    1.076171 S    
C27   O10   1.350042 S    
C57   C58   1.530801 S    
C43   O15   1.389210 S    
C8    C16   1.406249 A    
C58   C59   1.525917 S    
C18   C33   1.422519 A    
C47   H20   1.109333 S    
C9    H1    1.082976 S    
Cu2   N4    2.018076 S    
O1    C1    1.292790 A    
C56   H43   1.109304 S    
C20   C24   1.423372 A    
C44   H16   1.087187 S    
C30   H12   1.083119 S    
C22   C23   1.395473 A    
C21   H6    1.076184 S    
C41   C43   1.476013 S    
C48   H24   1.111749 S    
C31   C32   1.398799 A    
C41   O14   1.395512 S    
Cu2   O8    1.948191 S    
C55   C56   1.526885 S    
C50   H27   1.110968 S    
C33   C34   1.420560 A    
N2    C32   1.432168 S    
O13   C47   1.411269 S    
Cu1   N3    2.017947 S    
O3    C2    1.298910 A    
C25   C26   1.412181 A    
C9    C16   1.406095 A    
O8    C4    1.299006 A    
C29   H4    1.081785 S    
C49   C50   1.526504 S    
C53   H36   1.110187 S    
N2    C27   1.364003 A    
O14   C48   1.413070 S    
C14   C36   1.389052 A    
C35   C40   1.416335 A    
C28   C29   1.405057 A    
C48   C49   1.532957 S    
C59   H48   1.111034 S    
C47   H22   1.112138 S    
Cu1   O5    1.949611 S    
C30   C31   1.391802 A    
C37   H10   1.083563 S    
C58   H47   1.109645 S    
C10   H2    1.082869 S    
O1    Cu1   1.948665 S    
C17   C30   1.403687 A    
Cu2   O6    1.948665 S    
O2    Cu2   1.949611 S    
C6    C15   1.403708 A    
C4    C17   1.471021 S    
C46   N4    1.296214 D    
O6    C3    1.291320 A    
O4    Cu2   1.951884 S    
C26   O12   1.349132 S    
C3    C42   1.449806 S    
C51   C52   1.530762 S    
C19   C35   1.421804 A    
C25   C39   1.409272 A    
C39   O13   1.384565 S    
O2    C1    1.290554 A    
C13   C14   1.395647 A    
C41   C42   1.343199 D    
C15   C37   1.395416 A    
C45   C46   1.513509 S    
C48   H23   1.109285 S    
O4    C2    1.299791 A    
C7    H9    1.082837 S    
C58   H46   1.111519 S    
C28   O17   1.387406 S    
C19   C38   1.412153 A    
C18   C20   1.422898 A    
C54   H37   1.114638 S    
C54   C55   1.531266 S    
C56   H42   1.110450 S    
C5    C13   1.404362 A    
C38   C39   1.396088 A    
C22   H5    1.083518 S    
C28   C32   1.403677 A    
C23   C27   1.401369 A    
C51   H31   1.116777 S    
C10   C11   1.399399 A    
O15   C51   1.416978 S    
O17   C57   1.418112 S    
C52   C53   1.525728 S    
C5    O9    1.349674 S    
C59   H49   1.109366 S    
