data_mof_unit_54521.cif
_audit_creation_date              2012-12-11T15:47:03-0500
_audit_creation_method            fapswitch 2.2
_symmetry_space_group_name_H-M    P1
_symmetry_Int_Tables_number       1
_space_group_crystal_system       triclinic
_cell_length_a                    11.540764
_cell_length_b                    11.534378
_cell_length_c                    19.576514
_cell_angle_alpha                 90.497061
_cell_angle_beta                  90.098925
_cell_angle_gamma                 59.917747
_cell_volume                      2254.8405603

loop_
_atom_site_label
_atom_site_type_symbol
_atom_type_description
_atom_site_fract_x
_atom_site_fract_y
_atom_site_fract_z
_atom_type_partial_charge
C1    C     C_R   0.640432 0.117281 0.599325 0.545710
C2    C     C_1   0.652954 0.149543 0.668705 0.003276
C3    C     C_R   0.645383 0.694109 0.186406 0.005724
C4    C     C_R   0.612458 0.746123 0.598710 0.546116
C5    C     C_R   0.532432 0.712305 0.222521 -0.015208
C6    C     C_R   0.528041 0.724190 0.291726 0.017928
C7    C     C_R   0.732265 0.731995 0.291517 -0.131601
C8    C     C_R   0.735889 0.724519 0.219862 0.226517
C9    C     C_3   0.461313 0.632682 0.225255 -0.259419
C10   C     C_3   0.456719 0.648097 0.301955 -0.269707
C11   C     C_R   0.633644 0.719439 0.327954 -0.033757
C12   C     C_1   0.641249 0.704129 0.668081 0.003409
C13   C     C_R   0.154335 0.194776 0.189271 0.009159
C14   C     C_R   0.158269 0.292658 0.229858 0.010031
C15   C     C_R   0.181547 0.274026 0.298382 0.029583
C16   C     C_R   0.241170 0.145241 0.598264 0.545688
C17   C     C_R   0.219348 0.049693 0.288371 -0.161481
C18   C     C_R   0.195327 0.068341 0.217825 -0.170552
C19   C     C_3   0.056250 0.437659 0.240102 -0.230898
C20   C     C_3   0.083455 0.416369 0.315900 -0.282815
C21   C     C_R   0.202939 0.157192 0.329966 0.012712
C22   C     C_R   0.677766 0.182478 0.194053 -0.000110
C23   C     C_1   0.126518 0.198833 0.859234 0.003011
C24   C     C_R   0.780312 0.074718 0.229521 0.027663
C25   C     C_R   0.769824 0.056679 0.297461 0.037623
C26   C     C_R   0.547162 0.249483 0.298052 -0.158657
C27   C     C_R   0.557130 0.266610 0.228005 -0.176923
C28   C     C_R   0.643769 0.112645 0.402465 0.543708
C29   C     C_3   0.925505 0.032059 0.236016 -0.252273
C30   C     C_3   0.913429 0.011092 0.311183 -0.276462
C31   C     C_R   0.657911 0.147839 0.333837 0.012104
C32   C     C_R   0.081636 0.231202 0.928528 0.545655
C33   C     C_R   0.683937 0.604305 0.929448 0.538386
C34   C     C_1   0.171637 0.170294 0.727735 -0.030789
C35   C     C_R   0.708410 0.206709 0.930080 0.544604
C36   C     C_R   0.085043 0.235189 0.124507 0.536575
C37   C     C_R   0.680283 0.615945 0.123984 0.538682
C38   C     C_R   0.709353 0.211346 0.127178 0.534540
C39   C     C_R   0.613692 0.745579 0.400285 0.545928
C40   C     C_R   0.246843 0.139095 0.400443 0.543327
C41   C     C_1   0.670346 0.646332 0.860089 0.003753
C42   C     C_1   0.654739 0.683838 0.728479 -0.031258
C43   C     C_1   0.663389 0.666640 0.799699 -0.031079
C44   C     C_3   0.782972 0.833821 0.137205 -0.095064
C45   C     C_1   0.150072 0.182331 0.798924 -0.030872
C46   C     C_1   0.195521 0.160882 0.667451 0.003220
C47   C     C_1   0.678639 0.191342 0.860726 0.002702
C48   C     C_1   0.658555 0.167120 0.729058 -0.030859
C49   C     C_1   0.665724 0.180904 0.800324 -0.030840
Cr1   Cr    Cr6+3 0.404720 0.198220 0.499960 1.024425
Cr2   Cr    Cr6+3 0.698290 0.897110 0.500380 1.025453
Cr3   Cr    Cr6+3 0.396970 0.904720 0.499610 1.024962
Cr4   Cr    Cr6+3 0.926290 0.152010 0.028150 1.012777
Cr5   Cr    Cr6+3 0.921440 0.451830 0.027490 1.038255
Cr6   Cr    Cr6+3 0.626370 0.446880 0.028730 1.019363
H1    H     H_    0.806666 0.746237 0.318116 0.155984
H2    H     H_    0.927360 0.081242 0.344925 0.133027
H3    H     H_    0.524926 0.526438 0.209246 0.169724
H4    H     H_    0.360622 0.686288 0.201247 0.132806
H5    H     H_    0.353654 0.711800 0.322333 0.137644
H6    H     H_    0.518658 0.551905 0.329080 0.138910
H7    H     H_    0.247136 0.953543 0.310317 0.137158
H8    H     H_    0.198539 0.988229 0.187110 0.126462
H9    H     H_    0.953581 0.460370 0.226236 0.173856
H10   H     H_    0.693985 0.926233 0.157209 0.112339
H11   H     H_    0.755547 0.800890 0.089513 0.130409
H12   H     H_    0.088709 0.504988 0.217594 0.175245
H13   H     H_    0.860132 0.860100 0.123506 0.150588
H14   H     H_    0.132999 0.470241 0.337071 0.142350
H15   H     H_    0.996495 0.427687 0.345848 0.132681
H16   H     H_    0.453761 0.315833 0.323966 0.142163
H17   H     H_    0.474030 0.347986 0.201611 0.124612
H18   H     H_    0.943515 0.116374 0.226170 0.157006
H19   H     H_    0.991440 0.937491 0.207660 0.143201
H20   H     H_    0.970523 0.904013 0.326207 0.144440
O1    O     O_R   0.267750 0.231960 0.575440 -0.505376
O2    O     O_R   0.596230 0.579400 0.952760 -0.505003
O3    O     O_R   0.639160 0.321170 0.958690 -0.491284
O4    O     O_R   0.527290 0.186640 0.570530 -0.494407
O5    O     O_R   0.821370 0.124220 0.104400 -0.531962
O6    O     O_R   0.037020 0.167050 0.097880 -0.511966
O7    O     O_R   0.056310 0.349620 0.102920 -0.506991
O8    O     O_R   0.797790 0.564880 0.097980 -0.474946
O9    O     O_R   0.596000 0.584270 0.104310 -0.531257
O10   O     O_R   0.638950 0.325690 0.099180 -0.506137
O11   O     O_3   0.824700 0.350240 0.028120 -0.253500
O12   O     O_R   0.685950 0.784660 0.430010 -0.510594
O13   O     O_R   0.728110 0.003450 0.576380 -0.505366
O14   O     O_R   0.682980 0.789190 0.570500 -0.493448
O15   O     O_R   0.499300 0.771880 0.575540 -0.504664
O16   O     O_R   0.285350 0.030870 0.569740 -0.493856
O17   O     O_R   0.270960 0.227070 0.423890 -0.516376
O18   O     O_R   0.530270 0.182120 0.430040 -0.509804
O19   O     O_R   0.731320 0.998570 0.424830 -0.516336
O20   O     O_3   0.838105 0.729931 0.185759 -0.577545
O21   O     O_R   0.502510 0.767000 0.423980 -0.513381
O22   O     O_R   0.288320 0.026340 0.429250 -0.507679
O23   O     O_3   0.499990 0.000020 0.499980 -0.254234
O24   O     O_R   0.821590 0.119350 0.952850 -0.508207
O25   O     O_R   0.037230 0.162540 0.957390 -0.493623
O26   O     O_R   0.056530 0.344750 0.951370 -0.504738
O27   O     O_R   0.798000 0.560370 0.957490 -0.499874

loop_
_geom_bond_atom_site_label_1
_geom_bond_atom_site_label_2
_ccdc_geom_bond_type
C25   C31   A    
C23   C45   T    
Cr5   O26   S    
C44   H11   S    
C19   C20   S    
C32   O26   A    
C39   O12   A    
C35   C47   S    
Cr1   O4    S    
C7    C8    A    
C47   C49   T    
Cr4   O24   S    
C7    C11   A    
C26   C27   A    
C13   C18   A    
C28   O19   A    
C1    C2    S    
C5    C6    A    
Cr6   O2    S    
C18   H8    S    
C29   H18   S    
C22   C38   S    
C30   H2    S    
Cr3   O22   S    
Cr4   O6    S    
C9    H3    S    
C24   C29   S    
C12   C42   T    
Cr3   O15   S    
C36   O7    A    
C37   O9    A    
C19   H12   S    
Cr4   O11   S    
C34   C46   T    
C4    C12   S    
C9    C10   S    
C19   H9    S    
C1    O13   A    
C26   C31   A    
C13   C14   A    
C26   H16   S    
C41   C43   T    
C20   H15   S    
C44   H10   S    
C8    O20   S    
C7    H1    S    
C35   O24   A    
Cr5   O8    S    
C4    O15   A    
Cr4   O25   S    
C15   C20   S    
Cr1   O23   S    
C38   O10   A    
C33   O27   A    
Cr4   O5    S    
C24   C25   A    
C13   C36   S    
C3    C8    A    
C16   C46   S    
C6    C11   A    
Cr5   O11   S    
Cr6   O3    S    
C29   H19   S    
C2    C48   T    
C17   C21   A    
C32   O25   A    
C28   O18   A    
C9    H4    S    
Cr6   O10   S    
C10   H5    S    
C5    C9    S    
C29   C30   S    
Cr1   O1    S    
C17   H7    S    
C36   O6    A    
C17   C18   A    
C34   C45   S    
C40   O17   A    
C11   C39   S    
Cr1   O17   S    
C48   C49   S    
C22   C27   A    
C1    O4    A    
C22   C24   A    
C20   H14   S    
C44   H13   S    
C10   H6    S    
C42   C43   S    
Cr2   O12   S    
Cr5   O7    S    
C4    O14   A    
C25   C30   S    
C16   O1    A    
C14   C19   S    
Cr5   O27   S    
C28   C31   S    
C3    C5    A    
Cr2   O13   S    
C6    C10   S    
Cr1   O18   S    
C35   O3    A    
C33   C41   S    
C23   C32   S    
Cr6   O11   S    
C40   O22   A    
C44   O20   S    
Cr2   O14   S    
C30   H20   S    
C33   O2    A    
C21   C40   S    
C38   O5    A    
Cr2   O23   S    
Cr3   O23   S    
Cr3   O21   S    
C39   O21   A    
Cr2   O19   S    
C15   C21   A    
C3    C37   S    
C16   O16   A    
C14   C15   A    
C37   O8    A    
Cr3   O16   S    
Cr6   O9    S    
C27   H17   S    
