data_mof_unit_26051.cif
_audit_creation_date              2012-12-11T14:08:25-0500
_audit_creation_method            fapswitch 2.2
_symmetry_space_group_name_H-M    P1
_symmetry_Int_Tables_number       1
_space_group_crystal_system       triclinic
_cell_length_a                    10.907904
_cell_length_b                    10.984298
_cell_length_c                    18.630587
_cell_angle_alpha                 90.314126
_cell_angle_beta                  89.57174
_cell_angle_gamma                 60.076497
_cell_volume                      1934.49840291

loop_
_atom_site_label
_atom_site_type_symbol
_atom_type_description
_atom_site_fract_x
_atom_site_fract_y
_atom_site_fract_z
_atom_type_partial_charge
C1    C     C_R   0.237044 0.645441 0.609028 0.596731
C2    C     C_2   0.783207 0.153631 0.706455 -0.175103
C3    C     C_2   0.183169 0.662054 0.682218 -0.074469
C4    C     C_R   0.653268 0.621936 0.601530 0.581790
C5    C     C_2   0.197870 0.660847 0.839886 -0.123050
C6    C     C_2   0.195914 0.559550 0.800397 -0.181443
C7    C     C_2   0.223928 0.547871 0.723111 -0.175665
C8    C     C_2   0.605608 0.596152 0.309663 -0.109808
C9    C     C_2   0.628602 0.657962 0.156682 -0.121582
C10   C     C_2   0.693765 0.528214 0.184489 -0.167731
C11   C     C_2   0.700371 0.500572 0.262354 -0.019456
C12   C     C_3   0.678365 0.547970 0.800890 -0.256564
C13   C     C_2   0.677177 0.130924 0.334724 -0.096400
C14   C     C_2   0.652126 0.143656 0.179404 -0.112700
C15   C     C_2   0.642445 0.050762 0.222172 -0.132456
C16   C     C_R   0.628287 0.227597 0.601932 0.552108
C17   C     C_2   0.603428 0.083855 0.297484 -0.025879
C18   C     C_2   0.120717 0.681588 0.345652 -0.084427
C19   C     C_2   0.112237 0.692092 0.191112 -0.089615
C20   C     C_2   0.041390 0.805273 0.234722 -0.152195
C21   C     C_2   0.072473 0.800950 0.310320 -0.170183
C22   C     C_R   0.703286 0.102420 0.897631 0.547691
C23   C     C_3   0.699604 0.674808 0.812633 0.045207
C24   C     C_R   0.723426 0.688197 0.888534 0.547057
C25   C     C_R   0.120088 0.705796 0.907702 0.549603
C26   C     C_R   0.674428 0.107966 0.104483 0.542073
C27   C     C_R   0.690774 0.687443 0.094010 0.551671
C28   C     C_R   0.215197 0.651529 0.404838 0.564657
C29   C     C_R   0.085908 0.713792 0.115455 0.552150
C30   C     C_R   0.612393 0.582864 0.388265 0.583505
C31   C     C_R   0.621186 0.222387 0.397200 0.539785
C32   C     C_3   0.567923 0.809654 0.784201 -0.240531
C33   C     C_3   0.546198 0.791407 0.704636 -0.251431
C34   C     C_3   0.669488 0.648534 0.676702 0.036858
C35   C     C_3   0.832441 0.653564 0.769787 -0.233570
C36   C     C_2   0.825819 0.366977 0.283714 0.262859
C37   C     C_3   0.470332 0.086581 0.325905 -0.209469
C38   C     C_3   0.427098 0.995689 0.282413 -0.326485
C39   C     C_3   0.298164 0.996686 0.315483 -0.437682
C40   C     C_2   0.828406 0.750074 0.646834 0.203057
C41   C     C_3   0.814241 0.640225 0.688767 -0.102029
C42   C     C_3   0.664850 0.529684 0.720448 -0.236957
C43   C     C_2   0.675244 0.156690 0.670705 -0.119283
C44   C     C_2   0.689487 0.167247 0.827921 -0.122494
C45   C     C_2   0.801862 0.121466 0.783474 -0.179044
Cr1   Cr    Cr6+3 0.393010 0.398050 0.501480 1.031370
Cr2   Cr    Cr6+3 0.398820 0.707980 0.501630 1.007051
Cr3   Cr    Cr6+3 0.708140 0.393940 0.496850 1.052907
Cr4   Cr    Cr6+3 0.937950 0.938450 0.008940 1.015764
Cr5   Cr    Cr6+3 0.626180 0.937030 0.994750 1.013203
Cr6   Cr    Cr6+3 0.937790 0.625760 0.001410 1.021285
H1    H     H_    0.582888 0.902290 0.790610 0.139998
H2    H     H_    0.278434 0.442833 0.699759 0.155085
H3    H     H_    0.235994 0.726721 0.816809 0.098869
H4    H     H_    0.471413 0.831366 0.815324 0.126480
H5    H     H_    0.126231 0.767170 0.705418 0.101861
H6    H     H_    0.771673 0.441893 0.151326 0.145699
H7    H     H_    0.546337 0.747467 0.185382 0.088227
H8    H     H_    0.510910 0.685655 0.289727 0.076783
H9    H     H_    0.651446 0.954774 0.199944 0.147206
H10   H     H_    0.643564 0.240799 0.199283 0.070509
H11   H     H_    0.776004 0.116408 0.312464 0.081077
H12   H     H_    0.753269 0.425253 0.703460 0.137548
H13   H     H_    0.969925 0.908426 0.213087 0.157743
H14   H     H_    0.443256 0.794258 0.698695 0.145147
H15   H     H_    0.074429 0.890944 0.333505 0.151107
H16   H     H_    0.185304 0.587626 0.210426 0.090664
H17   H     H_    0.109119 0.595693 0.324098 0.133147
H18   H     H_    0.539423 0.880360 0.673269 0.113958
H19   H     H_    0.852210 0.741863 0.781714 0.116563
H20   H     H_    0.769380 0.450551 0.822287 0.138424
H21   H     H_    0.581172 0.564905 0.829679 0.117630
H22   H     H_    0.564377 0.529426 0.710417 0.123139
H23   H     H_    0.927600 0.555673 0.787434 0.129784
H24   H     H_    0.839471 0.268615 0.263041 0.064876
H25   H     H_    0.320635 0.956209 0.371133 0.185083
H26   H     H_    0.205876 0.104986 0.316239 0.188241
H27   H     H_    0.271315 0.928435 0.282922 0.146369
H28   H     H_    0.401428 0.034518 0.226485 0.177338
H29   H     H_    0.517444 0.886994 0.281615 0.164751
H30   H     H_    0.489671 0.046427 0.381774 0.179161
H31   H     H_    0.380842 0.196594 0.325704 0.181740
H32   H     H_    0.767454 0.859919 0.662379 0.107529
H33   H     H_    0.900490 0.534917 0.670489 0.160180
H34   H     H_    0.908621 0.055389 0.802937 0.152300
H35   H     H_    0.856663 0.178610 0.679816 0.148080
H36   H     H_    0.583205 0.234321 0.808008 0.107391
H37   H     H_    0.607709 0.123281 0.696931 0.095298
H38   H     H_    0.165428 0.488162 0.823892 0.150116
O1    O     O_R   0.507110 0.256280 0.580300 -0.522188
O2    O     O_R   0.837080 0.593860 0.915300 -0.529219
O3    O     O_R   0.064770 0.636080 0.932550 -0.499452
O4    O     O_R   0.280830 0.527190 0.577940 -0.480786
O5    O     O_R   0.068250 0.829200 0.092940 -0.516964
O6    O     O_R   0.799650 0.057040 0.080330 -0.503252
O7    O     O_R   0.586130 0.079760 0.077080 -0.507877
O8    O     O_R   0.627700 0.809630 0.066580 -0.503258
O9    O     O_R   0.816140 0.597180 0.075920 -0.503791
O10   O     O_R   0.045360 0.639170 0.081440 -0.488947
O11   O     O_3   0.833980 0.833750 0.001700 -0.251036
O12   O     O_R   0.524640 0.695370 0.425100 -0.509286
O13   O     O_R   0.261360 0.738990 0.584270 -0.521755
O14   O     O_R   0.532590 0.694780 0.574370 -0.509071
O15   O     O_R   0.744470 0.503750 0.577000 -0.513874
O16   O     O_R   0.698520 0.277230 0.571620 -0.501081
O17   O     O_R   0.498530 0.256920 0.419280 -0.527383
O18   O     O_R   0.272880 0.527780 0.428680 -0.492411
O19   O     O_R   0.252780 0.739630 0.423250 -0.529547
O20   O     O_2   0.921693 0.366528 0.317299 -0.483193
O21   O     O_2   0.908475 0.716179 0.595094 -0.495661
O22   O     O_R   0.735890 0.504390 0.415980 -0.429393
O23   O     O_R   0.690560 0.277820 0.422350 -0.513834
O24   O     O_3   0.499990 0.499990 0.499980 -0.289520
O25   O     O_R   0.089190 0.825870 0.932320 -0.518297
O26   O     O_R   0.819070 0.053960 0.931440 -0.494304
O27   O     O_R   0.607070 0.076440 0.916460 -0.520435
O28   O     O_R   0.647110 0.806550 0.917690 -0.509965

loop_
_geom_bond_atom_site_label_1
_geom_bond_atom_site_label_2
_ccdc_geom_bond_type
C35   H23   S    
C16   O1    A    
Cr2   O12   S    
C21   H15   S    
C18   C21   D    
C15   H9    S    
C19   C20   D    
C34   C42   S    
C33   H14   S    
C27   O9    A    
C12   C23   S    
C24   O28   A    
C43   H37   S    
C39   H26   S    
C11   C36   S    
C3    C7    D    
C8    H8    S    
C29   O5    A    
C38   H28   S    
C28   O18   A    
C18   H17   S    
Cr5   O28   S    
C4    O14   A    
Cr1   O17   S    
Cr6   O11   S    
C15   C17   S    
C9    H7    S    
C32   H1    S    
C12   C42   S    
Cr6   O2    S    
C22   C44   S    
C13   H11   S    
C35   H19   S    
Cr5   O8    S    
C23   C24   S    
C19   H16   S    
Cr4   O5    S    
C44   H36   S    
C9    C10   D    
C32   H4    S    
C33   H18   S    
Cr6   O9    S    
C22   O27   A    
Cr4   O25   S    
C12   H21   S    
Cr2   O13   S    
Cr6   O10   S    
C40   H32   S    
C37   H30   S    
C34   C41   S    
C2    C45   S    
C26   O7    A    
C38   C39   S    
C4    C34   S    
Cr2   O14   S    
C29   O10   A    
C39   H27   S    
C5    H3    S    
C10   H6    S    
C18   C28   S    
C27   O8    A    
C40   O21   D    
C14   H10   S    
Cr4   O6    S    
C1    C3    S    
C20   H13   S    
C45   H34   S    
C37   C38   S    
C36   H24   S    
Cr6   O3    S    
C3    H5    S    
Cr3   O16   S    
C2    C43   D    
C31   O23   A    
Cr1   O18   S    
C33   C34   S    
C17   C37   S    
C39   H25   S    
C14   C26   S    
C16   C43   S    
C16   O16   A    
C5    C25   S    
C22   O26   A    
Cr3   O23   S    
C12   H20   S    
C23   C35   S    
C31   O17   A    
C37   H31   S    
C7    H2    S    
C19   C29   S    
C24   O2    A    
C44   C45   D    
C9    C27   S    
C26   O6    A    
Cr2   O24   S    
C40   C41   S    
C25   O3    A    
Cr1   O24   S    
Cr4   O26   S    
C13   C31   S    
C6    C7    S    
Cr1   O1    S    
C6    H38   S    
Cr5   O11   S    
C13   C17   D    
C30   O22   A    
C8    C30   S    
C23   C32   S    
C25   O25   A    
C32   C33   S    
Cr4   O11   S    
C41   H33   S    
Cr5   O7    S    
C5    C6    D    
Cr1   O4    S    
C38   H29   S    
C28   O19   A    
C8    C11   D    
C4    O15   A    
C30   O12   A    
C42   H22   S    
C2    H35   S    
Cr5   O27   S    
C35   C41   S    
C1    O13   A    
C10   C11   S    
Cr3   O22   S    
C20   C21   S    
C1    O4    A    
Cr2   O19   S    
C36   O20   D    
C14   C15   D    
C42   H12   S    
Cr3   O24   S    
Cr3   O15   S    
