data_mof_unit_35338.cif
_audit_creation_date              2012-12-11T15:27:09-0500
_audit_creation_method            fapswitch 2.2
_symmetry_space_group_name_H-M    P1
_symmetry_Int_Tables_number       1
_space_group_crystal_system       triclinic
_cell_length_a                    13.788635
_cell_length_b                    13.913589
_cell_length_c                    27.427782
_cell_angle_alpha                 90.252806
_cell_angle_beta                  89.852349
_cell_angle_gamma                 119.531832
_cell_volume                      4578.32941461

loop_
_atom_site_label
_atom_site_type_symbol
_atom_type_description
_atom_site_fract_x
_atom_site_fract_y
_atom_site_fract_z
_atom_type_partial_charge
C1    C     C_R   0.233614 0.787455 0.568383 0.538744
C2    C     C_R   0.212694 0.446723 0.568639 0.541489
C3    C     C_R   0.552741 0.765393 0.568846 0.538829
C4    C     C_3   0.676241 0.740242 0.788306 -0.251154
C5    C     C_3   0.232100 0.964929 0.779589 -0.260592
C6    C     C_3   0.100958 0.353952 0.790698 -0.244993
C7    C     C_3   0.652699 0.726205 0.732618 -0.227884
C8    C     C_3   0.251925 0.946547 0.725566 -0.229410
C9    C     C_3   0.110921 0.384096 0.735980 -0.230734
C10   C     C_1   0.701715 0.859304 0.859659 -0.043635
C11   C     C_1   0.113449 0.880638 0.851299 -0.046497
C12   C     C_1   0.122345 0.237033 0.851606 -0.069025
C13   C     C_1   0.625296 0.812734 0.658977 -0.073416
C14   C     C_1   0.176302 0.819409 0.655510 -0.073562
C15   C     C_1   0.182080 0.362268 0.656399 -0.075545
C16   C     C_1   0.599330 0.795481 0.616666 -0.015378
C17   C     C_1   0.198599 0.806729 0.614517 -0.015170
C18   C     C_1   0.194240 0.395303 0.615206 -0.015672
C19   C     C_R   0.071251 0.163043 0.941451 0.533018
C20   C     C_R   0.779237 0.886765 0.949070 0.542922
C21   C     C_R   0.091148 0.929022 0.941886 0.530933
C22   C     C_R   0.611640 0.805280 0.384874 -0.030654
C23   C     C_R   0.193918 0.802303 0.384284 -0.026919
C24   C     C_R   0.189492 0.375885 0.387579 -0.020956
C25   C     C_R   0.600243 0.886899 0.359727 -0.097735
C26   C     C_R   0.122592 0.707983 0.356996 -0.096467
C27   C     C_R   0.278848 0.383888 0.359759 -0.095709
C28   C     C_R   0.625778 0.905376 0.310454 0.269315
C29   C     C_R   0.105637 0.715692 0.307640 0.272151
C30   C     C_R   0.261022 0.334874 0.313650 0.278659
C31   C     C_R   0.670767 0.845680 0.286888 0.000373
C32   C     C_R   0.155727 0.821316 0.286081 0.002487
C33   C     C_R   0.150627 0.272572 0.296107 0.002462
C34   C     C_R   0.233185 0.786787 0.431340 0.547179
C35   C     C_R   0.212456 0.444967 0.431399 0.551497
C36   C     C_R   0.554090 0.766256 0.431417 0.549089
C37   C     C_R   0.690512 0.770587 0.313000 -0.155365
C38   C     C_R   0.220274 0.916293 0.314180 -0.150070
C39   C     C_R   0.061066 0.258361 0.325521 -0.161002
C40   C     C_R   0.660047 0.749536 0.361685 -0.116028
C41   C     C_R   0.240587 0.906849 0.362995 -0.104490
C42   C     C_R   0.080284 0.310364 0.370739 -0.106598
C43   C     C_R   0.638523 0.763412 0.204423 -0.086933
C44   C     C_R   0.241127 0.882125 0.204739 -0.078292
C45   C     C_R   0.148669 0.157627 0.225134 -0.056423
C46   C     C_R   0.661257 0.773345 0.154728 -0.116355
C47   C     C_R   0.231430 0.895993 0.155168 -0.111687
C48   C     C_R   0.131895 0.132698 0.175410 -0.126420
C49   C     C_R   0.788455 0.969798 0.165876 -0.107705
C50   C     C_R   0.030389 0.810524 0.164527 -0.114730
C51   C     C_R   0.068397 0.266070 0.165785 -0.100565
C52   C     C_R   0.769392 0.958939 0.215562 -0.057708
C53   C     C_R   0.040562 0.799938 0.214083 -0.065429
C54   C     C_R   0.086587 0.291913 0.215018 -0.084543
C55   C     C_R   0.693268 0.856251 0.234833 0.055825
C56   C     C_R   0.145611 0.834604 0.234163 0.050507
C57   C     C_R   0.127341 0.238506 0.244862 0.053822
C58   C     C_R   0.736427 0.876662 0.135407 0.022397
C59   C     C_R   0.125962 0.860505 0.134989 0.012980
C60   C     C_R   0.091800 0.186866 0.145432 0.008636
C61   C     C_R   0.067263 0.155180 0.093951 0.551819
C62   C     C_R   0.778250 0.885569 0.086198 0.542054
C63   C     C_R   0.115340 0.893649 0.086126 0.552759
C64   C     C_3   0.548487 0.833319 0.737586 -0.194364
C65   C     C_3   0.156892 0.739572 0.737747 -0.195913
C66   C     C_3   0.284203 0.368170 0.731746 -0.188312
C67   C     C_3   0.755269 0.932992 0.723437 -0.220371
C68   C     C_3   0.044398 0.829555 0.714260 -0.218033
C69   C     C_3   0.097895 0.202891 0.712583 -0.213309
C70   C     C_3   0.775526 0.944213 0.779164 -0.210396
C71   C     C_3   0.026956 0.845450 0.768858 -0.211284
C72   C     C_3   0.077952 0.169849 0.766932 -0.204162
C73   C     C_1   0.731156 0.871138 0.901562 -0.023452
C74   C     C_1   0.102930 0.901184 0.892921 -0.022981
C75   C     C_1   0.100354 0.204766 0.892949 -0.039478
C76   C     C_3   0.645385 0.826171 0.711791 0.052024
C77   C     C_3   0.157465 0.833439 0.706950 0.050331
C78   C     C_3   0.169021 0.329779 0.707836 0.055664
C79   C     C_3   0.562132 0.834441 0.793964 0.062276
C80   C     C_3   0.152019 0.762538 0.793022 0.067140
C81   C     C_3   0.271074 0.329303 0.786196 0.057407
C82   C     C_3   0.678451 0.846940 0.807046 0.101984
C83   C     C_3   0.128292 0.861062 0.799948 0.096368
C84   C     C_3   0.144145 0.271601 0.800337 0.105619
Cr1   Cr    Cr6+3 0.164410 0.584450 0.499910 1.035129
Cr2   Cr    Cr6+3 0.415550 0.579960 0.499910 1.036198
Cr3   Cr    Cr6+3 0.420040 0.835590 0.499910 1.036176
Cr4   Cr    Cr6+3 0.156760 0.076070 0.017830 1.039893
Cr5   Cr    Cr6+3 0.923930 0.080690 0.017830 1.024730
Cr6   Cr    Cr6+3 0.919310 0.843240 0.017830 1.027117
H1    H     H_    0.467096 0.761031 0.727070 0.083186
H2    H     H_    0.233719 0.734547 0.730268 0.081553
H3    H     H_    0.334648 0.459950 0.730474 0.082908
H4    H     H_    0.498648 0.750720 0.806806 0.115584
H5    H     H_    0.237717 0.792049 0.807414 0.115062
H6    H     H_    0.317755 0.404491 0.809288 0.115866
H7    H     H_    0.757282 0.743981 0.795860 0.109083
H8    H     H_    0.220127 0.037798 0.782296 0.150789
H9    H     H_    0.012216 0.317336 0.802152 0.116443
H10   H     H_    0.562858 0.930401 0.377436 0.192303
H11   H     H_    0.086788 0.626746 0.373191 0.191951
H12   H     H_    0.363418 0.434552 0.372664 0.187150
H13   H     H_    0.579856 0.683465 0.219339 0.160162
H14   H     H_    0.322756 0.909673 0.220351 0.182764
H15   H     H_    0.178631 0.114617 0.248053 0.138081
H16   H     H_    0.622649 0.700623 0.131631 0.139810
H17   H     H_    0.305833 0.936887 0.132905 0.146942
H18   H     H_    0.148687 0.070342 0.160495 0.121088
H19   H     H_    0.814734 0.030154 0.239026 0.145740
H20   H     H_    0.966917 0.766320 0.236901 0.147352
H21   H     H_    0.070240 0.354844 0.229819 0.168194
H22   H     H_    0.849031 0.049718 0.151728 0.122867
H23   H     H_    0.948459 0.785968 0.149910 0.140542
H24   H     H_    0.036569 0.308669 0.143675 0.164014
H25   H     H_    0.725554 0.725066 0.295039 0.136888
H26   H     H_    0.258350 0.997507 0.297721 0.142945
H27   H     H_    0.976264 0.211915 0.312123 0.136367
H28   H     H_    0.546192 0.908009 0.725007 0.126112
H29   H     H_    0.085298 0.658640 0.726791 0.126050
H30   H     H_    0.330157 0.336410 0.709580 0.116495
H31   H     H_    0.669636 0.686393 0.380456 0.162708
H32   H     H_    0.295967 0.980430 0.383476 0.162324
H33   H     H_    0.010106 0.302654 0.391680 0.156339
H34   H     H_    0.826392 0.931451 0.704860 0.111283
H35   H     H_    0.041977 0.895646 0.692452 0.113017
H36   H     H_    0.016238 0.172539 0.693949 0.108856
H37   H     H_    0.751601 0.006225 0.709621 0.109582
H38   H     H_    0.975147 0.748989 0.701243 0.110650
H39   H     H_    0.141152 0.162534 0.694634 0.118626
H40   H     H_    0.789977 0.025763 0.791758 0.105823
H41   H     H_    0.947272 0.775918 0.781545 0.106259
H42   H     H_    0.102436 0.106675 0.774286 0.125902
H43   H     H_    0.854389 0.943674 0.786948 0.093103
H44   H     H_    0.016588 0.919226 0.772817 0.087826
H45   H     H_    0.987725 0.132488 0.775029 0.093302
H46   H     H_    0.573070 0.648493 0.725720 0.112576
H47   H     H_    0.333839 0.949529 0.722077 0.116143
H48   H     H_    0.159003 0.475551 0.731945 0.109588
H49   H     H_    0.720213 0.718440 0.713855 0.119218
H50   H     H_    0.255721 0.014678 0.703021 0.125385
H51   H     H_    0.026364 0.355508 0.720603 0.121353
H52   H     H_    0.611161 0.666448 0.807800 0.104796
H53   H     H_    0.307642 0.984416 0.801415 0.107480
H54   H     H_    0.149747 0.430388 0.812709 0.106979
O1    O     O_R   0.137310 0.468260 0.552980 -0.510804
O2    O     O_R   0.531740 0.669050 0.552980 -0.510197
O3    O     O_R   0.330950 0.862690 0.552980 -0.509188
O4    O     O_R   0.180530 0.983530 0.965090 -0.501704
O5    O     O_R   0.016470 0.197000 0.965090 -0.477796
O6    O     O_R   0.803000 0.819470 0.965090 -0.511685
O7    O     O_R   0.174120 0.688790 0.549730 -0.500000
O8    O     O_R   0.311210 0.485330 0.549730 -0.500002
O9    O     O_R   0.514670 0.825880 0.549730 -0.498469
O10   O     O_R   0.139940 0.470480 0.446230 -0.503934
O11   O     O_R   0.529520 0.669460 0.446230 -0.506536
O12   O     O_R   0.330540 0.860060 0.446230 -0.500837
O13   O     O_R   0.176560 0.690850 0.450770 -0.507811
O14   O     O_R   0.309150 0.485710 0.450770 -0.504289
O15   O     O_R   0.514290 0.823440 0.450770 -0.504506
O16   O     O_3   0.333333 0.666667 0.499990 -0.268057
O17   O     O_3   1.000000 0.000000 0.017910 -0.296153
O18   O     O_R   0.149710 0.171070 0.967700 -0.493272
O19   O     O_R   0.828930 0.978640 0.967700 -0.516944
O20   O     O_R   0.021360 0.850290 0.967700 -0.474045
O21   O     O_R   0.178510 0.985930 0.071830 -0.518491
O22   O     O_R   0.014070 0.192580 0.071830 -0.499695
O23   O     O_R   0.807420 0.821490 0.071830 -0.511872
O24   O     O_R   0.147830 0.173300 0.066650 -0.452873
O25   O     O_R   0.826700 0.974530 0.066650 -0.514152
O26   O     O_R   0.025470 0.852170 0.066650 -0.490175
N1    N     N_2   0.533600 0.910695 0.818518 -0.516702
H55   H     H_    0.450738 0.888358 0.814401 0.234644
C85   C     C_3   0.607160 0.028885 0.815720 -0.294853
H56   H     H_    0.636316 0.055214 0.777858 0.128664
H57   H     H_    0.561902 0.072283 0.827920 0.127605
H58   H     H_    0.678424 0.054167 0.840954 0.161333
N2    N     N_2   0.080885 0.662281 0.820631 -0.511421
H59   H     H_    0.110334 0.606959 0.820395 0.238997
C86   C     C_3   0.960729 0.608847 0.816751 -0.291521
H60   H     H_    0.933775 0.600131 0.778145 0.126031
H61   H     H_    0.923096 0.524814 0.832754 0.132052
H62   H     H_    0.929076 0.655253 0.838281 0.162176
N3    N     N_2   0.320085 0.257593 0.792634 -0.541676
H63   H     H_    0.388948 0.278772 0.770959 0.241539
C87   C     C_3   0.341033 0.235671 0.842033 -0.310289
H64   H     H_    0.406989 0.211771 0.841897 0.125891
H65   H     H_    0.369265 0.309740 0.865694 0.152714
H66   H     H_    0.265274 0.164655 0.857305 0.163556
S1    S     S_3+6 0.589258 0.994732 0.279347 -0.002280
O27   O     O_2   0.691082 0.106514 0.274193 -0.289502
O28   O     O_2   0.543449 0.949296 0.229648 -0.279896
O29   O     O_3   0.492340 0.008299 0.311254 -0.537918
H67   H     H_    0.477943 0.060039 0.292001 0.380132
S2    S     S_3+6 0.030761 0.590959 0.273987 0.004143
O30   O     O_2   0.913225 0.567839 0.266539 -0.294408
O31   O     O_2   0.084745 0.600276 0.225242 -0.254982
O32   O     O_3   0.027990 0.485453 0.304911 -0.539026
H68   H     H_    0.969228 0.417833 0.288907 0.371193
S3    S     S_3+6 0.378921 0.362493 0.277622 0.007549
O33   O     O_2   0.388773 0.259807 0.274285 -0.293727
O34   O     O_2   0.366033 0.396853 0.227243 -0.263225
O35   O     O_3   0.495741 0.464344 0.302951 -0.537646
H69   H     H_    0.555497 0.480236 0.278915 0.376440

loop_
_geom_bond_atom_site_label_1
_geom_bond_atom_site_label_2
_ccdc_geom_bond_type
C53   H20   S    
C58   C62   S    
C65   H2    S    
S2    O31   D    
N1    H55   S    
C72   H45   S    
Cr6   O23   S    
C2    C18   S    
C24   C42   A    
C15   C18   T    
C24   C27   A    
C70   H40   S    
Cr6   O6    S    
C28   S1    S    
C81   C84   S    
C71   H44   S    
C24   C35   S    
C44   H14   S    
C85   H56   S    
C2    O1    A    
C40   H31   S    
N1    C85   S    
C45   C57   A    
C33   C39   A    
Cr3   O3    S    
C50   C59   A    
Cr1   O1    S    
C37   C40   A    
Cr2   O8    S    
C4    C7    S    
C26   H11   S    
C4    H52   S    
C5    C83   S    
C10   C73   T    
C5    H53   S    
C15   C78   S    
C29   S2    S    
C3    O9    A    
C64   H28   S    
Cr3   O16   S    
C12   C84   S    
S1    O28   D    
C61   O22   A    
C14   C77   S    
C79   N1    S    
C23   C26   A    
C36   O15   A    
C19   O5    A    
C20   O6    A    
Cr4   O24   S    
C22   C25   A    
C54   H21   S    
C70   H43   S    
C35   O10   A    
C48   C60   A    
C26   C29   A    
Cr1   O16   S    
C32   C38   A    
C51   C54   A    
C68   H38   S    
C1    O7    A    
C44   C47   A    
Cr1   O10   S    
C86   H62   S    
C49   C52   A    
Cr5   O5    S    
C62   O23   A    
S3    O33   D    
C21   O20   A    
C66   H30   S    
C4    H7    S    
C67   H34   S    
C27   C30   A    
C32   C56   S    
C14   C17   T    
C69   C78   S    
O32   H68   S    
Cr1   O13   S    
C6    C9    S    
C80   C83   S    
Cr2   O2    S    
Cr5   O17   S    
C45   H15   S    
C42   H33   S    
C72   H42   S    
C39   C42   A    
C71   C83   S    
C85   H57   S    
C2    O8    A    
C66   C78   S    
C50   C53   A    
C6    C84   S    
O35   H69   S    
Cr6   O17   S    
C51   H24   S    
C21   O4    A    
C80   N2    S    
C65   C77   S    
C38   C41   A    
C81   H6    S    
C9    H51   S    
C87   H66   S    
N2    C86   S    
C39   H27   S    
C20   O19   A    
C47   C59   A    
C21   C74   S    
C10   C82   S    
C49   C58   A    
C31   C37   A    
Cr6   O20   S    
C60   C61   S    
C25   C28   A    
C19   O18   A    
C41   H32   S    
S1    O29   S    
Cr2   O11   S    
Cr1   O7    S    
N3    H63   S    
C67   H37   S    
S3    O35   S    
C38   H26   S    
C9    H48   S    
C44   C56   A    
C25   H10   S    
C13   C76   S    
C23   C34   S    
C22   C40   A    
Cr6   O26   S    
Cr3   O9    S    
C64   C76   S    
C80   H5    S    
Cr2   O14   S    
C72   C84   S    
C79   H4    S    
C49   H22   S    
S2    O30   D    
C43   C55   A    
C69   H36   S    
Cr4   O21   S    
C47   H17   S    
C66   H3    S    
C8    C77   S    
C64   C79   S    
C1    O3    A    
C5    C8    S    
C81   N3    S    
C6    H54   S    
C69   C72   S    
S3    O34   D    
C45   C48   A    
C68   C77   S    
C62   O25   A    
C33   C57   S    
C30   C33   A    
C1    C17   S    
C28   C31   A    
C63   O26   A    
C11   C74   T    
C79   C82   S    
C52   C55   A    
C7    C76   S    
C37   H25   S    
C34   O12   A    
C29   C32   A    
C22   C36   S    
C27   H12   S    
C59   C63   S    
C23   C41   A    
C8    H50   S    
C50   H23   S    
C11   C83   S    
C6    H9    S    
C67   C70   S    
C51   C60   A    
N3    C87   S    
C13   C16   T    
C35   O14   A    
Cr5   O25   S    
C7    H46   S    
O29   H67   S    
C66   C81   S    
C7    H49   S    
Cr4   O4    S    
C87   H64   S    
C48   H18   S    
C52   H19   S    
C61   O24   A    
C68   C71   S    
Cr4   O18   S    
C46   H16   S    
C19   C75   S    
C85   H58   S    
Cr3   O15   S    
C20   C73   S    
C30   S3    S    
C9    C78   S    
S1    O27   D    
C70   C82   S    
C43   C46   A    
C43   H13   S    
Cr5   O22   S    
C65   H29   S    
C87   H65   S    
C71   H41   S    
C86   H60   S    
S2    O32   S    
C34   O13   A    
C63   O21   A    
C4    C82   S    
C5    H8    S    
C3    O2    A    
C69   H39   S    
N2    H59   S    
C12   C75   T    
C53   C56   A    
C65   C80   S    
Cr3   O12   S    
C8    H47   S    
C67   C76   S    
C64   H1    S    
C31   C55   S    
Cr2   O16   S    
C68   H35   S    
Cr5   O19   S    
C46   C58   A    
C3    C16   S    
Cr4   O17   S    
C36   O11   A    
C86   H61   S    
C54   C57   A    
