data_mof_unit_29790.cif
_audit_creation_date              2012-12-10T18:23:02-0500
_audit_creation_method            fapswitch 2.2
_symmetry_space_group_name_H-M    P1
_symmetry_Int_Tables_number       1
_space_group_crystal_system       triclinic
_cell_length_a                    14.902573
_cell_length_b                    14.019397
_cell_length_c                    10.517989
_cell_angle_alpha                 90.037448
_cell_angle_beta                  90.838588
_cell_angle_gamma                 90.472886
_cell_volume                      2197.1609112

loop_
_atom_site_label
_atom_site_type_symbol
_atom_type_description
_atom_site_fract_x
_atom_site_fract_y
_atom_site_fract_z
_atom_type_partial_charge
C1    C     C_R   0.327019 0.499583 0.499123 1.054999
C2    C     C_R   0.672992 0.500241 0.501324 1.057575
C3    C     C_R   0.953216 0.502251 0.501870 -0.111904
C4    C     C_R   0.046845 0.501277 0.501927 -0.098834
C5    C     C_R   0.905439 0.538224 0.394765 -0.100471
C6    C     C_R   0.094753 0.469164 0.610917 -0.100560
C7    C     C_R   0.954893 0.440203 0.718816 -0.260003
C8    C     C_R   0.045387 0.570129 0.289070 -0.290240
C9    C     C_R   0.048423 0.445318 0.722476 0.496961
C10   C     C_R   0.952217 0.577021 0.291154 0.530102
C11   C     C_R   0.556556 0.798522 0.421633 0.038939
C12   C     C_R   0.442733 0.201612 0.577098 0.059029
C13   C     C_R   0.443140 0.797571 0.577575 0.013211
C14   C     C_R   0.556697 0.202608 0.422265 0.018668
C15   C     C_R   0.441301 0.898363 0.579353 -0.090603
C16   C     C_R   0.559309 0.101951 0.421486 -0.093847
C17   C     C_R   0.558276 0.899422 0.419462 -0.117234
C18   C     C_R   0.440453 0.100811 0.578268 -0.114706
C19   C     C_R   0.500118 0.949549 0.499965 -0.056840
C20   C     C_R   0.500106 0.050675 0.500129 -0.057746
C21   C     C_R   0.382033 0.948421 0.658191 0.358876
C22   C     C_R   0.619424 0.052002 0.344062 0.373251
C23   C     C_R   0.616013 0.951021 0.338470 0.337496
C24   C     C_R   0.379280 0.049455 0.654066 0.359649
C25   C     C_R   0.500550 0.500115 0.257400 1.057872
C26   C     C_R   0.499629 0.499889 0.742636 1.055017
C27   C     C_3   0.507840 0.589723 0.040266 0.575017
C28   C     C_3   0.492696 0.410209 0.959936 0.619629
C29   C     C_3   0.576560 0.538156 0.959111 0.630996
C30   C     C_3   0.423924 0.461868 0.041014 0.633778
C31   C     C_3   0.429282 0.551866 0.956935 -0.482609
C32   C     C_3   0.571224 0.448182 0.043268 -0.435595
C33   C     C_3   0.499150 0.499529 0.877016 -0.391951
C34   C     C_3   0.501312 0.500452 0.123079 -0.386541
C35   C     C_R   0.811984 0.536665 0.396023 0.494079
C36   C     C_R   0.188140 0.465900 0.606879 0.478544
C37   C     C_R   0.768185 0.500703 0.501654 -0.350032
C38   C     C_R   0.231855 0.498620 0.499241 -0.334629
C39   C     C_R   0.814239 0.466289 0.607828 0.545135
C40   C     C_R   0.185728 0.532945 0.393301 0.536837
C41   C     C_R   0.907304 0.468265 0.609661 -0.050266
C42   C     C_R   0.092746 0.534022 0.393589 -0.034337
H1    H     H_    0.371901 0.593353 0.918538 0.204722
H2    H     H_    0.628528 0.406531 0.081798 0.228649
H3    H     H_    0.919825 0.417305 0.803156 0.217176
H4    H     H_    0.080563 0.595693 0.206699 0.193804
H5    H     H_    0.600403 0.758092 0.361075 0.195177
H6    H     H_    0.398561 0.242167 0.637000 0.201096
H7    H     H_    0.399173 0.756334 0.637800 0.166874
H8    H     H_    0.599311 0.243986 0.360468 0.166413
N1    N     N_R   0.500000 0.750030 0.500000 -0.132714
N2    N     N_R   0.500000 0.249970 0.500000 -0.135065
O1    O     O_R   0.367850 0.580280 0.500030 -0.628466
O2    O     O_R   0.632150 0.419720 0.499970 -0.631818
O3    O     O_R   0.632150 0.580280 0.499970 -0.615632
O4    O     O_R   0.367850 0.419720 0.500030 -0.613260
O5    O     O_R   0.499970 0.580260 0.313950 -0.577058
O6    O     O_R   0.500030 0.419740 0.686050 -0.570445
O7    O     O_R   0.500030 0.580260 0.686050 -0.641479
O8    O     O_R   0.499970 0.419740 0.313950 -0.629515
Zn1   Zn    Zn3+2 0.500000 0.607200 0.500000 1.007665
Zn2   Zn    Zn3+2 0.500000 0.392800 0.500000 1.025440
F1    F     F_    0.517946 0.681549 0.086230 -0.673825
F2    F     F_    0.483297 0.317784 0.915318 -0.597527
F3    F     F_    0.654252 0.578670 0.912235 -0.600791
F4    F     F_    0.346106 0.421655 0.087922 -0.586914
F5    F     F_    0.762490 0.567132 0.294356 -0.630050
F6    F     F_    0.237576 0.432502 0.706888 -0.636571
F7    F     F_    0.768030 0.433540 0.709836 -0.629512
F8    F     F_    0.231789 0.564697 0.290553 -0.655661
O9    O     O_3   0.094858 0.428807 0.835433 -0.581703
C43   C     C_3   0.084339 0.507240 0.919314 0.159508
H9    H     H_    0.115208 0.487288 0.012217 0.211172
H10   H     H_    0.012262 0.521331 0.937917 0.132353
C44   C     C_3   0.131639 0.598454 0.871521 -0.347326
H11   H     H_    0.203592 0.583746 0.854452 0.263642
H12   H     H_    0.100098 0.622185 0.780732 0.204577
C45   C     C_3   0.124541 0.680081 0.966544 -0.974869
H13   H     H_    0.054002 0.688523 0.996431 0.263523
H14   H     H_    0.146089 0.747854 0.921506 0.271177
H15   H     H_    0.168463 0.666652 0.050660 0.301959
O10   O     O_3   0.906664 0.620342 0.191126 -0.572043
C46   C     C_3   0.922732 0.720225 0.193680 0.071886
H16   H     H_    0.900016 0.749563 0.100656 0.168978
H17   H     H_    0.995439 0.738344 0.203053 0.116973
C47   C     C_3   0.869779 0.769408 0.299112 -0.294855
H18   H     H_    0.796794 0.756908 0.283194 0.282037
H19   H     H_    0.888811 0.739602 0.393413 0.202718
C48   C     C_3   0.888909 0.876348 0.302021 -0.938622
H20   H     H_    0.961401 0.890168 0.320788 0.255128
H21   H     H_    0.849983 0.909428 0.379319 0.272641
H22   H     H_    0.869200 0.909487 0.210095 0.266223
O11   O     O_3   0.320849 0.897622 0.729908 -0.659108
C49   C     C_3   0.338518 0.909921 0.861595 0.131205
H23   H     H_    0.279278 0.945150 0.903460 0.187468
H24   H     H_    0.398747 0.955054 0.885019 0.140158
C50   C     C_3   0.351399 0.811978 0.922939 -0.415072
H25   H     H_    0.299615 0.761482 0.885904 0.241018
H26   H     H_    0.417990 0.783623 0.896763 0.237085
C51   C     C_3   0.344940 0.817134 0.067492 -0.816585
H27   H     H_    0.397906 0.865206 0.107177 0.253757
H28   H     H_    0.353548 0.744837 0.108650 0.316165
H29   H     H_    0.278048 0.843902 0.095168 0.244420
O12   O     O_3   0.678984 0.102136 0.268836 -0.641796
C52   C     C_3   0.765647 0.103288 0.326432 0.121866
H30   H     H_    0.813343 0.074372 0.256328 0.180438
H31   H     H_    0.772003 0.058863 0.414302 0.119657
C53   C     C_3   0.793471 0.206050 0.358737 -0.367743
H32   H     H_    0.785334 0.251738 0.273059 0.247906
H33   H     H_    0.749787 0.234007 0.434586 0.227880
C54   C     C_3   0.890794 0.211977 0.405635 -0.920684
H34   H     H_    0.900025 0.168320 0.492869 0.266531
H35   H     H_    0.908477 0.287235 0.428489 0.275196
H36   H     H_    0.936706 0.186168 0.331063 0.266056
O13   O     O_3   0.672061 0.902940 0.257114 -0.654914
C55   C     C_3   0.630738 0.899045 0.135422 0.079987
H37   H     H_    0.623979 0.972098 0.094942 0.178269
H38   H     H_    0.563070 0.864922 0.140361 0.178418
C56   C     C_3   0.688569 0.839749 0.046784 -0.273972
H39   H     H_    0.756891 0.871758 0.042470 0.203385
H40   H     H_    0.694446 0.766033 0.084725 0.285680
C57   C     C_3   0.648436 0.835535 0.912454 -0.843314
H41   H     H_    0.580662 0.802268 0.913408 0.291334
H42   H     H_    0.692034 0.792001 0.850844 0.285940
H43   H     H_    0.643492 0.908382 0.871587 0.237627
O14   O     O_3   0.318021 0.097612 0.727431 -0.626950
C58   C     C_3   0.238939 0.111267 0.654185 0.049169
H44   H     H_    0.206515 0.041264 0.631476 0.167865
H45   H     H_    0.253705 0.149568 0.563843 0.138706
C59   C     C_3   0.173541 0.171280 0.730394 -0.246829
H46   H     H_    0.155636 0.132566 0.818790 0.221594
H47   H     H_    0.206271 0.240011 0.757527 0.297098
C60   C     C_3   0.088083 0.191854 0.653741 -0.935228
H48   H     H_    0.103984 0.234840 0.568136 0.270479
H49   H     H_    0.040896 0.232699 0.713164 0.284343
H50   H     H_    0.054739 0.124145 0.623891 0.252995

loop_
_geom_bond_atom_site_label_1
_geom_bond_atom_site_label_2
_ccdc_geom_bond_type
O6    Zn2   S    
O11   C49   S    
C27   C29   S    
C11   H5    S    
C19   C20   A    
N1    Zn1   S    
C12   H6    S    
C4    C42   A    
C6    C9    A    
C50   H25   S    
C39   C41   A    
C55   H37   S    
C15   C19   A    
C52   H31   S    
C17   C23   A    
C31   H1    S    
C18   C24   A    
C7    H3    S    
C35   C37   A    
C1    O4    A    
C8    C42   A    
C29   C32   S    
C2    O3    A    
C30   C31   S    
C45   H14   S    
O13   C55   S    
C29   C33   S    
C22   O12   S    
C53   H32   S    
O8    Zn2   S    
C1    O1    A    
C50   H26   S    
C13   N1    A    
O1    Zn1   S    
C14   N2    A    
C54   H34   S    
C6    C36   A    
C60   H50   S    
C31   C33   S    
C25   O8    A    
C48   H21   S    
C26   O7    A    
C18   C20   A    
C45   H15   S    
C25   C34   S    
C40   C42   A    
C24   O14   S    
C25   O5    A    
C43   C44   S    
O12   C52   S    
C12   N2    A    
C56   H40   S    
C27   C34   S    
C39   F7    S    
C52   C53   S    
O7    Zn1   S    
C30   C34   S    
C47   H19   S    
C27   C31   S    
C55   C56   S    
C28   C32   S    
C11   N1    A    
C43   H10   S    
C2    O2    A    
C45   H13   S    
O2    Zn2   S    
C49   C50   S    
C10   O10   S    
C51   H29   S    
C32   C34   S    
C59   H47   S    
C44   H11   S    
C58   H45   S    
C26   O6    A    
C26   C33   S    
C46   H16   S    
C35   F5    S    
C16   C20   A    
C51   H28   S    
C32   H2    S    
C54   H35   S    
C48   H22   S    
C49   H24   S    
C44   H12   S    
C30   F4    S    
C27   F1    S    
C1    C38   S    
C55   H38   S    
C29   F3    S    
C28   F2    S    
C4    C6    A    
C46   H17   S    
C28   C33   S    
C13   C15   A    
C13   H7    S    
C60   H48   S    
O4    Zn2   S    
C59   C60   S    
C57   H42   S    
C58   H44   S    
C50   C51   S    
C56   C57   S    
C7    C9    A    
C11   C17   A    
C16   C22   A    
C47   H18   S    
C5    C35   A    
C9    O9    S    
C43   H9    S    
C3    C5    A    
C47   C48   S    
C56   H39   S    
C36   F6    S    
O5    Zn1   S    
C52   H30   S    
C40   F8    S    
C53   C54   S    
C57   H43   S    
C28   C30   S    
C59   H46   S    
C57   H41   S    
C58   C59   S    
C5    C10   A    
C37   C39   A    
N2    Zn2   S    
C38   C40   A    
C2    C37   S    
C14   H8    S    
C15   C21   A    
C21   O11   S    
O14   C58   S    
O3    Zn1   S    
C36   C38   A    
C51   H27   S    
C17   C19   A    
C53   H33   S    
C54   H36   S    
C14   C16   A    
C7    C41   A    
C49   H23   S    
C44   C45   S    
C8    H4    S    
C3    C41   A    
C23   O13   S    
O9    C43   S    
C46   C47   S    
C8    C10   A    
O10   C46   S    
C21   C24   A    
C12   C18   A    
C60   H49   S    
C22   C23   A    
C48   H20   S    
C3    C4    A    
