data_mof_unit_58576.cif
_audit_creation_date              2012-12-10T19:46:50-0500
_audit_creation_method            fapswitch 2.2
_symmetry_space_group_name_H-M    P1
_symmetry_Int_Tables_number       1
_space_group_crystal_system       triclinic
_cell_length_a                    10.95017
_cell_length_b                    10.891596
_cell_length_c                    13.086491
_cell_angle_alpha                 91.214378
_cell_angle_beta                  91.351601
_cell_angle_gamma                 87.549344
_cell_volume                      1558.57844535

loop_
_atom_site_label
_atom_site_type_symbol
_atom_type_description
_atom_site_fract_x
_atom_site_fract_y
_atom_site_fract_z
_atom_type_partial_charge
C1    C     C_R   0.512729 0.259655 0.499174 0.824254
C2    C     C_R   0.491731 0.740999 0.501177 0.821431
C3    C     C_R   0.872961 0.494539 0.503302 -0.127368
C4    C     C_R   0.126792 0.498524 0.496575 -0.132208
C5    C     C_R   0.942602 0.491625 0.595326 0.047566
C6    C     C_R   0.057156 0.497561 0.404356 0.042486
C7    C     C_R   0.590459 0.178388 0.151568 -0.142561
C8    C     C_R   0.400242 0.813277 0.844765 -0.119086
C9    C     C_R   0.539944 0.143519 0.242849 -0.157606
C10   C     C_R   0.455639 0.838144 0.752854 -0.143669
C11   C     C_R   0.615383 0.104634 0.325229 0.094771
C12   C     C_R   0.390416 0.902537 0.675718 0.061255
C13   C     C_R   0.744246 0.098477 0.314512 0.183578
C14   C     C_R   0.267744 0.945199 0.693214 0.198338
C15   C     C_R   0.793083 0.131697 0.221050 -0.171200
C16   C     C_R   0.215039 0.921386 0.787321 -0.173398
C17   C     C_R   0.716770 0.171844 0.140525 -0.092191
C18   C     C_R   0.280624 0.855605 0.862188 -0.108618
C19   C     C_R   0.547957 0.927783 0.418988 -0.248238
C20   C     C_R   0.472766 0.072150 0.585381 -0.214204
C21   C     C_R   0.498034 0.873393 0.503682 -0.101238
C22   C     C_R   0.514943 0.126992 0.498491 -0.101818
C23   C     C_R   0.259171 0.501538 0.498651 0.833931
C24   C     C_R   0.740685 0.496298 0.501321 0.823996
C25   C     C_R   0.457965 0.946872 0.587667 -0.008096
C26   C     C_R   0.557301 0.054229 0.415405 0.014225
C27   C     C_1   0.500028 0.499629 0.173485 0.181848
C28   C     C_1   0.500201 0.499437 0.826503 0.171492
C29   C     C_1   0.500142 0.499107 0.050690 -0.020706
C30   C     C_1   0.500308 0.498941 0.949297 -0.007496
C31   C     C_R   0.164958 0.637320 0.165280 -0.232074
C32   C     C_R   0.861261 0.362897 0.847279 -0.243654
C33   C     C_R   0.136785 0.620472 0.266760 -0.235739
C34   C     C_R   0.885689 0.371674 0.743879 -0.256047
C35   C     C_R   0.109447 0.504290 0.301027 0.100441
C36   C     C_R   0.890331 0.486641 0.698741 0.096936
C37   C     C_R   0.114794 0.400877 0.232686 0.135372
C38   C     C_R   0.865330 0.595082 0.757816 0.122251
C39   C     C_R   0.138394 0.419668 0.127042 0.149217
C40   C     C_R   0.851673 0.586239 0.865516 0.128436
C41   C     C_R   0.163334 0.539403 0.095023 0.378076
C42   C     C_R   0.847333 0.468636 0.908747 0.393198
C43   C     C_R   0.930936 0.496243 0.409237 -0.251563
C44   C     C_R   0.068942 0.492884 0.590497 -0.235782
Cu1   Cu    Cu3+1 0.499990 0.499990 0.592680 0.973163
Cu2   Cu    Cu3+1 0.500010 0.500010 0.407320 0.982675
H1    H     H_    0.890437 0.124002 0.209394 0.117805
H2    H     H_    0.122722 0.954578 0.803235 0.136566
H3    H     H_    0.581081 0.871490 0.355211 0.160113
H4    H     H_    0.444481 0.128073 0.650840 0.168028
H5    H     H_    0.184300 0.728490 0.140293 0.166794
H6    H     H_    0.858785 0.273025 0.880825 0.162556
H7    H     H_    0.132356 0.699459 0.318520 0.146082
H8    H     H_    0.904311 0.288427 0.699172 0.158443
H9    H     H_    0.877593 0.497668 0.338285 0.192289
H10   H     H_    0.122307 0.491065 0.661431 0.194474
H11   H     H_    0.755615 0.195618 0.068683 0.168593
H12   H     H_    0.238860 0.838560 0.934377 0.168527
H13   H     H_    0.531552 0.207665 0.088382 0.140572
H14   H     H_    0.450786 0.763662 0.903848 0.146498
H15   H     H_    0.441702 0.143217 0.248374 0.127353
H16   H     H_    0.550722 0.810222 0.742760 0.131318
N1    N     N_1   0.500030 0.500030 0.268070 -0.135745
N2    N     N_1   0.499970 0.499970 0.731930 -0.139737
O1    O     O_R   0.499980 0.319630 0.578260 -0.586059
O2    O     O_R   0.500020 0.680370 0.421740 -0.581385
O3    O     O_R   0.500000 0.319650 0.421740 -0.575310
O4    O     O_R   0.500000 0.680350 0.578260 -0.581763
O5    O     O_R   0.319630 0.500000 0.578260 -0.572912
O6    O     O_R   0.680370 0.500000 0.421740 -0.569767
O7    O     O_R   0.319650 0.500020 0.421740 -0.572470
O8    O     O_R   0.680350 0.499980 0.578260 -0.585608
Cl1   Cl    Cl    0.191758 0.572698 0.966625 -0.735814
Cl2   Cl    Cl    0.827905 0.449615 0.040738 -0.740733
C45   C     C_3   0.830553 0.050781 0.398339 -0.427609
C46   C     C_3   0.846338 0.145435 0.484799 -0.830836
H17   H     H_    0.884873 0.230020 0.455469 0.251805
H18   H     H_    0.758218 0.169777 0.521373 0.241799
H19   H     H_    0.909970 0.106406 0.544102 0.242157
H20   H     H_    0.797310 0.964552 0.429406 0.210502
H21   H     H_    0.922436 0.027203 0.367194 0.197703
C47   C     C_3   0.191231 0.016034 0.613908 -0.442678
C48   C     C_3   0.158830 0.147669 0.650207 -0.839128
H22   H     H_    0.242473 0.198070 0.669324 0.262124
H23   H     H_    0.107292 0.197491 0.588748 0.243751
H24   H     H_    0.100598 0.147861 0.718487 0.244741
H25   H     H_    0.237663 0.019449 0.539701 0.213738
H26   H     H_    0.105753 0.967847 0.597313 0.199652
C49   C     C_3   0.093483 0.273558 0.273736 -0.413531
C50   C     C_3   0.195442 0.230099 0.347950 -0.820836
H27   H     H_    0.285450 0.257899 0.321663 0.264857
H28   H     H_    0.180184 0.268726 0.425605 0.249012
H29   H     H_    0.197067 0.128384 0.353230 0.227351
H30   H     H_    0.004441 0.274457 0.312271 0.214487
H31   H     H_    0.088289 0.202249 0.212980 0.202537
C51   C     C_3   0.849435 0.717855 0.705233 -0.392117
C52   C     C_3   0.971186 0.776909 0.691087 -0.855561
H32   H     H_    0.954579 0.877697 0.684717 0.232088
H33   H     H_    0.034057 0.758004 0.757146 0.276860
H34   H     H_    0.015012 0.741532 0.620163 0.259099
H35   H     H_    0.802499 0.706914 0.629680 0.205325
H36   H     H_    0.788043 0.781839 0.749175 0.197391
C53   C     C_3   0.132666 0.315794 0.047522 -0.333467
C54   C     C_3   0.251960 0.238198 0.045663 -0.873306
H37   H     H_    0.328056 0.295722 0.023889 0.269515
H38   H     H_    0.273625 0.198074 0.121429 0.250093
H39   H     H_    0.243828 0.162142 0.988356 0.246038
H40   H     H_    0.053697 0.257871 0.059823 0.193152
H41   H     H_    0.114406 0.351143 0.969622 0.258927
C55   C     C_3   0.853535 0.699380 0.935668 -0.339531
C56   C     C_3   0.725411 0.743320 0.966501 -0.848436
H42   H     H_    0.682831 0.673558 0.012913 0.291141
H43   H     H_    0.730429 0.829568 0.012917 0.243188
H44   H     H_    0.667583 0.761758 0.897594 0.227288
H45   H     H_    0.910028 0.679416 0.005461 0.255534
H46   H     H_    0.898675 0.776170 0.899693 0.202095

loop_
_geom_bond_atom_site_label_1
_geom_bond_atom_site_label_2
_ccdc_geom_bond_type
C51   H36   S    
C27   C29   S    
C23   O5    A    
C56   H42   S    
C46   H19   S    
C15   H1    S    
C16   H2    S    
C54   H38   S    
C52   H32   S    
C24   O6    A    
C39   C41   A    
Cu1   Cu2   S    
C3    C43   A    
C9    H15   S    
C35   C37   A    
C46   H18   S    
Cu2   O2    S    
C2    O4    A    
C20   C25   A    
C47   H25   S    
C5    C36   S    
C6    C35   S    
C15   C17   A    
C49   H30   S    
C19   C26   A    
C19   H3    S    
C55   C56   S    
C32   H6    S    
C20   H4    S    
C33   C35   A    
C18   H12   S    
C13   C45   S    
C7    C17   A    
C1    O1    A    
C31   C33   A    
C53   H40   S    
C45   H20   S    
C40   C42   A    
C1    C22   S    
C51   H35   S    
Cu1   O8    S    
C3    C24   S    
C10   H16   S    
C2    C21   S    
C10   C12   A    
C7    H13   S    
C54   H37   S    
C52   H33   S    
C33   H7    S    
C42   Cl2   S    
Cu1   O5    S    
C23   O7    A    
C46   H17   S    
C4    C6    A    
C31   H5    S    
C4    C23   S    
C45   H21   S    
C40   C55   S    
C4    C44   A    
C11   C26   S    
C3    C5    A    
C8    C18   A    
C32   C34   A    
C49   H31   S    
C45   C46   S    
C29   C30   T    
C44   H10   S    
C50   H28   S    
C48   H22   S    
C51   C52   S    
Cu1   O4    S    
C56   H43   S    
C9    C11   A    
Cu2   O7    S    
C27   N1    T    
C28   N2    T    
C43   H9    S    
C48   H23   S    
C5    C44   A    
C20   C22   A    
C34   H8    S    
C6    C43   A    
C13   C15   A    
Cu1   O1    S    
C14   C16   A    
C14   C47   S    
C55   H46   S    
C52   H34   S    
C24   O8    A    
C50   H29   S    
C7    C9    A    
C21   C25   A    
C31   C41   A    
C19   C21   A    
C8    C10   A    
C12   C14   A    
C2    O2    A    
C39   C53   S    
C12   C25   S    
Cu1   N2    S    
C37   C49   S    
Cu2   N1    S    
C53   H41   S    
C36   C38   A    
Cu2   O3    S    
C37   C39   A    
C8    H14   S    
C38   C40   A    
C11   C13   A    
C50   H27   S    
C47   H26   S    
C28   C30   S    
C1    O3    A    
C56   H44   S    
C34   C36   A    
Cu2   O6    S    
C41   Cl1   S    
C48   H24   S    
C16   C18   A    
C47   C48   S    
C22   C26   A    
C38   C51   S    
C53   C54   S    
C32   C42   A    
C49   C50   S    
C55   H45   S    
C54   H39   S    
C17   H11   S    
