data_mof_unit_60315.cif
_audit_creation_date              2012-12-11T15:26:36-0500
_audit_creation_method            fapswitch 2.2
_symmetry_space_group_name_H-M    P1
_symmetry_Int_Tables_number       1
_space_group_crystal_system       monoclinic
_cell_length_a                    7.299702
_cell_length_b                    11.547803
_cell_length_c                    29.779538
_cell_angle_alpha                 89.999361
_cell_angle_beta                  90.0
_cell_angle_gamma                 90.0
_cell_volume                      2510.28166041

loop_
_atom_site_label
_atom_site_type_symbol
_atom_type_description
_atom_site_fract_x
_atom_site_fract_y
_atom_site_fract_z
_atom_type_partial_charge
O1    O     O_R   0.647170 0.849180 0.201220 -0.519327
O2    O     O_R   0.352830 0.150820 0.798780 -0.530251
O3    O     O_R   0.352830 0.150820 0.701220 -0.531441
O4    O     O_R   0.647170 0.849180 0.298780 -0.525051
O5    O     O_R   0.147170 0.650820 0.298780 -0.519327
O6    O     O_R   0.852830 0.349180 0.701220 -0.530251
O7    O     O_R   0.852830 0.349180 0.798780 -0.531441
O8    O     O_R   0.147170 0.650820 0.201220 -0.525051
O9    O     O_R   0.317430 0.862210 0.298450 -0.535468
O10   O     O_R   0.682570 0.137790 0.701550 -0.531778
O11   O     O_R   0.682570 0.137790 0.798450 -0.532120
O12   O     O_R   0.317430 0.862210 0.201550 -0.549191
O13   O     O_R   0.817430 0.637790 0.201550 -0.535468
O14   O     O_R   0.182570 0.362210 0.798450 -0.531778
O15   O     O_R   0.182570 0.362210 0.701550 -0.532120
O16   O     O_R   0.817430 0.637790 0.298450 -0.549192
H1    H     H_    0.945097 0.207451 0.462077 0.158007
H2    H     H_    0.997113 0.788618 0.536434 0.158292
H3    H     H_    0.118280 0.781021 0.961436 0.151351
H4    H     H_    0.894264 0.214937 0.039280 0.163373
H5    H     H_    0.445098 0.292549 0.037923 0.158008
H6    H     H_    0.497113 0.711382 0.963566 0.158291
H7    H     H_    0.618280 0.718979 0.538564 0.151351
H8    H     H_    0.394264 0.285063 0.460720 0.163374
C1    C     C_R   0.484909 0.885587 0.314945 0.650597
C2    C     C_R   0.515302 0.114100 0.685135 0.648771
C3    C     C_R   0.514981 0.113545 0.814796 0.646431
C4    C     C_R   0.484944 0.888659 0.185770 0.650652
C5    C     C_R   0.984909 0.614412 0.185055 0.650597
C6    C     C_R   0.015302 0.385900 0.814865 0.648770
C7    C     C_R   0.014981 0.386455 0.685204 0.646431
C8    C     C_R   0.984945 0.611340 0.314230 0.650652
H9    H     H_    0.031443 0.332973 0.598737 0.106578
H10   H     H_    0.058730 0.657632 0.399624 0.107667
H11   H     H_    0.044019 0.662448 0.098997 0.104826
H12   H     H_    0.002806 0.331393 0.901634 0.109726
H13   H     H_    0.531443 0.167026 0.901263 0.106578
H14   H     H_    0.558730 0.842368 0.100376 0.107667
H15   H     H_    0.544020 0.837552 0.401003 0.104826
H16   H     H_    0.502806 0.168607 0.598366 0.109726
O17   O     O_3   0.480630 0.680630 0.250000 -0.366866
O18   O     O_3   0.519370 0.319370 0.750000 -0.366900
O19   O     O_3   0.980630 0.819370 0.250000 -0.366866
O20   O     O_3   0.019370 0.180630 0.750000 -0.366900
V1    V     V_3+5 0.205800 0.762860 0.250000 1.496425
V2    V     V_3+5 0.794200 0.237140 0.750000 1.499887
V3    V     V_3+5 0.705800 0.737140 0.250000 1.496424
V4    V     V_3+5 0.294200 0.262860 0.750000 1.499887
H17   H     H_    0.975899 0.274642 0.534712 0.127954
H18   H     H_    0.010834 0.719594 0.463728 0.122468
H19   H     H_    0.116891 0.711909 0.034873 0.125423
H20   H     H_    0.919299 0.281039 0.965578 0.127870
H21   H     H_    0.475899 0.225358 0.965288 0.127954
H22   H     H_    0.510834 0.780406 0.036272 0.122468
H23   H     H_    0.616892 0.788091 0.465127 0.125422
H24   H     H_    0.419299 0.218961 0.534422 0.127870
C9    C     C_R   0.989048 0.526689 0.353133 -0.117923
C10   C     C_R   0.009261 0.468793 0.645737 -0.124921
C11   C     C_R   0.012027 0.467808 0.854296 -0.126353
C12   C     C_R   0.989682 0.530929 0.146127 -0.110671
C13   C     C_R   0.489048 0.973310 0.146867 -0.117923
C14   C     C_R   0.509261 0.031207 0.854263 -0.124921
C15   C     C_R   0.512028 0.032192 0.645704 -0.126353
C16   C     C_R   0.489682 0.969071 0.353873 -0.110671
C17   C     C_R   0.966528 0.328318 0.383933 0.021748
C18   C     C_R   0.012094 0.667254 0.614786 0.002375
C19   C     C_R   0.028831 0.665709 0.885320 0.028150
C20   C     C_R   0.956011 0.332751 0.116270 0.040991
C21   C     C_R   0.466528 0.171682 0.116067 0.021749
C22   C     C_R   0.512094 0.832746 0.885214 0.002375
C23   C     C_R   0.528831 0.834291 0.614680 0.028150
C24   C     C_R   0.456011 0.167249 0.383730 0.040991
C25   C     C_R   0.950071 0.407398 0.347367 -0.047503
C26   C     C_R   0.003961 0.589830 0.651917 -0.060148
C27   C     C_R   0.019021 0.588796 0.848170 -0.053199
C28   C     C_R   0.953123 0.412521 0.152524 -0.035666
C29   C     C_R   0.450071 0.092602 0.152633 -0.047502
C30   C     C_R   0.503961 0.910169 0.848083 -0.060148
C31   C     C_R   0.519021 0.911203 0.651830 -0.053199
C32   C     C_R   0.453123 0.087479 0.347476 -0.035665
C33   C     C_R   0.026222 0.566935 0.396724 -0.206832
C34   C     C_R   0.019648 0.425611 0.601729 -0.214579
C35   C     C_R   0.006629 0.424318 0.898325 -0.221238
C36   C     C_R   0.021414 0.570719 0.102335 -0.205417
C37   C     C_R   0.526222 0.933065 0.103276 -0.206832
C38   C     C_R   0.519648 0.074389 0.898271 -0.214580
C39   C     C_R   0.506629 0.075682 0.601675 -0.221238
C40   C     C_R   0.521414 0.929281 0.397665 -0.205417
C41   C     C_R   0.014785 0.493026 0.435122 0.078629
C42   C     C_R   0.017414 0.499984 0.563353 0.081805
C43   C     C_R   0.015599 0.498806 0.936531 0.086216
C44   C     C_R   0.011621 0.495181 0.064396 0.071386
C45   C     C_R   0.514785 0.006974 0.064878 0.078629
C46   C     C_R   0.517414 0.000016 0.936647 0.081805
C47   C     C_R   0.515599 0.001194 0.563469 0.086216
C48   C     C_R   0.511621 0.004818 0.435604 0.071386
C49   C     C_R   0.990364 0.372429 0.427986 0.045427
C50   C     C_R   0.015670 0.621680 0.570520 0.063995
C51   C     C_R   0.039618 0.619306 0.929212 0.070647
C52   C     C_R   0.973208 0.376052 0.071963 0.065935
C53   C     C_R   0.490364 0.127571 0.072014 0.045427
C54   C     C_R   0.515670 0.878320 0.929480 0.063995
C55   C     C_R   0.539618 0.880694 0.570788 0.070647
C56   C     C_R   0.473208 0.123948 0.428037 0.065935
C57   C     C_R   0.020308 0.535659 0.480525 0.075850
C58   C     C_R   0.013846 0.457219 0.517950 0.071545
C59   C     C_R   0.003121 0.457570 0.981920 0.067685
C60   C     C_R   0.031780 0.535045 0.018982 0.068879
C61   C     C_R   0.520308 0.964341 0.019475 0.075850
C62   C     C_R   0.513846 0.042781 0.982050 0.071545
C63   C     C_R   0.503121 0.042430 0.518080 0.067685
C64   C     C_R   0.531780 0.964955 0.481017 0.068879
C65   C     C_R   0.992108 0.338867 0.508819 -0.206308
C66   C     C_R   0.018018 0.654768 0.489656 -0.195481
C67   C     C_R   0.079246 0.650214 0.009390 -0.194611
C68   C     C_R   0.954608 0.342553 0.991372 -0.207324
C69   C     C_R   0.492109 0.161133 0.991181 -0.206308
C70   C     C_R   0.518018 0.845232 0.010344 -0.195481
C71   C     C_R   0.579246 0.849786 0.490609 -0.194610
C72   C     C_R   0.454608 0.157447 0.508628 -0.207324
C73   C     C_R   0.976349 0.298407 0.465374 -0.160047
C74   C     C_R   0.011670 0.696098 0.533134 -0.158591
C75   C     C_R   0.079991 0.691368 0.965870 -0.166602
C76   C     C_R   0.940854 0.303092 0.035039 -0.134942
C77   C     C_R   0.476349 0.201593 0.034626 -0.160047
C78   C     C_R   0.511669 0.803902 0.966866 -0.158590
C79   C     C_R   0.579991 0.808632 0.534130 -0.166602
C80   C     C_R   0.440854 0.196907 0.464961 -0.134942
C81   C     C_2   0.984683 0.634179 0.697697 0.539534
H25   H     H_    0.892501 0.590334 0.720593 0.041966
O21   O     O_2   0.072038 0.718198 0.710183 -0.463190
C82   C     C_2   0.886201 0.367314 0.303291 0.467035
H26   H     H_    0.791703 0.420602 0.284381 0.059653
O22   O     O_2   0.939133 0.275806 0.287506 -0.452372
C83   C     C_2   0.922767 0.372807 0.198125 0.500938
H27   H     H_    0.029786 0.387239 0.222628 0.066451
O23   O     O_2   0.775502 0.330994 0.208594 -0.463103
C84   C     C_2   0.022854 0.633784 0.802440 0.533590
H28   H     H_    0.115262 0.594475 0.778443 0.043927
O24   O     O_2   0.922411 0.713190 0.791417 -0.464910
C85   C     C_2   0.484682 0.865821 0.802303 0.539534
H29   H     H_    0.392501 0.909665 0.779407 0.041966
O25   O     O_2   0.572037 0.781802 0.789817 -0.463190
C86   C     C_2   0.386201 0.132686 0.196709 0.467035
H30   H     H_    0.291703 0.079398 0.215619 0.059653
O26   O     O_2   0.439132 0.224194 0.212494 -0.452372
C87   C     C_2   0.422766 0.127193 0.301875 0.500937
H31   H     H_    0.529786 0.112762 0.277372 0.066451
O27   O     O_2   0.275501 0.169005 0.291406 -0.463103
C88   C     C_2   0.522854 0.866216 0.697560 0.533590
H32   H     H_    0.615262 0.905525 0.721557 0.043928
O28   O     O_2   0.422411 0.786810 0.708583 -0.464910
C89   C     C_2   0.950710 0.199989 0.376876 0.826987
O29   O     O_2   0.827114 0.159793 0.354259 -0.555201
O30   O     O_R   0.076005 0.124608 0.396838 -0.682948
H33   H     H_    0.050117 0.040273 0.389771 0.294318
C90   C     C_2   0.013619 0.795795 0.622279 0.790321
O31   O     O_2   0.905409 0.840388 0.648282 -0.549986
O32   O     O_R   0.139885 0.865874 0.599942 -0.670316
H34   H     H_    0.125391 0.950947 0.607599 0.293849
C91   C     C_2   0.024318 0.794474 0.878564 0.786331
O33   O     O_2   0.113985 0.839799 0.848762 -0.547543
O34   O     O_R   0.916211 0.863875 0.906395 -0.666158
H35   H     H_    0.924777 0.949166 0.898572 0.293603
C92   C     C_2   0.954952 0.204310 0.124701 0.737006
O35   O     O_2   0.858674 0.162027 0.153932 -0.523679
O36   O     O_R   0.067632 0.131576 0.099286 -0.687161
H36   H     H_    0.055745 0.047090 0.108102 0.290251
C93   C     C_2   0.450710 0.300011 0.123124 0.826986
O37   O     O_2   0.327114 0.340207 0.145741 -0.555201
O38   O     O_R   0.576006 0.375392 0.103162 -0.682949
H37   H     H_    0.550117 0.459727 0.110229 0.294318
C94   C     C_2   0.513618 0.704205 0.877721 0.790321
O39   O     O_2   0.405409 0.659612 0.851718 -0.549986
O40   O     O_R   0.639884 0.634126 0.900058 -0.670316
H38   H     H_    0.625391 0.549053 0.892401 0.293849
C95   C     C_2   0.524319 0.705526 0.621436 0.786331
O41   O     O_2   0.613985 0.660201 0.651238 -0.547543
O42   O     O_R   0.416211 0.636125 0.593604 -0.666158
H39   H     H_    0.424777 0.550834 0.601428 0.293603
C96   C     C_2   0.454952 0.295690 0.375298 0.737006
O43   O     O_2   0.358673 0.337973 0.346067 -0.523680
O44   O     O_R   0.567631 0.368424 0.400714 -0.687161
H40   H     H_    0.555745 0.452910 0.391898 0.290251

loop_
_geom_bond_atom_site_label_1
_geom_bond_atom_site_label_2
_ccdc_geom_bond_type
H17   C65   S    
O38   H37   S    
C40   C48   A    
O9    V1    S    
C92   O35   D    
C22   C30   A    
C16   C32   A    
C93   O37   D    
C21   C29   A    
O34   H35   S    
O44   H40   S    
C23   C31   A    
O4    C1    A    
O9    C1    A    
C83   H27   S    
C15   C31   A    
C94   O39   D    
C14   C38   A    
H3    C75   S    
C90   O31   D    
O12   C4    A    
O8    C5    A    
C8    C9    S    
C60   C67   A    
O13   C5    A    
C87   O27   D    
C11   C35   A    
C24   C96   S    
C85   O25   D    
H21   C69   S    
H6    C78   S    
H12   C35   S    
C18   C26   A    
O3    V4    S    
C17   C25   A    
O16   V3    S    
C83   O23   D    
C9    C25   A    
O8    V1    S    
C49   C73   A    
C38   C46   A    
C37   C45   A    
C44   C60   A    
C32   C87   S    
C68   C76   A    
C87   H31   S    
C13   C29   A    
C82   H26   S    
C95   O42   S    
C39   C47   A    
O10   V2    S    
O1    C4    A    
C53   C77   A    
C59   C60   A    
O16   C8    A    
O2    C3    A    
H10   C33   S    
C89   O30   S    
C55   C79   A    
H9    C34   S    
C19   C51   A    
O5    C8    A    
C33   C41   A    
C4    C13   S    
O10   C2    A    
H20   C68   S    
O6    C7    A    
C25   C82   S    
C90   O32   S    
O7    C6    A    
H24   C72   S    
C21   C93   S    
H16   C39   S    
H15   C40   S    
O14   C6    A    
C62   C69   A    
C91   O34   S    
C28   C83   S    
O20   V2    S    
C61   C70   A    
C91   O33   D    
O12   V1    S    
C94   O40   S    
C96   O44   S    
C67   C75   A    
H14   C37   S    
O7    V2    S    
C43   C59   A    
C57   C66   A    
C42   C58   A    
C86   O26   D    
C30   C85   S    
C45   C53   A    
O36   H36   S    
O13   V3    S    
C44   C52   A    
O1    V3    S    
O14   V4    S    
H13   C38   S    
C24   C56   A    
O2    V4    S    
C96   O43   D    
O5    V1    S    
C46   C62   A    
H19   C67   S    
C41   C49   A    
C63   C72   A    
H18   C66   S    
C1    C16   S    
C7    C10   S    
C2    C15   S    
C20   C52   A    
C3    C14   S    
C47   C55   A    
C48   C64   A    
C19   C91   S    
O32   H34   S    
C56   C80   A    
C5    C12   S    
O11   C3    A    
C6    C11   S    
C22   C54   A    
O17   V3    S    
O18   V4    S    
C36   C44   A    
O19   V1    S    
C13   C37   A    
H2    C74   S    
C31   C88   S    
C58   C65   A    
H1    C73   S    
H22   C70   S    
C9    C33   A    
C19   C27   A    
H5    C77   S    
C11   C27   A    
C10   C26   A    
H7    C79   S    
C81   H25   S    
C93   O38   S    
C51   C75   A    
C17   C89   S    
C50   C74   A    
C48   C56   A    
C23   C55   A    
C16   C40   A    
O6    V2    S    
C63   C64   A    
C15   C39   A    
O15   V4    S    
C14   C30   A    
O3    C2    A    
C52   C76   A    
C86   H30   S    
C54   C78   A    
C27   C84   S    
C64   C71   A    
H11   C36   S    
C72   C80   A    
O15   C7    A    
C84   O24   D    
C21   C53   A    
C20   C28   A    
C35   C43   A    
C57   C58   A    
C34   C42   A    
C18   C50   A    
C10   C34   A    
C29   C86   S    
C17   C49   A    
C24   C32   A    
O40   H38   S    
C47   C63   A    
C61   C62   A    
C20   C92   S    
C12   C36   A    
C23   C95   S    
C82   O22   D    
C12   C28   A    
C88   O28   D    
C22   C94   S    
C59   C68   A    
H4    C76   S    
C84   H28   S    
O42   H39   S    
C66   C74   A    
H23   C71   S    
C65   C73   A    
C46   C54   A    
C92   O36   S    
C95   O41   D    
C26   C81   S    
C41   C57   A    
O30   H33   S    
H8    C80   S    
C88   H32   S    
O11   V2    S    
C70   C78   A    
C43   C51   A    
C89   O29   D    
C85   H29   S    
C69   C77   A    
C42   C50   A    
C18   C90   S    
C45   C61   A    
C81   O21   D    
O4    V3    S    
C71   C79   A    
