data_mof_unit_46264.cif
_audit_creation_date              2012-12-10T16:49:27-0500
_audit_creation_method            fapswitch 2.2
_symmetry_space_group_name_H-M    P1
_symmetry_Int_Tables_number       1
_space_group_crystal_system       triclinic
_cell_length_a                    7.861735
_cell_length_b                    8.554034
_cell_length_c                    12.784209
_cell_angle_alpha                 88.840907
_cell_angle_beta                  87.638049
_cell_angle_gamma                 93.181394
_cell_volume                      857.4595354

loop_
_atom_site_label
_atom_site_type_symbol
_atom_type_description
_atom_site_fract_x
_atom_site_fract_y
_atom_site_fract_z
_atom_type_partial_charge
C1    C     C_R   0.455431 0.205849 0.497366 0.966752
C2    C     C_R   0.664390 0.622216 0.144485 -0.248610
C3    C     C_R   0.547311 0.594778 0.869686 0.324726
C4    C     C_R   0.452692 0.405218 0.130314 0.324726
C5    C     C_R   0.552889 0.562841 0.976789 0.035979
C6    C     C_R   0.447115 0.437154 0.023211 0.035982
C7    C     C_2   0.431980 0.042375 0.495769 -0.315476
C8    C     C_2   0.568020 0.957625 0.504230 -0.315476
C9    C     C_R   0.544569 0.794151 0.502634 0.966751
C10   C     C_R   0.465836 0.503449 0.699084 0.927422
C11   C     C_R   0.534164 0.496551 0.300916 0.927423
C12   C     C_R   0.557432 0.502210 0.189916 -0.104855
C13   C     C_R   0.442569 0.497790 0.810084 -0.104857
C14   C     C_R   0.336693 0.347925 0.961720 -0.107259
C15   C     C_R   0.663308 0.652073 0.038280 -0.107260
C16   C     C_R   0.335608 0.377787 0.855515 -0.248613
Cl1   Cl    Cl    0.329709 0.245423 0.191511 -0.604376
Cl2   Cl    Cl    0.670294 0.754578 0.808489 -0.604373
H1    H     H_    0.741793 0.698651 0.191980 0.190079
H2    H     H_    0.258200 0.301357 0.808020 0.190081
H3    H     H_    0.253700 0.252342 0.993999 0.216458
H4    H     H_    0.746300 0.747656 0.006000 0.216459
H5    H     H_    0.303065 0.992319 0.487612 0.205485
H6    H     H_    0.696935 0.007680 0.512388 0.205485
I1    I     I_    0.988292 0.711773 0.365947 -0.182495
I2    I     I_    0.011708 0.288226 0.634053 -0.182497
N1    N     N_2   0.054030 0.541640 0.471970 0.028456
N2    N     N_2   0.945970 0.458360 0.528030 0.028456
O1    O     O_R   0.609680 0.261530 0.506880 -0.614957
O2    O     O_R   0.390320 0.738470 0.493120 -0.614957
O3    O     O_R   0.323330 0.288220 0.488910 -0.595630
O4    O     O_R   0.676670 0.711780 0.511090 -0.595630
O5    O     O_R   0.619510 0.488830 0.661140 -0.572892
O6    O     O_R   0.380490 0.511170 0.338860 -0.572892
O7    O     O_R   0.333160 0.515520 0.643180 -0.614752
O8    O     O_R   0.666840 0.484480 0.356820 -0.614752
Zn1   Zn    Zn3+2 0.691200 0.482180 0.511990 1.065945
Zn2   Zn    Zn3+2 0.308800 0.517820 0.488010 1.065945

loop_
_geom_bond_atom_site_label_1
_geom_bond_atom_site_label_2
_ccdc_geom_bond_type
C11   C12   S    
C10   O7    A    
C4    C12   A    
I2    N2    S    
C3    C13   A    
O3    Zn2   S    
C16   H2    S    
C2    C12   A    
C1    O1    A    
C7    C8    D    
C1    C7    S    
O4    Zn1   S    
C2    C15   A    
N2    Zn1   S    
C7    H5    S    
C4    Cl1   S    
C9    O2    A    
C14   H3    S    
C11   O8    A    
C8    H6    S    
C10   O5    A    
C11   O6    A    
C5    C6    A    
C14   C16   A    
C5    C15   A    
C6    C14   A    
N1    Zn2   S    
C1    O3    A    
O7    Zn2   S    
O2    Zn2   S    
C3    Cl2   S    
C4    C6    A    
C13   C16   A    
O1    Zn1   S    
N1    N2    D    
O8    Zn1   S    
C9    O4    A    
C2    H1    S    
O6    Zn2   S    
C10   C13   S    
C15   H4    S    
O5    Zn1   S    
C8    C9    S    
C3    C5    A    
I1    N1    S    
