data_mof_unit_8600.cif
_audit_creation_date              2012-12-10T20:25:45-0500
_audit_creation_method            fapswitch 2.2
_symmetry_space_group_name_H-M    P1
_symmetry_Int_Tables_number       1
_space_group_crystal_system       triclinic
_cell_length_a                    8.583419
_cell_length_b                    10.658935
_cell_length_c                    9.885831
_cell_angle_alpha                 89.326739
_cell_angle_beta                  98.554514
_cell_angle_gamma                 90.228263
_cell_volume                      894.329418071

loop_
_atom_site_label
_atom_site_type_symbol
_atom_type_description
_atom_site_fract_x
_atom_site_fract_y
_atom_site_fract_z
_atom_type_partial_charge
C1    C     C_R   0.506268 0.260514 0.501307 0.873650
C2    C     C_R   0.364001 0.478500 0.911724 0.221600
C3    C     C_3   0.265641 0.362398 0.896593 -0.522289
C4    C     C_R   0.201267 0.499803 0.464185 0.971911
C5    C     C_3   0.263920 0.364281 0.049813 -0.508977
C6    C     C_R   0.500150 0.739493 0.499057 0.889489
C7    C     C_R   0.798701 0.500767 0.535729 0.951071
C8    C     C_2   0.036085 0.498171 0.444909 -0.393715
C9    C     C_2   0.963782 0.503705 0.554643 -0.395338
C10   C     C_R   0.396110 0.064242 0.559138 0.087454
C11   C     C_R   0.511527 0.128334 0.500890 -0.136935
C12   C     C_R   0.602699 0.933895 0.420161 -0.248413
C13   C     C_R   0.612806 0.064010 0.424541 0.145321
C14   C     C_3   0.742408 0.127921 0.360035 -0.391290
C15   C     C_3   0.699472 0.137044 0.204758 -0.816196
C16   C     C_R   0.499349 0.871165 0.494490 -0.122557
C17   C     C_R   0.390817 0.936327 0.556821 0.106802
C18   C     C_3   0.352020 0.925658 0.698703 -0.464216
C19   C     C_3   0.358332 0.067687 0.701913 -0.485879
C20   C     C_R   0.363967 0.478937 0.054102 0.222172
C21   C     C_R   0.631296 0.531871 0.088318 -0.136960
C22   C     C_R   0.631295 0.531894 0.944616 -0.141603
H1    H     H_    0.974494 0.491367 0.340811 0.170466
H2    H     H_    0.447062 0.880527 0.771663 0.217640
H3    H     H_    0.241639 0.111092 0.706169 0.199433
H4    H     H_    0.457484 0.104307 0.776446 0.211381
H5    H     H_    0.738112 0.556035 0.155380 0.147353
H6    H     H_    0.682443 0.041975 0.160042 0.246176
H7    H     H_    0.589788 0.192053 0.176456 0.269869
H8    H     H_    0.796013 0.184829 0.160831 0.238480
H9    H     H_    0.769395 0.223040 0.401761 0.209156
H10   H     H_    0.853420 0.073557 0.385470 0.191661
H11   H     H_    0.738093 0.555921 0.904323 0.150006
H12   H     H_    0.147629 0.378549 0.836174 0.198567
H13   H     H_    0.330919 0.281435 0.863876 0.213942
H14   H     H_    0.145629 0.384421 0.077292 0.198615
H15   H     H_    0.325715 0.283227 0.105329 0.215258
H16   H     H_    0.025329 0.511542 0.658483 0.172056
H17   H     H_    0.682955 0.881350 0.367369 0.159994
H18   H     H_    0.231804 0.887132 0.700552 0.197397
N1    N     N_R   0.498950 0.499140 0.142680 -0.107302
N2    N     N_R   0.498950 0.499180 0.857030 -0.107515
O1    O     O_R   0.500020 0.316790 0.614690 -0.618132
O2    O     O_R   0.500000 0.316760 0.385350 -0.614503
O3    O     O_R   0.271760 0.500010 0.587850 -0.612191
O4    O     O_R   0.271740 0.499970 0.358500 -0.625670
O5    O     O_R   0.500000 0.683240 0.614650 -0.620997
O6    O     O_R   0.499980 0.683210 0.385310 -0.618374
O7    O     O_R   0.728260 0.500030 0.641500 -0.633566
O8    O     O_R   0.728240 0.499990 0.412150 -0.623553
Zn1   Zn    Zn3+2 0.500010 0.500020 0.653130 0.933877
Zn2   Zn    Zn3+2 0.499990 0.499980 0.346870 0.935375

loop_
_geom_bond_atom_site_label_1
_geom_bond_atom_site_label_2
_ccdc_geom_bond_type
O8    Zn2   S    
C19   H4    S    
C5    H15   S    
C10   C19   S    
N1    Zn2   S    
C1    C11   S    
C3    H13   S    
N2    Zn1   S    
C4    C8    S    
O2    Zn2   S    
C12   H17   S    
C2    C3    S    
C21   H5    S    
C5    C20   S    
C4    O4    A    
C21   C22   A    
C11   C13   A    
O1    Zn1   S    
C15   H6    S    
C22   N2    A    
C6    O6    A    
C2    N2    A    
C18   H2    S    
C9    H16   S    
C15   H7    S    
C4    O3    A    
C19   H3    S    
C21   N1    A    
C10   C11   A    
O3    Zn1   S    
C10   C17   A    
C2    C20   A    
C5    H14   S    
O4    Zn2   S    
O6    Zn2   S    
C8    H1    S    
C12   C13   A    
C7    O7    A    
C15   H8    S    
C17   C18   S    
C18   C19   S    
C6    O5    A    
C14   H10   S    
C7    C9    S    
C14   H9    S    
C18   H18   S    
C14   C15   S    
C8    C9    D    
O5    Zn1   S    
C1    O2    A    
C3    H12   S    
O7    Zn1   S    
C13   C14   S    
C6    C16   S    
C1    O1    A    
C12   C16   A    
C7    O8    A    
C20   N1    A    
C16   C17   A    
C3    C5    S    
C22   H11   S    
