data_mof_unit_54766.cif
_audit_creation_date              2012-12-10T17:30:16-0500
_audit_creation_method            fapswitch 2.2
_symmetry_space_group_name_H-M    P1
_symmetry_Int_Tables_number       1
_space_group_crystal_system       triclinic
_cell_length_a                    11.962251
_cell_length_b                    12.893577
_cell_length_c                    14.951802
_cell_angle_alpha                 90.077144
_cell_angle_beta                  85.664138
_cell_angle_gamma                 93.107387
_cell_volume                      2296.1193621

loop_
_atom_site_label
_atom_site_type_symbol
_atom_type_description
_atom_site_fract_x
_atom_site_fract_y
_atom_site_fract_z
_atom_type_partial_charge
C1    C     C_R   0.521879 0.700521 0.498349 0.894511
C2    C     C_R   0.359801 0.137618 0.493038 -0.210378
C3    C     C_R   0.438625 0.867675 0.492302 -0.270831
C4    C     C_R   0.561908 0.132324 0.501939 -0.277837
C5    C     C_R   0.447075 0.974336 0.493917 0.179377
C6    C     C_R   0.553562 0.025720 0.499444 0.176132
C7    C     C_R   0.953887 0.387796 0.432207 -0.328416
C8    C     C_R   0.045854 0.610927 0.569430 -0.312506
C9    C     C_R   0.837756 0.400178 0.436857 0.010439
C10   C     C_R   0.161998 0.598553 0.564707 0.066516
C11   C     C_R   0.858604 0.550376 0.527112 -0.042533
C12   C     C_R   0.478185 0.299494 0.500266 0.862955
C13   C     C_R   0.141400 0.449711 0.472784 -0.048898
C14   C     C_R   0.975872 0.540895 0.524542 0.085359
C15   C     C_R   0.024028 0.458677 0.476014 0.096326
C16   C     C_R   0.499306 0.499095 0.673492 0.922625
C17   C     C_R   0.500687 0.502586 0.326276 0.935079
C18   C     C_R   0.401662 0.484606 0.191281 -0.314783
C19   C     C_R   0.584640 0.559691 0.807715 -0.319349
C20   C     C_R   0.500900 0.513129 0.230103 -0.184436
C21   C     C_R   0.496782 0.505377 0.769485 -0.177724
C22   C     C_R   0.595363 0.556179 0.178219 0.433234
C23   C     C_R   0.671308 0.623025 0.938284 -0.251256
C24   C     C_R   0.402587 0.464154 0.821920 0.462983
C25   C     C_R   0.586478 0.576074 0.086231 -0.082547
C26   C     C_R   0.391849 0.486342 0.914148 -0.092785
C27   C     C_R   0.489271 0.535156 0.046647 0.027778
C28   C     C_R   0.486804 0.532385 0.953502 0.023318
C29   C     C_R   0.396085 0.492633 0.099962 0.115005
C30   C     C_R   0.581607 0.571205 0.899757 0.112937
C31   C     C_R   0.672930 0.630045 0.031235 -0.042268
C32   C     C_R   0.292641 0.458974 0.969151 -0.044310
C33   C     C_3   0.769693 0.500218 0.198006 0.083905
C34   C     C_R   0.297637 0.459013 0.061819 -0.257518
C35   C     C_3   0.885576 0.535941 0.226672 -0.282977
C36   C     C_3   0.971961 0.455379 0.203285 -0.951089
C37   C     C_3   0.339817 0.293694 0.805902 0.061421
C38   C     C_3   0.390284 0.236035 0.724536 -0.338787
C39   C     C_3   0.401942 0.121530 0.745641 -0.926918
C40   C     C_2   0.762243 0.699325 0.066628 0.952003
C41   C     C_2   0.181123 0.436618 0.933957 0.957647
C42   C     C_R   0.465553 0.188258 0.498662 -0.052806
C43   C     C_R   0.534814 0.811762 0.496899 -0.045245
C44   C     C_R   0.650069 0.969841 0.502775 -0.210851
C45   C     C_R   0.350557 0.030256 0.490734 -0.209651
C46   C     C_R   0.640709 0.862465 0.501498 -0.183573
H1    H     H_    0.329311 0.452110 0.232119 0.175840
H2    H     H_    0.715542 0.819398 0.505040 0.159446
H3    H     H_    0.732020 0.008991 0.506910 0.140579
H4    H     H_    0.268599 0.991137 0.486586 0.141480
H5    H     H_    0.180058 0.387737 0.434898 0.120090
H6    H     H_    0.819984 0.612636 0.564634 0.121503
H7    H     H_    0.215870 0.652960 0.598984 0.135526
H8    H     H_    0.783842 0.345293 0.403127 0.130078
H9    H     H_    0.778071 0.482593 0.124857 0.130536
H10   H     H_    0.740098 0.427837 0.235077 0.141413
H11   H     H_    0.914040 0.610137 0.192341 0.242164
H12   H     H_    0.655768 0.592361 0.765621 0.175674
H13   H     H_    0.880281 0.550309 0.300056 0.233454
H14   H     H_    0.943942 0.379195 0.234207 0.259726
H15   H     H_    0.053609 0.481352 0.228883 0.262100
H16   H     H_    0.984060 0.446032 0.129387 0.294534
H17   H     H_    0.255691 0.256658 0.826136 0.184479
H18   H     H_    0.392433 0.284068 0.863719 0.120137
H19   H     H_    0.334986 0.242227 0.668590 0.243937
H20   H     H_    0.474465 0.272242 0.703218 0.207284
H21   H     H_    0.457468 0.113441 0.801225 0.265794
H22   H     H_    0.439444 0.082031 0.685522 0.277127
H23   H     H_    0.988397 0.323431 0.394775 0.146734
H24   H     H_    0.318300 0.082984 0.764896 0.266596
H25   H     H_    0.924003 0.753719 0.053951 0.341654
H26   H     H_    0.032238 0.354709 0.947027 0.343468
H27   H     H_    0.011259 0.674732 0.607588 0.148080
H28   H     H_    0.739537 0.659579 0.895508 0.183244
H29   H     H_    0.223975 0.433782 0.104704 0.179175
H30   H     H_    0.643863 0.171403 0.506753 0.163044
H31   H     H_    0.356614 0.828497 0.488032 0.160031
H32   H     H_    0.284886 0.180740 0.490334 0.159972
N1    N     N_R   0.207800 0.519350 0.516680 -0.102089
N2    N     N_R   0.792200 0.480650 0.483320 -0.101036
O1    O     O_R   0.421700 0.658830 0.504450 -0.641097
O2    O     O_3   0.325016 0.398405 0.782424 -0.605744
O3    O     O_2   0.740091 0.756547 0.130077 -0.582914
O4    O     O_R   0.870791 0.702754 0.024462 -0.819605
O5    O     O_2   0.152982 0.486294 0.870536 -0.571842
O6    O     O_R   0.106121 0.361798 0.976101 -0.840131
O7    O     O_R   0.578300 0.341170 0.495550 -0.636322
O8    O     O_R   0.609310 0.646410 0.493750 -0.624086
O9    O     O_R   0.390690 0.353590 0.506250 -0.632834
O10   O     O_R   0.406180 0.506230 0.637500 -0.565796
O11   O     O_R   0.593820 0.493770 0.362500 -0.589586
O12   O     O_R   0.593800 0.493820 0.626800 -0.634445
O13   O     O_R   0.406200 0.506180 0.373200 -0.631917
O14   O     O_3   0.694418 0.579459 0.218205 -0.600330
Zn1   Zn    Zn3+2 0.374730 0.508290 0.507150 0.968756
Zn2   Zn    Zn3+2 0.625270 0.491710 0.492850 0.956838

loop_
_geom_bond_atom_site_label_1
_geom_bond_atom_site_label_2
_ccdc_geom_bond_type
C44   H3    S    
C33   H9    S    
O8    Zn2   S    
C25   C31   A    
C16   C21   S    
C27   C29   A    
C39   H22   S    
C40   O4    S    
C35   C36   S    
C17   O11   A    
C33   O14   S    
C13   N1    A    
O10   Zn1   S    
C26   C32   A    
C41   O6    S    
C3    C43   A    
C16   O10   A    
C19   C21   A    
C24   C26   A    
C5    C6    A    
O1    Zn1   S    
C11   C14   A    
C1    O1    A    
O12   Zn2   S    
C17   C20   S    
C31   C40   S    
C35   H13   S    
C10   H7    S    
C24   O2    S    
O13   Zn1   S    
C12   C42   S    
C11   H6    S    
O11   Zn2   S    
C13   H5    S    
C1    C43   S    
C38   H20   S    
C22   C25   A    
C32   C41   S    
N2    Zn2   S    
C34   H29   S    
C1    O8    A    
C7    C15   A    
C19   H12   S    
C6    C44   A    
C18   H1    S    
C22   O14   S    
C40   O3    D    
C36   H16   S    
C37   H17   S    
C44   C46   A    
C2    C45   A    
C46   H2    S    
C23   C30   A    
C12   O9    A    
C4    C6    A    
C36   H14   S    
C5    C45   A    
C29   C34   A    
C9    N2    A    
C32   C34   A    
O9    Zn1   S    
N1    Zn1   S    
C37   C38   S    
C2    H32   S    
C38   H19   S    
C2    C42   A    
O7    Zn2   S    
C18   C29   A    
C20   C22   A    
C16   O12   A    
C13   C15   A    
C37   O2    S    
C17   O13   A    
C23   H28   S    
C36   H15   S    
C3    H31   S    
C37   H18   S    
H25   O4    S    
C7    C9    A    
C8    C14   A    
C12   O7    A    
C39   H21   S    
C3    C5    A    
C7    H23   S    
H26   O6    S    
C10   N1    A    
C25   C27   A    
C41   O5    D    
C26   C28   A    
C35   H11   S    
C28   C30   A    
C38   C39   S    
C4    C42   A    
C45   H4    S    
C33   H10   S    
C8    H27   S    
C33   C35   S    
C39   H24   S    
C18   C20   A    
C43   C46   A    
C4    H30   S    
C11   N2    A    
C8    C10   A    
C21   C24   A    
C27   C28   A    
C14   C15   A    
C9    H8    S    
C19   C30   A    
C23   C31   A    
