data_mof_unit_51591.cif
_audit_creation_date              2012-12-10T19:45:12-0500
_audit_creation_method            fapswitch 2.2
_symmetry_space_group_name_H-M    P1
_symmetry_Int_Tables_number       1
_space_group_crystal_system       triclinic
_cell_length_a                    14.963381
_cell_length_b                    14.24036
_cell_length_c                    10.737163
_cell_angle_alpha                 90.286164
_cell_angle_beta                  90.61269
_cell_angle_gamma                 89.795004
_cell_volume                      2287.74335753

loop_
_atom_site_label
_atom_site_type_symbol
_atom_type_description
_atom_site_fract_x
_atom_site_fract_y
_atom_site_fract_z
_atom_type_partial_charge
C1    C     C_R   0.328206 0.500009 0.500240 0.882941
C2    C     C_R   0.672458 0.499753 0.499338 0.886747
C3    C     C_R   0.049316 0.496801 0.495840 0.023523
C4    C     C_R   0.953299 0.496659 0.492112 0.027688
C5    C     C_R   0.446806 0.106557 0.413068 0.337022
C6    C     C_R   0.554462 0.106121 0.583798 0.354722
C7    C     C_R   0.446580 0.205395 0.418297 -0.117381
C8    C     C_R   0.554026 0.205134 0.580445 -0.130884
C9    C     C_R   0.500887 0.054110 0.497754 -0.031006
C10   C     C_R   0.578419 0.894913 0.523493 -0.322703
C11   C     C_R   0.422669 0.895585 0.471981 -0.329789
C12   C     C_R   0.575251 0.796435 0.534019 0.513330
C13   C     C_R   0.424769 0.796605 0.465565 0.508312
C14   C     C_R   0.500740 0.947280 0.497187 0.044574
C15   C     C_R   0.502051 0.499724 0.262696 0.917866
C16   C     C_R   0.498380 0.500052 0.737379 0.916593
C17   C     C_2   0.504073 0.420762 0.932575 -0.157662
C18   C     C_2   0.498721 0.420366 0.066427 -0.162055
C19   C     C_2   0.490656 0.500019 0.868891 -0.340787
C20   C     C_2   0.511189 0.499381 0.131444 -0.335675
C21   C     C_R   0.094629 0.550462 0.408376 -0.287588
C22   C     C_R   0.908412 0.581012 0.513922 -0.284635
C23   C     C_R   0.186758 0.551744 0.410537 -0.176860
C24   C     C_R   0.816319 0.582196 0.515289 -0.192663
C25   C     C_R   0.232951 0.499539 0.499893 -0.069005
C26   C     C_R   0.768909 0.498759 0.495928 -0.105794
C27   C     C_R   0.188190 0.444986 0.586876 -0.317682
C28   C     C_R   0.814181 0.414213 0.472454 -0.304752
C29   C     C_R   0.095523 0.445024 0.587188 0.550161
C30   C     C_R   0.906689 0.413132 0.467911 0.545599
H1    H     H_    0.518052 0.354290 0.886381 0.167429
H2    H     H_    0.484979 0.353811 0.111397 0.164516
H3    H     H_    0.471305 0.565944 0.911884 0.144873
H4    H     H_    0.530550 0.565261 0.089572 0.147258
H5    H     H_    0.222049 0.590852 0.340697 0.155821
H6    H     H_    0.782739 0.648042 0.533073 0.217501
H7    H     H_    0.224941 0.404001 0.655246 0.159841
H8    H     H_    0.778263 0.349261 0.456414 0.178413
H9    H     H_    0.403614 0.244853 0.355798 0.159218
H10   H     H_    0.596801 0.244423 0.643564 0.157431
N1    N     N_R   0.500000 0.252470 0.500000 -0.135960
N2    N     N_R   0.500000 0.747550 0.500000 -0.172325
O1    O     O_R   0.369060 0.579480 0.500010 -0.562121
O2    O     O_R   0.630940 0.579480 0.499990 -0.577526
O3    O     O_R   0.369050 0.420520 0.500010 -0.620401
O4    O     O_R   0.630950 0.420520 0.499990 -0.625744
O5    O     O_R   0.500000 0.579460 0.319080 -0.631779
O6    O     O_R   0.500000 0.579460 0.680920 -0.638873
O7    O     O_R   0.499990 0.420500 0.319080 -0.619074
O8    O     O_R   0.500010 0.420500 0.680920 -0.617545
Zn1   Zn    Zn3+2 0.500000 0.606140 0.500000 0.983674
Zn2   Zn    Zn3+2 0.500000 0.393860 0.500000 0.937169
O9    O     O_3   0.649408 0.749902 0.579394 -0.644387
C31   C     C_3   0.642807 0.740850 0.710393 0.125034
H11   H     H_    0.666008 0.669136 0.735590 0.164238
H12   H     H_    0.573176 0.747673 0.746374 0.129523
C32   C     C_3   0.703806 0.812136 0.775821 -0.403074
H13   H     H_    0.774048 0.799844 0.747095 0.230482
H14   H     H_    0.684239 0.884313 0.748177 0.246845
C33   C     C_3   0.697773 0.804482 0.917188 -0.964188
H15   H     H_    0.628483 0.819475 0.947950 0.259679
H16   H     H_    0.743308 0.856438 0.961688 0.272180
H17   H     H_    0.717702 0.732988 0.948011 0.266902
O10   O     O_3   0.348129 0.749465 0.431219 -0.613382
C34   C     C_3   0.335080 0.754513 0.300506 0.102225
H18   H     H_    0.341974 0.682375 0.261876 0.164686
H19   H     H_    0.384449 0.799025 0.250485 0.104518
C35   C     C_3   0.240882 0.791699 0.272713 -0.371158
H20   H     H_    0.191596 0.755543 0.332265 0.241390
H21   H     H_    0.237958 0.867865 0.295289 0.222358
C36   C     C_3   0.214666 0.776497 0.136317 -0.981213
H22   H     H_    0.263721 0.810145 0.073974 0.268425
H23   H     H_    0.147740 0.807799 0.118258 0.272735
H24   H     H_    0.211622 0.700190 0.114710 0.261628
H25   H     H_    0.058570 0.590068 0.337920 0.164744
H26   H     H_    0.944875 0.645425 0.531663 0.165460
O11   O     O_3   0.050181 0.391504 0.672831 -0.618468
C37   C     C_3   0.039566 0.445009 0.782758 0.053303
H27   H     H_    0.007222 0.514077 0.762408 0.137521
H28   H     H_    0.105716 0.457032 0.828667 0.136668
C38   C     C_3   0.979865 0.391100 0.871907 -0.281558
H29   H     H_    0.913865 0.378387 0.826449 0.230277
H30   H     H_    0.011032 0.322014 0.893433 0.229849
C39   C     C_3   0.965813 0.445427 0.993065 -1.007310
H31   H     H_    0.030720 0.456758 0.041952 0.263742
H32   H     H_    0.921419 0.404772 0.054823 0.262473
H33   H     H_    0.933898 0.514468 0.973801 0.271328
O12   O     O_3   0.951399 0.329607 0.446412 -0.617857
C40   C     C_3   0.966891 0.321072 0.317380 0.043120
H34   H     H_    0.002213 0.383927 0.280971 0.144095
H35   H     H_    0.902316 0.312150 0.266075 0.135430
C41   C     C_3   0.025524 0.234830 0.294293 -0.276683
H36   H     H_    0.089183 0.242109 0.347797 0.236713
H37   H     H_    0.990532 0.171028 0.327288 0.226918
C42   C     C_3   0.046659 0.223223 0.156328 -0.981503
H38   H     H_    0.983986 0.215522 0.100876 0.267473
H39   H     H_    0.088352 0.159412 0.142639 0.268296
H40   H     H_    0.084259 0.285011 0.122484 0.271633
O13   O     O_3   0.388916 0.062645 0.330776 -0.656451
C43   C     C_3   0.427437 0.059917 0.211592 0.071545
H41   H     H_    0.487620 0.013600 0.212727 0.150431
H42   H     H_    0.446356 0.131522 0.179837 0.130739
C44   C     C_3   0.358507 0.019958 0.120019 -0.305910
H43   H     H_    0.337386 0.949801 0.152365 0.227057
H44   H     H_    0.298819 0.066651 0.117242 0.228316
C45   C     C_3   0.395983 0.010393 0.989279 -1.008893
H45   H     H_    0.417096 0.080088 0.954648 0.265166
H46   H     H_    0.343691 0.982058 0.925451 0.273493
H47   H     H_    0.453726 0.961211 0.989671 0.259091
O14   O     O_3   0.611659 0.061278 0.666332 -0.662519
C46   C     C_3   0.580784 0.070683 0.789832 0.062159
H48   H     H_    0.551154 0.002579 0.817377 0.170781
H49   H     H_    0.529004 0.126503 0.802826 0.122332
C47   C     C_3   0.660210 0.092638 0.875710 -0.311899
H50   H     H_    0.712523 0.037725 0.864590 0.232612
H51   H     H_    0.689173 0.161381 0.849176 0.218395
C48   C     C_3   0.632496 0.096837 0.011959 -0.993735
H52   H     H_    0.580086 0.151268 0.025561 0.258232
H53   H     H_    0.691290 0.115013 0.071131 0.270246
H54   H     H_    0.606824 0.027526 0.041766 0.265786
H55   H     H_    0.641914 0.929252 0.538274 0.217687
H56   H     H_    0.359302 0.930512 0.456907 0.220273

loop_
_geom_bond_atom_site_label_1
_geom_bond_atom_site_label_2
_ccdc_geom_bond_type
C27   C29   A    
C42   H38   S    
C39   H33   S    
C22   H26   S    
C10   H55   S    
C1    O3    A    
C16   O6    A    
C6    C9    A    
C38   H29   S    
C42   H40   S    
O9    C31   S    
C2    O4    A    
C24   H6    S    
C33   H17   S    
C24   C26   A    
C48   H53   S    
C11   C14   A    
C37   H28   S    
C32   H14   S    
C45   H45   S    
O4    Zn2   S    
C33   H16   S    
C3    C29   A    
O14   C46   S    
C41   H36   S    
C12   N2    A    
C1    O1    A    
O6    Zn1   S    
C5    O13   S    
C7    N1    A    
C2    O2    A    
C35   H20   S    
C34   H19   S    
O8    Zn2   S    
C15   O5    A    
C40   H35   S    
N1    Zn2   S    
C12   O9    S    
N2    Zn1   S    
C20   H4    S    
O7    Zn2   S    
C23   C25   A    
C1    C25   S    
C6    O14   S    
C46   C47   S    
C43   H42   S    
C13   N2    A    
C38   H30   S    
C47   H50   S    
C15   C20   S    
C31   H12   S    
C8    N1    A    
C46   H49   S    
C10   C14   A    
C48   H54   S    
C36   H23   S    
C37   H27   S    
C32   C33   S    
O5    Zn1   S    
O3    Zn2   S    
O11   C37   S    
C43   C44   S    
C33   H15   S    
C9    C14   S    
C5    C9    A    
C4    C22   A    
C47   H51   S    
O13   C43   S    
C28   H8    S    
C34   C35   S    
C41   H37   S    
C17   C18   S    
C44   H44   S    
C39   H31   S    
C40   C41   S    
C10   C12   A    
O2    Zn1   S    
C23   H5    S    
C21   C23   A    
C19   H3    S    
C17   H1    S    
C22   C24   A    
C3    C21   A    
C11   H56   S    
C18   H2    S    
C41   C42   S    
C30   O12   S    
C3    C4    S    
C38   C39   S    
C5    C7    A    
C31   H11   S    
C46   H48   S    
C16   O8    A    
C2    C26   S    
C36   H24   S    
C6    C8    A    
C42   H39   S    
C35   C36   S    
C25   C27   A    
C21   H25   S    
C26   C28   A    
O10   C34   S    
C28   C30   A    
C36   H22   S    
C48   H52   S    
C11   C13   A    
C37   C38   S    
O1    Zn1   S    
C32   H13   S    
C13   O10   S    
C45   H46   S    
C27   H7    S    
C16   C19   S    
C43   H41   S    
C17   C19   D    
C44   C45   S    
C18   C20   D    
C15   O7    A    
C47   C48   S    
C29   O11   S    
O12   C40   S    
C35   H21   S    
C34   H18   S    
C44   H43   S    
C7    H9    S    
C39   H32   S    
C8    H10   S    
C40   H34   S    
C45   H47   S    
C4    C30   A    
C31   C32   S    
