data_mof_unit_68105.cif
_audit_creation_date              2013-03-05T15:58:25-0500
_audit_creation_method            fapswitch 2.2
_symmetry_space_group_name_H-M    P1
_symmetry_Int_Tables_number       1
_space_group_crystal_system       triclinic
_cell_length_a                    7.627491
_cell_length_b                    15.883626
_cell_length_c                    16.489898
_cell_angle_alpha                 90.00066
_cell_angle_beta                  86.555893
_cell_angle_gamma                 90.000014
_cell_volume                      1994.17940767

loop_
_atom_site_label
_atom_site_type_symbol
_atom_site_description
_atom_site_fract_x
_atom_site_fract_y
_atom_site_fract_z
_atom_type_partial_charge
O1    O     O_R   0.388780 0.834790 0.412340 -0.542222
O2    O     O_R   0.111220 0.165210 0.912340 -0.562787
O3    O     O_R   0.888780 0.665210 0.587660 -0.562785
O4    O     O_R   0.611220 0.334790 0.087660 -0.542231
O5    O     O_R   0.059040 0.845930 0.587040 -0.557604
O6    O     O_R   0.440960 0.154070 0.087040 -0.568122
O7    O     O_R   0.559040 0.654070 0.412960 -0.568115
O8    O     O_R   0.940960 0.345930 0.912960 -0.557609
C1    C     C_R   0.224086 0.866362 0.616747 0.997920
C2    C     C_R   0.268767 0.138624 0.119772 1.026672
C3    C     C_R   0.731230 0.638629 0.380225 1.026675
C4    C     C_R   0.775914 0.366362 0.883252 0.997918
O9    O     O_R   0.059070 0.845930 0.412970 -0.538246
O10   O     O_R   0.440930 0.154070 0.912970 -0.524706
O11   O     O_R   0.559070 0.654070 0.587030 -0.524705
O12   O     O_R   0.940930 0.345930 0.087030 -0.538273
O13   O     O_R   0.888760 0.665210 0.412340 -0.558666
O14   O     O_R   0.611240 0.334790 0.912340 -0.564920
O15   O     O_R   0.388760 0.834790 0.587660 -0.564922
O16   O     O_R   0.111240 0.165210 0.087660 -0.558661
C5    C     C_R   0.227212 0.866580 0.384602 0.993917
C6    C     C_R   0.272908 0.125001 0.893329 1.063803
C7    C     C_R   0.727093 0.625002 0.606671 1.063777
C8    C     C_R   0.772781 0.366581 0.115397 0.993961
O17   O     O_3   0.222280 0.690700 0.500000 -0.265232
O18   O     O_3   0.277720 0.309300 0.000000 -0.254965
O19   O     O_3   0.722280 0.809300 0.500000 -0.254946
O20   O     O_3   0.777720 0.190700 0.000000 -0.265244
V1    V     V_3+5 0.947430 0.761000 0.500000 1.405149
V2    V     V_3+5 0.552570 0.239000 0.000000 1.412334
V3    V     V_3+5 0.447430 0.739000 0.500000 1.412342
V4    V     V_3+5 0.052570 0.261000 0.000000 1.405137
C9    C     C_3   0.838844 0.582137 0.743194 -0.130028
C10   C     C_3   0.663208 0.416360 0.261477 -0.032829
C11   C     C_3   0.336726 0.916345 0.238517 -0.032935
C12   C     C_3   0.161158 0.082137 0.756807 -0.130036
H1    H     H_    0.789507 0.646568 0.755066 0.198037
H2    H     H_    0.735627 0.366328 0.291752 0.168475
H3    H     H_    0.264263 0.866325 0.208247 0.168458
H4    H     H_    0.210493 0.146569 0.744938 0.198035
C13   C     C_3   0.824168 0.529536 0.825918 0.331308
C14   C     C_3   0.630360 0.489721 0.325101 0.394507
C15   C     C_3   0.369601 0.989703 0.174893 0.394573
C16   C     C_3   0.175835 0.029538 0.674083 0.331307
H5    H     H_    0.021721 0.437694 0.737850 0.213894
H6    H     H_    0.572830 0.629941 0.227822 0.173844
H7    H     H_    0.427157 0.129934 0.272168 0.173844
H8    H     H_    0.978280 0.937696 0.762148 0.213895
C17   C     C_3   0.835893 0.455612 0.644406 0.380802
C18   C     C_3   0.702522 0.528359 0.149926 0.319690
C19   C     C_3   0.297469 0.028353 0.350067 0.319742
C20   C     C_3   0.164111 0.955611 0.855591 0.380829
C21   C     C_3   0.550758 0.515755 0.711649 0.362715
C22   C     C_3   0.965407 0.464158 0.223271 0.366717
C23   C     C_3   0.034552 0.964164 0.276738 0.366715
C24   C     C_3   0.449246 0.015754 0.788351 0.362713
C25   C     C_3   0.736710 0.545283 0.671221 -0.493036
C26   C     C_3   0.773447 0.441851 0.184131 -0.529495
C27   C     C_3   0.226522 0.941846 0.315868 -0.529499
C28   C     C_3   0.263293 0.045282 0.828779 -0.493037
C29   C     C_3   0.770700 0.433332 0.806049 -0.408975
C30   C     C_3   0.753109 0.571119 0.304752 -0.541990
C31   C     C_3   0.246877 0.071109 0.195241 -0.542009
C32   C     C_3   0.229302 0.933333 0.693950 -0.408982
C33   C     C_3   0.892833 0.412143 0.726796 -0.070918
C34   C     C_3   0.705375 0.602313 0.216507 -0.006823
C35   C     C_3   0.294615 0.102303 0.283485 -0.006851
C36   C     C_3   0.107168 0.912144 0.773201 -0.070932
C37   C     C_3   0.579340 0.439584 0.774400 -0.086155
C38   C     C_3   0.947313 0.541624 0.288960 0.035236
C39   C     C_3   0.052670 0.041613 0.211029 0.035266
C40   C     C_3   0.420663 0.939583 0.725599 -0.086157
H9    H     H_    0.491867 0.448227 0.828286 0.240257
H10   H     H_    0.982881 0.520671 0.349160 0.228237
H11   H     H_    0.017136 0.020645 0.150829 0.228205
H12   H     H_    0.508134 0.948227 0.671712 0.240257
I1    I     I_    0.105609 0.606360 0.700753 -0.022314
I2    I     I_    0.462245 0.326923 0.249796 -0.030791
I3    I     I_    0.537673 0.826901 0.250192 -0.030843
I4    I     I_    0.894392 0.106360 0.799249 -0.022316
I5    I     I_    0.430123 0.327224 0.765092 -0.046769
I6    I     I_    0.143852 0.647294 0.284958 -0.033808
I7    I     I_    0.856094 0.147269 0.214996 -0.033694
I8    I     I_    0.569893 0.827226 0.734897 -0.046774
I9    I     I_    0.686299 0.354954 0.586847 0.177221
I10   I     I_    0.861585 0.539684 0.038231 0.040254
I11   I     I_    0.138436 0.039690 0.461772 0.040316
I12   I     I_    0.313715 0.854951 0.913139 0.177227
I13   I     I_    0.993422 0.290484 0.713320 -0.036914
I14   I     I_    0.838043 0.705593 0.152963 0.092428
I15   I     I_    0.161933 0.205580 0.347018 0.092438
I16   I     I_    0.006574 0.790486 0.786676 -0.036922
N1    N     N_R   0.690857 0.571449 0.881235 0.240312
O21   O     O_R   0.697838 0.652444 0.893491 -0.254343
O22   O     O_R   0.580586 0.528297 0.927665 -0.318432
N2    N     N_R   0.658617 0.452648 0.404114 0.242526
O23   O     O_R   0.563406 0.387902 0.426921 -0.250109
O24   O     O_R   0.762224 0.486482 0.454175 -0.404131
N3    N     N_R   0.341326 0.952630 0.095881 0.242540
O25   O     O_R   0.436462 0.887857 0.073090 -0.250147
O26   O     O_R   0.237829 0.986500 0.045799 -0.404152
N4    N     N_R   0.309148 0.071453 0.618770 0.240310
O27   O     O_R   0.302164 0.152448 0.606515 -0.254354
O28   O     O_R   0.419425 0.028302 0.572340 -0.318410
N5    N     N_R   0.994759 0.536669 0.863479 0.257232
O29   O     O_R   0.102108 0.473663 0.868589 -0.335726
O30   O     O_R   0.046847 0.610395 0.887228 -0.226997
N6    N     N_R   0.445239 0.513892 0.326294 0.243884
O31   O     O_R   0.363131 0.504475 0.260624 -0.368133
O32   O     O_R   0.352078 0.521211 0.394867 -0.239096
N7    N     N_R   0.554732 0.013857 0.173700 0.243898
O33   O     O_R   0.636831 0.004454 0.239372 -0.368173
O34   O     O_R   0.647900 0.021148 0.105128 -0.239062
N8    N     N_R   0.005245 0.036671 0.636521 0.257233
O35   O     O_R   0.897897 0.973664 0.631408 -0.335717
O36   O     O_R   0.953157 0.110397 0.612774 -0.226997
N9    N     N_R   0.989506 0.463687 0.584827 0.281858
O37   O     O_R   0.016084 0.530066 0.540064 -0.285957
O38   O     O_R   0.074880 0.396307 0.560711 -0.210620
N10   N     N_R   0.528071 0.529780 0.116504 0.290668
O39   O     O_R   0.483202 0.470057 0.068784 -0.245788
O40   O     O_R   0.463218 0.603615 0.101109 -0.247546
N11   N     N_R   0.471926 0.029766 0.383483 0.290658
O41   O     O_R   0.516753 0.970058 0.431224 -0.245819
O42   O     O_R   0.536810 0.103598 0.398860 -0.247561
N12   N     N_R   0.010501 0.963685 0.915173 0.281856
O43   O     O_R   0.983915 0.030065 0.959934 -0.285974
O44   O     O_R   0.925133 0.896304 0.939290 -0.210631
N13   N     N_R   0.432956 0.491074 0.647290 0.267353
O45   O     O_R   0.465797 0.508456 0.570828 -0.278002
O46   O     O_R   0.290296 0.450118 0.665503 -0.343466
N14   N     N_R   0.104416 0.481675 0.159415 0.277006
O47   O     O_R   0.148311 0.557422 0.137315 -0.269611
O48   O     O_R   0.201547 0.420667 0.129835 -0.236815
N15   N     N_R   0.895585 0.981733 0.340596 0.277007
O49   O     O_R   0.851755 0.057493 0.362666 -0.269647
O50   O     O_R   0.798540 0.920755 0.370278 -0.236754
N16   N     N_R   0.567049 0.991074 0.852710 0.267354
O51   O     O_R   0.534207 0.008457 0.929172 -0.277988
O52   O     O_R   0.709707 0.950117 0.834497 -0.343468
N17   N     N_R   0.467081 0.585128 0.759244 0.234868
O53   O     O_R   0.466237 0.659793 0.730032 -0.370630
O54   O     O_R   0.366210 0.572482 0.824296 -0.237083
N18   N     N_R   0.026386 0.389036 0.265916 0.231902
O55   O     O_R   0.035615 0.318299 0.226974 -0.373217
O56   O     O_R   0.078109 0.391228 0.339708 -0.287008
N19   N     N_R   0.973491 0.889040 0.234120 0.231909
O57   O     O_R   0.964105 0.818326 0.273087 -0.373136
O58   O     O_R   0.921875 0.891213 0.160304 -0.287086
N20   N     N_R   0.532923 0.085127 0.740757 0.234868
O59   O     O_R   0.533767 0.159792 0.769971 -0.370630
O60   O     O_R   0.633799 0.072481 0.675707 -0.237083

loop_
_geom_bond_atom_site_label_1
_geom_bond_atom_site_label_2
_geom_bond_distance
_ccdc_geom_bond_type
O17   V3    1.880900 S    
C22   N18   1.474414 S    
O1    C5    1.431992 A    
N12   O43   1.295991 A    
C23   C27   1.673192 S    
O19   V1    1.880900 S    
C1    C32   1.661287 S    
C19   N11   1.470675 S    
O3    C7    1.407358 A    
N19   O57   1.293851 A    
C10   C14   1.577877 S    
C13   C29   1.620093 S    
C40   H12   1.087350 S    
C3    C30   1.643643 S    
O15   V3    2.127654 S    
C2    C31   1.643669 S    
N8    O35   1.298989 A    
C15   C31   1.619571 S    
N15   O49   1.295240 A    
C34   I14   2.164643 S    
C16   C32   1.620099 S    
C33   I13   2.086060 S    
N5    O30   1.304307 A    
O5    C1    1.415697 A    
N1    O21   1.303855 A    
C13   N5    1.478640 S    
C18   N10   1.470686 S    
C32   C36   1.594583 S    
C11   C27   1.539068 S    
N19   O58   1.302077 A    
C15   N3    1.457581 S    
C5    C27   1.647613 S    
N9    O38   1.302487 A    
C6    C28   1.658629 S    
O4    C8    1.431952 A    
N11   O42   1.303673 A    
C29   C37   1.582455 S    
O1    V3    2.163862 S    
O13   V1    2.163877 S    
N6    O31   1.291786 A    
C30   C38   1.560506 S    
O2    V4    2.127630 S    
C11   I3    2.107165 S    
O3    V1    2.127653 S    
C12   H4    1.103830 S    
C20   C28   1.660195 S    
C1    O15   1.409542 A    
C13   N1    1.482476 S    
N7    O33   1.291764 A    
C2    O16   1.406722 A    
N14   O47   1.295292 A    
C24   C40   1.615292 S    
N2    O24   1.293488 A    
O2    C6    1.407360 A    
C9    C25   1.571368 S    
C37   H9    1.087354 S    
O14   V2    2.127679 S    
C21   N17   1.475572 S    
C11   C15   1.577875 S    
C14   C30   1.619581 S    
C39   I7    2.248769 S    
C20   C36   1.606860 S    
O11   C7    1.417895 A    
C21   C37   1.615297 S    
O12   C8    1.378137 A    
N15   O50   1.296944 A    
C15   N7    1.462267 S    
O10   V2    2.179736 S    
O16   V4    2.163899 S    
H7    C35   1.107619 S    
N10   O40   1.303687 A    
O7    C3    1.411141 A    
O5    V1    2.179747 S    
C31   C35   1.599723 S    
O7    V3    2.111325 S    
C30   C34   1.599750 S    
C18   C26   1.592341 S    
C17   I9    2.211131 S    
N11   O41   1.291697 A    
N18   O56   1.302002 A    
C12   I4    2.146379 S    
C19   I11   2.151362 S    
C20   N12   1.488698 S    
O18   V4    1.880899 S    
O11   V3    2.179755 S    
C9    H1    1.103829 S    
C24   C28   1.600785 S    
O8    V4    2.179769 S    
C11   H3    1.104091 S    
C38   H10   1.096427 S    
C24   N16   1.483890 S    
C23   N19   1.474419 S    
N3    O25   1.301357 A    
C22   C38   1.639622 S    
C20   I12   2.211131 S    
O8    C4    1.415699 A    
N2    O23   1.301390 A    
C35   I15   2.164560 S    
O9    C5    1.378092 A    
N7    O34   1.304020 A    
C19   C35   1.608889 S    
H8    C36   1.089009 S    
N4    O28   1.298486 A    
C18   C34   1.608890 S    
C40   I8    2.127216 S    
C17   C33   1.606871 S    
N14   O48   1.297070 A    
O6    V2    2.111345 S    
C31   C39   1.560522 S    
H5    C33   1.089009 S    
C17   N9    1.488697 S    
C12   C16   1.597801 S    
C19   C27   1.592336 S    
C24   N20   1.475568 S    
N10   O39   1.291732 A    
N13   O45   1.300298 A    
C22   C26   1.673157 S    
O9    V1    2.111320 S    
C7    C25   1.658644 S    
C3    O13   1.406730 A    
N12   O44   1.302487 A    
N3    O26   1.293430 A    
C10   H2    1.104091 S    
N18   O55   1.293921 A    
C12   C28   1.571366 S    
C21   C25   1.600780 S    
O6    C2    1.411159 A    
C17   C25   1.660200 S    
N8    O36   1.304307 A    
H6    C34   1.107619 S    
N16   O52   1.287698 A    
O12   V4    2.111299 S    
C22   N14   1.475210 S    
N5    O29   1.298990 A    
C14   N2    1.457584 S    
C9    C13   1.597814 S    
O10   C6    1.417888 A    
N17   O54   1.297622 A    
N17   O53   1.280223 A    
C10   I2    2.107178 S    
C39   H11   1.096417 S    
C4    C29   1.661305 S    
C9    I1    2.146381 S    
N1    O22   1.298490 A    
C23   N15   1.475176 S    
O20   V2    1.880900 S    
C36   I16   2.086060 S    
N6    O32   1.304038 A    
N20   O60   1.297618 A    
C32   C40   1.582458 S    
N4    O27   1.303855 A    
C38   I6    2.248749 S    
O4    V2    2.163837 S    
C37   I5    2.127205 S    
N16   O51   1.300296 A    
C18   I10   2.151329 S    
C16   N8    1.478642 S    
C29   C33   1.594588 S    
C21   N13   1.483885 S    
C8    C26   1.647614 S    
C4    O14   1.409549 A    
C10   C26   1.539100 S    
N20   O59   1.280219 A    
N9    O37   1.295991 A    
C14   N6    1.462269 S    
C23   C39   1.639662 S    
N13   O46   1.287698 A    
C16   N4    1.482476 S    
