data_mof_unit_55718.cif
_audit_creation_date              2012-12-11T15:39:29-0500
_audit_creation_method            fapswitch 2.2
_symmetry_space_group_name_H-M    P1
_symmetry_Int_Tables_number       1
_space_group_crystal_system       triclinic
_cell_length_a                    14.346082
_cell_length_b                    14.787171
_cell_length_c                    33.198034
_cell_angle_alpha                 97.553235
_cell_angle_beta                  90.367751
_cell_angle_gamma                 118.941036
_cell_volume                      6089.66225425

loop_
_atom_site_label
_atom_site_type_symbol
_atom_type_description
_atom_site_fract_x
_atom_site_fract_y
_atom_site_fract_z
_atom_type_partial_charge
C1    C     C_R   0.616990 0.910211 0.437071 0.537611
C2    C     C_R   0.712382 0.438121 0.949136 0.533223
C3    C     C_R   0.742598 0.819937 0.766482 -0.136226
C4    C     C_R   0.735529 0.840477 0.727301 -0.174924
C5    C     C_R   0.683814 0.758369 0.694750 0.026230
C6    C     C_R   0.639344 0.654264 0.702335 0.402220
C7    C     C_R   0.646253 0.633737 0.742019 -0.060456
C8    C     C_R   0.698242 0.716671 0.774327 -0.037042
C9    C     C_R   0.570357 0.733272 0.632332 -0.064303
C10   C     C_R   0.553470 0.769842 0.597861 -0.127640
C11   C     C_R   0.738628 0.906508 0.605320 -0.111191
C12   C     C_R   0.743567 0.716508 0.945912 0.561002
C13   C     C_R   0.826661 0.433725 0.164875 -0.073292
C14   C     C_R   0.824637 0.446089 0.123986 0.383055
C15   C     C_R   0.775701 0.352611 0.246614 -0.106009
C16   C     C_R   0.767975 0.339938 0.287504 -0.113313
C17   C     C_R   0.733134 0.396977 0.314371 0.057849
C18   C     C_R   0.712854 0.471740 0.300469 -0.043340
C19   C     C_R   0.720151 0.484107 0.259561 -0.105369
C20   C     C_R   0.748302 0.422205 0.232152 0.029698
C21   C     C_R   0.742989 0.426333 0.188273 -0.029430
C22   C     C_R   0.603086 0.341367 0.367484 0.369368
C23   C     C_R   0.594293 0.205995 0.456741 0.573119
C24   C     C_R   0.569734 0.294512 0.402237 -0.140656
C25   C     C_R   0.743091 0.307302 0.414211 0.368638
C26   C     C_R   0.776418 0.354374 0.379459 -0.139839
C27   C     C_R   0.705696 0.368422 0.355132 -0.029992
C28   C     C_R   0.637602 0.273041 0.424969 -0.032244
C29   C     C_R   0.245059 0.878350 0.393354 0.019599
C30   C     C_R   0.233424 0.959909 0.380719 -0.121585
C31   C     C_R   0.209689 0.957697 0.339608 -0.104343
C32   C     C_R   0.755778 0.869131 0.639572 -0.111574
C33   C     C_R   0.196630 0.873797 0.310733 0.036439
C34   C     C_R   0.201155 0.789205 0.323304 -0.113311
C35   C     C_R   0.295666 0.892854 0.434379 0.545055
C36   C     C_R   0.225002 0.791234 0.364388 -0.122384
C37   C     C_R   0.195371 0.807048 0.163196 -0.100707
C38   C     C_R   0.167302 0.785551 0.121346 -0.100784
C39   C     C_R   0.091688 0.901617 0.129498 -0.119106
C40   C     C_R   0.119327 0.922559 0.171476 -0.104278
C41   C     C_R   0.167665 0.872248 0.188494 0.033641
C42   C     C_1   0.178604 0.877762 0.231901 -0.018152
C43   C     C_R   0.670979 0.784130 0.654142 0.059073
C44   C     C_1   0.186034 0.877266 0.268000 -0.018229
C45   C     C_R   0.110857 0.828948 0.104344 0.012024
C46   C     C_R   0.637548 0.878368 0.395632 0.018539
C47   C     C_R   0.613888 0.904716 0.551570 0.538017
C48   C     C_R   0.552990 0.798424 0.368891 -0.121130
C49   C     C_R   0.564584 0.785860 0.327171 -0.108982
C50   C     C_R   0.660810 0.852358 0.311950 0.034557
C51   C     C_R   0.747832 0.926727 0.338593 -0.110400
C52   C     C_R   0.736467 0.939588 0.380296 -0.112462
C53   C     C_R   0.765207 0.926086 0.174108 -0.076074
C54   C     C_R   0.636572 0.858804 0.584736 0.013567
C55   C     C_R   0.782164 0.915105 0.132706 0.226907
C56   C     C_R   0.622617 0.743866 0.122553 -0.162600
C57   C     C_R   0.606618 0.755912 0.163728 -0.130016
C58   C     C_R   0.680232 0.844951 0.189743 -0.003839
C59   C     C_R   0.589886 0.199718 0.570805 0.552037
C60   C     C_1   0.673100 0.848751 0.232811 -0.023988
C61   C     C_1   0.667693 0.849904 0.268914 -0.023587
C62   C     C_R   0.713593 0.820178 0.106768 0.028419
C63   C     C_R   0.624389 0.252304 0.613416 -0.082279
C64   C     C_R   0.559928 0.284353 0.635875 -0.073331
C65   C     C_R   0.052206 0.781319 0.063781 0.540444
C66   C     C_R   0.578013 0.310946 0.678181 0.372892
C67   C     C_R   0.660965 0.306074 0.698503 0.047349
C68   C     C_R   0.730850 0.281953 0.676088 0.192390
C69   C     C_R   0.712640 0.255673 0.633710 -0.106646
C70   C     C_R   0.764512 0.349666 0.844676 -0.111502
C71   C     C_R   0.288577 0.886523 0.548378 0.571643
C72   C     C_R   0.773058 0.373548 0.887085 -0.127285
C73   C     C_R   0.594715 0.353055 0.884515 -0.125118
C74   C     C_R   0.586409 0.329146 0.842120 -0.112544
C75   C     C_R   0.672744 0.331199 0.822154 0.032109
C76   C     C_R   0.744038 0.486864 0.066283 0.567922
C77   C     C_1   0.670199 0.322505 0.778644 0.020500
C78   C     C_1   0.667388 0.316393 0.742166 0.096558
C79   C     C_R   0.690122 0.380282 0.907303 0.023874
C80   C     C_R   0.061192 0.749421 0.906962 0.022797
C81   C     C_R   0.099124 0.847686 0.894696 -0.138714
C82   C     C_R   0.112508 0.858003 0.853699 -0.124848
C83   C     C_R   0.738035 0.450860 0.106014 0.026471
C84   C     C_R   0.087812 0.770079 0.824528 0.028572
C85   C     C_R   0.055955 0.673189 0.837280 -0.114467
C86   C     C_R   0.043531 0.663115 0.878198 -0.116904
C87   C     C_R   0.742913 0.789394 0.066542 0.575031
C88   C     C_R   0.131762 0.723796 0.755163 -0.097114
C89   C     C_R   0.136803 0.731729 0.713930 -0.095443
C90   C     C_R   0.102218 0.794230 0.697510 0.034681
C91   C     C_R   0.059825 0.846606 0.722788 -0.096593
C92   C     C_R   0.054770 0.838656 0.764165 -0.106040
C93   C     C_R   0.091835 0.778045 0.780756 0.030102
C94   C     C_R   0.176544 0.917915 0.647620 -0.137146
C95   C     C_R   0.651105 0.435893 0.128983 -0.181174
C96   C     C_R   0.223455 0.940504 0.611080 -0.182322
C97   C     C_R   0.156929 0.755395 0.588264 0.384694
C98   C     C_R   0.020991 0.731753 0.947219 0.525736
C99   C     C_R   0.109635 0.733065 0.624764 -0.073153
C100  C     C_R   0.124143 0.814511 0.655493 -0.033907
C101  C     C_R   0.219035 0.859998 0.582109 0.023092
C102  C     C_R   0.728278 0.702040 0.901096 0.014443
C103  C     C_R   0.630542 0.632576 0.878423 -0.122282
C104  C     C_R   0.620909 0.631576 0.836137 -0.109828
C105  C     C_R   0.709240 0.699028 0.816484 0.034216
C106  C     C_R   0.808181 0.760871 0.838893 -0.106704
C107  C     C_R   0.653835 0.424223 0.169740 -0.137804
C108  C     C_R   0.817253 0.762945 0.880556 -0.119689
Cl1   Cl    Cl    0.892981 0.020654 0.116056 -0.592363
Cl2   Cl    Cl    0.837475 0.277072 0.700401 -0.612614
Cr1   Cr    Cr6+3 0.424820 0.846020 0.489780 1.068035
Cr2   Cr    Cr6+3 0.657880 0.078580 0.505700 1.099462
Cr3   Cr    Cr6+3 0.417280 0.075360 0.504550 1.031011
Cr4   Cr    Cr6+3 0.903360 0.812540 0.006510 1.056676
Cr5   Cr    Cr6+3 0.914630 0.587050 0.006280 1.077664
Cr6   Cr    Cr6+3 0.673560 0.582680 0.008540 1.016899
F1    F     F_    0.812732 0.291431 0.436089 -0.600002
F2    F     F_    0.909618 0.458261 0.102850 -0.610564
F3    F     F_    0.510699 0.335455 0.699487 -0.615119
F4    F     F_    0.146545 0.675122 0.560046 -0.599728
F5    F     F_    0.590861 0.572798 0.671440 -0.610224
F6    F     F_    0.531726 0.351624 0.344121 -0.633149
H1    H     H_    0.582966 0.438391 0.116119 0.148813
H2    H     H_    0.047640 0.935601 0.117365 0.185726
H3    H     H_    0.205956 0.023364 0.330168 0.130490
H4    H     H_    0.820921 0.996205 0.194400 0.144919
H5    H     H_    0.822802 0.978064 0.326960 0.119102
H6    H     H_    0.803084 0.001594 0.400138 0.152901
H7    H     H_    0.475756 0.750276 0.379731 0.135599
H8    H     H_    0.539759 0.693267 0.175613 0.125309
H9    H     H_    0.567036 0.671068 0.103666 0.141601
H10   H     H_    0.497000 0.727757 0.306635 0.117325
H11   H     H_    0.847673 0.394303 0.903659 0.131436
H12   H     H_    0.488338 0.269298 0.409834 0.168784
H13   H     H_    0.856115 0.375849 0.370513 0.148999
H14   H     H_    0.831556 0.350950 0.829383 0.134072
H15   H     H_    0.763800 0.231801 0.617061 0.183175
H16   H     H_    0.491763 0.283113 0.621048 0.180481
H17   H     H_    0.514863 0.314466 0.824824 0.129524
H18   H     H_    0.529558 0.357870 0.899050 0.132874
H19   H     H_    0.113089 0.915175 0.916466 0.123468
H20   H     H_    0.012705 0.586092 0.886790 0.128474
H21   H     H_    0.067187 0.652542 0.630046 0.151928
H22   H     H_    0.783197 0.281214 0.297614 0.114322
H23   H     H_    0.895627 0.434377 0.178700 0.138733
H24   H     H_    0.172473 0.692779 0.695259 0.121731
H25   H     H_    0.162268 0.677795 0.767247 0.118183
H26   H     H_    0.139406 0.934021 0.844673 0.112448
H27   H     H_    0.032626 0.895125 0.710674 0.112144
H28   H     H_    0.022524 0.880409 0.783135 0.096580
H29   H     H_    0.189069 0.982094 0.670958 0.141147
H30   H     H_    0.269999 0.021646 0.606932 0.152391
H31   H     H_    0.035401 0.603924 0.815405 0.121490
H32   H     H_    0.561196 0.583091 0.893456 0.128641
H33   H     H_    0.797507 0.304163 0.225922 0.122320
H34   H     H_    0.183194 0.729370 0.102757 0.149378
H35   H     H_    0.893815 0.815835 0.897114 0.138404
H36   H     H_    0.834527 0.909153 0.655646 0.117315
H37   H     H_    0.768130 0.921121 0.722689 0.139266
H38   H     H_    0.781524 0.885356 0.790984 0.132376
H39   H     H_    0.543725 0.582656 0.819299 0.120498
H40   H     H_    0.612547 0.553580 0.747426 0.173992
H41   H     H_    0.503075 0.669005 0.643217 0.172773
H42   H     H_    0.473753 0.731266 0.582676 0.152899
H43   H     H_    0.877816 0.811920 0.824450 0.108535
H44   H     H_    0.587104 0.415749 0.187087 0.138373
H45   H     H_    0.233087 0.767980 0.176096 0.119867
H46   H     H_    0.804388 0.974495 0.595707 0.146150
H47   H     H_    0.687576 0.517626 0.320928 0.157783
H48   H     H_    0.701056 0.540011 0.249058 0.111618
H49   H     H_    0.190772 0.723690 0.301124 0.115181
H50   H     H_    0.233744 0.727446 0.373027 0.136682
H51   H     H_    0.248571 0.028252 0.402194 0.137201
H52   H     H_    0.097560 0.973198 0.190846 0.134032
O1    O     O_R   0.318160 0.824460 0.443680 -0.507635
O2    O     O_R   0.668160 0.499860 0.053480 -0.532264
O3    O     O_R   0.689170 0.693840 0.050110 -0.512230
O4    O     O_R   0.525040 0.857250 0.449830 -0.506719
O5    O     O_R   0.803860 0.812940 0.962540 -0.500183
O6    O     O_R   0.982950 0.787950 0.964120 -0.529807
O7    O     O_R   0.007050 0.649970 0.960540 -0.515396
O8    O     O_R   0.807910 0.482370 0.965590 -0.503395
O9    O     O_R   0.643310 0.460980 0.963840 -0.524668
O10   O     O_R   0.666140 0.657800 0.967020 -0.496291
O11   O     O_3   0.830520 0.660760 0.007110 -0.286300
O12   O     O_R   0.645130 0.163230 0.552140 -0.491355
O13   O     O_R   0.684760 0.998800 0.456360 -0.493106
O14   O     O_R   0.647540 0.166310 0.470260 -0.418040
O15   O     O_R   0.500960 0.181750 0.467450 -0.530756
O16   O     O_R   0.331100 0.981120 0.457080 -0.503843
O17   O     O_R   0.315560 0.821140 0.532010 -0.437780
O18   O     O_R   0.522630 0.854180 0.531710 -0.501643
O19   O     O_R   0.682160 0.995480 0.544690 -0.512276
O20   O     O_R   0.498360 0.178430 0.555780 -0.512558
O21   O     O_R   0.328690 0.978040 0.538950 -0.517198
O22   O     O_3   0.499990 0.999990 0.500010 -0.266401
O23   O     O_R   0.828710 0.851830 0.052170 -0.436408
O24   O     O_R   0.005980 0.823990 0.047210 -0.495478
O25   O     O_R   0.031900 0.688850 0.050170 -0.482271
O26   O     O_R   0.830940 0.518420 0.048680 -0.419212

loop_
_geom_bond_atom_site_label_1
_geom_bond_atom_site_label_2
_ccdc_geom_bond_type
C40   H52   S    
Cr6   O9    S    
Cr1   O17   S    
C41   C42   S    
C19   C20   A    
C19   H48   S    
C13   H23   S    
C8    C105  S    
Cr2   O13   S    
C81   C82   A    
C57   C58   A    
C7    C8    A    
C37   H45   S    
C64   H16   S    
C77   C78   T    
C25   C28   A    
Cr3   O16   S    
C29   C36   A    
C26   C27   A    
C37   C38   A    
Cr4   O11   S    
Cr1   O1    S    
C99   H21   S    
C16   H22   S    
C72   C79   A    
Cr2   O12   S    
C30   C31   A    
Cr5   O11   S    
C1    C46   S    
C4    H37   S    
C58   C60   S    
C15   C16   A    
C96   H30   S    
C55   C62   A    
C46   C52   A    
C56   C57   A    
C59   O12   A    
C17   C18   A    
C18   C19   A    
C2    O8    A    
C47   O18   A    
C9    H41   S    
Cr2   O22   S    
C38   C45   A    
C80   C86   A    
C26   H13   S    
C13   C14   A    
C97   C99   A    
C65   O25   A    
C32   C43   A    
C63   C69   A    
C16   C17   A    
C14   F2    S    
Cr4   O23   S    
Cr1   O4    S    
C31   C33   A    
C102  C108  A    
C2    C79   S    
C38   H34   S    
C9    C10   A    
C30   H51   S    
C15   H33   S    
Cr2   O14   S    
Cr1   O22   S    
C39   C45   A    
C1    O13   A    
C66   C67   A    
C71   C101  S    
C107  H44   S    
Cr1   O18   S    
C59   O20   A    
Cr6   O3    S    
C55   Cl1   S    
C70   H14   S    
Cr3   O21   S    
C15   C20   A    
C67   C78   S    
C42   C44   T    
C14   C83   A    
C10   C54   A    
C76   C83   S    
C90   C100  S    
C104  C105  A    
Cr5   O7    S    
C22   F6    S    
C32   H36   S    
C53   C55   A    
C73   C74   A    
C69   H15   S    
C89   H24   S    
C7    H40   S    
C46   C48   A    
C84   C93   S    
C9    C43   A    
C36   H50   S    
C74   C75   A    
Cr6   O2    S    
C67   C68   A    
C17   C27   S    
C106  H43   S    
C57   H8    S    
C76   O2    A    
C84   C85   A    
C3    C8    A    
C76   O26   A    
C91   C92   A    
C91   H27   S    
C68   C69   A    
C85   H31   S    
C108  H35   S    
C25   C26   A    
C85   C86   A    
Cr5   O25   S    
C39   H2    S    
C51   C52   A    
C60   C61   T    
C64   C66   A    
C12   C102  S    
C29   C30   A    
C87   O3    A    
C1    O4    A    
C103  H32   S    
C71   O21   A    
C99   C100  A    
C94   C100  A    
C83   C95   A    
C20   C21   S    
C50   C51   A    
C73   C79   A    
C74   H17   S    
C13   C21   A    
C68   Cl2   S    
C23   C28   S    
C65   O24   A    
C94   C96   A    
C75   C77   S    
C21   C107  A    
Cr6   O11   S    
C95   C107  A    
C47   C54   S    
C23   O14   A    
Cr3   O20   S    
C11   C54   A    
C48   C49   A    
Cr5   O26   S    
C11   C32   A    
C49   C50   A    
C35   O16   A    
C82   C84   A    
C22   C27   A    
C92   H28   S    
C3    H38   S    
Cr3   O22   S    
C56   C62   A    
C48   H7    S    
C31   H3    S    
C98   O6    A    
C3    C4    A    
C49   H10   S    
C104  H39   S    
Cr5   O8    S    
C86   H20   S    
C11   H46   S    
C62   C87   S    
C18   H47   S    
C24   H12   S    
C88   C93   A    
C40   C41   A    
C10   H42   S    
C80   C98   S    
C33   C44   S    
C59   C63   S    
C47   O19   A    
C24   C28   A    
C80   C81   A    
C25   F1    S    
C52   H6    S    
C82   H26   S    
C53   C58   A    
C6    C7    A    
C73   H18   S    
Cr3   O15   S    
C105  C106  A    
C29   C35   S    
Cr4   O6    S    
C6    F5    S    
C66   F3    S    
C51   H5    S    
C97   F4    S    
C94   H29   S    
C35   O1    A    
C45   C65   S    
C72   H11   S    
C5    C6    A    
C106  C108  A    
C98   O7    A    
Cr6   O10   S    
C81   H19   S    
C92   C93   A    
C88   H25   S    
C33   C34   A    
C22   C24   A    
C2    O9    A    
C37   C41   A    
C102  C103  A    
C12   O10   A    
Cr2   O19   S    
C56   H9    S    
C53   H4    S    
C63   C64   A    
C39   C40   A    
C4    C5    A    
C12   O5    A    
C88   C89   A    
C34   C36   A    
Cr4   O5    S    
Cr4   O24   S    
C103  C104  A    
C50   C61   S    
C87   O23   A    
C5    C43   S    
C70   C75   A    
C70   C72   A    
C23   O15   A    
C71   O17   A    
C89   C90   A    
C96   C101  A    
C97   C101  A    
C34   H49   S    
C90   C91   A    
C95   H1    S    
