data_mof_unit_39027.cif
_audit_creation_date              2013-03-05T16:19:20-0500
_audit_creation_method            fapswitch 2.2
_symmetry_space_group_name_H-M    P1
_symmetry_Int_Tables_number       1
_space_group_crystal_system       triclinic
_cell_length_a                    11.07116
_cell_length_b                    9.931113
_cell_length_c                    23.385114
_cell_angle_alpha                 90.090396
_cell_angle_beta                  90.533748
_cell_angle_gamma                 92.578
_cell_volume                      2568.44969445

loop_
_atom_site_label
_atom_site_type_symbol
_atom_site_description
_atom_site_fract_x
_atom_site_fract_y
_atom_site_fract_z
_atom_type_partial_charge
O1    O     O_R   0.314910 0.616040 0.499990 -0.522124
O2    O     O_R   0.314910 0.383960 0.499990 -0.589853
C1    C     C_R   0.257726 0.497656 0.499694 0.940909
O3    O     O_R   0.500080 0.616070 0.416130 -0.603197
O4    O     O_R   0.500080 0.383930 0.416130 -0.614424
C2    C     C_R   0.501231 0.499925 0.389694 0.873362
Zn1   Zn    Zn3+2 0.500150 0.654960 0.499970 1.042806
Zn2   Zn    Zn3+2 0.500150 0.345040 0.499970 1.032410
O5    O     O_R   0.685320 0.616040 0.499970 -0.597969
O6    O     O_R   0.685320 0.383960 0.499970 -0.607051
O7    O     O_R   0.500150 0.616010 0.583820 -0.547234
O8    O     O_R   0.500150 0.383990 0.583820 -0.575006
C3    C     C_R   0.742003 0.503106 0.496260 0.924660
C4    C     C_R   0.502298 0.500218 0.610146 0.853248
C5    C     C_R   0.600481 0.618234 0.880227 0.572477
N1    N     N_R   0.562643 0.504599 0.851499 -0.347484
C6    C     C_R   0.533880 0.386523 0.878600 0.540352
C7    C     C_R   0.532008 0.381485 0.938631 -0.141760
C8    C     C_R   0.571911 0.497999 0.969691 -0.142247
C9    C     C_R   0.608757 0.617390 0.940300 -0.092757
C10   C     C_R   0.493373 0.263071 0.968040 0.450439
C11   C     C_R   0.498267 0.258454 0.027920 0.104747
C12   C     C_R   0.528536 0.378584 0.059278 -0.095179
C13   C     C_R   0.571230 0.496525 0.029994 -0.088037
C14   C     C_R   0.613884 0.612725 0.060999 -0.060634
C15   C     C_R   0.664618 0.726223 0.031112 0.044935
C16   C     C_R   0.651516 0.732480 0.971133 0.467663
C17   C     C_R   0.515635 0.386729 0.119030 0.555743
N2    N     N_R   0.552839 0.500715 0.147734 -0.350333
C18   C     C_R   0.602167 0.611348 0.120974 0.547081
O9    O     O_2   0.630095 0.730648 0.850172 -0.457092
O10   O     O_2   0.508304 0.274993 0.846903 -0.502147
O11   O     O_2   0.463353 0.284084 0.148876 -0.535518
O12   O     O_2   0.634626 0.720583 0.152828 -0.537302
C19   C     C_R   0.619235 0.429131 0.242764 0.483761
C20   C     C_R   0.604726 0.425936 0.301685 0.349774
C21   C     C_R   0.512819 0.500022 0.327458 -0.461366
C22   C     C_R   0.434725 0.575886 0.292951 0.382684
C23   C     C_R   0.447769 0.576060 0.233709 0.487602
C24   C     C_R   0.540496 0.503252 0.208546 -0.125945
C25   C     C_R   0.438032 0.542307 0.766839 0.144585
C26   C     C_R   0.420783 0.535328 0.707510 0.411719
C27   C     C_R   0.517867 0.501325 0.672192 -0.318597
C28   C     C_R   0.631420 0.471820 0.696572 0.373897
C29   C     C_R   0.646524 0.473846 0.755954 0.148943
C30   C     C_R   0.549972 0.509255 0.790735 0.121683
C31   C     C_3   0.070245 0.539825 0.559518 0.365010
C32   C     C_3   0.059848 0.349683 0.482534 0.416603
C33   C     C_3   0.928491 0.530794 0.556169 0.083941
C34   C     C_3   0.920284 0.364452 0.475514 0.191289
H1    H     H_    0.899871 0.436561 0.579019 0.201623
H2    H     H_    0.875673 0.289917 0.505037 0.198544
C35   C     C_3   0.080494 0.598698 0.448115 0.689992
C36   C     C_3   0.120144 0.496730 0.497646 -0.142632
C37   C     C_3   0.879485 0.508836 0.493538 -0.200225
C38   C     C_3   0.938151 0.618470 0.449826 0.240745
C39   C     C_3   0.376945 0.073756 0.486313 0.164165
C40   C     C_3   0.375352 0.913089 0.491940 0.213905
H3    H     H_    0.350311 0.098448 0.441431 0.043569
H4    H     H_    0.335210 0.871756 0.451484 0.144857
H5    H     H_    0.540051 0.122597 0.410175 0.127776
H6    H     H_    0.508151 0.897118 0.408751 0.082119
C41   C     C_3   0.574740 0.082920 0.451635 0.138529
C42   C     C_3   0.563327 0.922418 0.448079 0.149189
C43   C     C_3   0.542080 0.084739 0.556170 0.577351
C44   C     C_3   0.550963 0.921745 0.554532 0.536865
N3    N     N_3   0.499750 0.138610 0.498760 -0.094415
N4    N     N_3   0.499750 0.861390 0.498760 -0.105978
O13   O     O_3   0.445846 0.151495 0.939183 -0.711503
H7    H     H_    0.374688 0.181754 0.917398 0.361072
O14   O     O_3   0.307781 0.559528 0.685561 -0.747821
H8    H     H_    0.298704 0.514406 0.648078 0.360828
O15   O     O_3   0.730145 0.440809 0.664148 -0.746616
H9    H     H_    0.715171 0.463628 0.623809 0.344046
C45   C     C_3   0.767381 0.438760 0.781172 -0.655455
H10   H     H_    0.839283 0.509613 0.764694 0.252095
H11   H     H_    0.770609 0.444281 0.828491 0.206501
H12   H     H_    0.787984 0.334491 0.768532 0.252929
C46   C     C_3   0.121974 0.676811 0.582760 -0.648605
H13   H     H_    0.082924 0.698930 0.625179 0.239213
H14   H     H_    0.220265 0.672775 0.590543 0.295036
H15   H     H_    0.105107 0.762454 0.555463 0.256715
C47   C     C_3   0.113375 0.277614 0.429072 -0.688827
H16   H     H_    0.087948 0.168129 0.430505 0.203114
H17   H     H_    0.078964 0.313630 0.387509 0.281667
H18   H     H_    0.212443 0.285364 0.425831 0.241443
O16   O     O_3   0.106658 0.446999 0.601226 -0.771544
H19   H     H_    0.065615 0.465409 0.637911 0.386510
O17   O     O_3   0.070565 0.259267 0.528562 -0.764562
H20   H     H_    0.150698 0.272537 0.546397 0.442518
O18   O     O_3   0.871261 0.631327 0.587200 -0.772035
H21   H     H_    0.900135 0.721202 0.574391 0.354654
O19   O     O_3   0.876798 0.329957 0.420744 -0.758006
H22   H     H_    0.889697 0.233126 0.414678 0.362111
O20   O     O_3   0.144643 0.724035 0.454805 -0.760366
H23   H     H_    0.130194 0.781142 0.420818 0.327188
O21   O     O_3   0.115220 0.544086 0.395288 -0.818909
H24   H     H_    0.107685 0.612149 0.364623 0.355810
C48   C     C_3   0.915096 0.767262 0.466939 -0.826949
H25   H     H_    0.829479 0.773434 0.486870 0.314947
H26   H     H_    0.978024 0.815170 0.497691 0.226905
H27   H     H_    0.917887 0.837754 0.430066 0.242722
C49   C     C_3   0.878234 0.604671 0.388913 -0.703940
H28   H     H_    0.908462 0.689128 0.360579 0.201906
H29   H     H_    0.902108 0.514246 0.364833 0.309648
H30   H     H_    0.778337 0.607095 0.391419 0.231991
C50   C     C_3   0.471616 0.123665 0.056819 -0.681482
H31   H     H_    0.381512 0.122538 0.077275 0.268088
H32   H     H_    0.471134 0.037079 0.026763 0.246671
H33   H     H_    0.543303 0.104176 0.088882 0.247330
O22   O     O_3   0.289890 0.126937 0.520934 -0.663914
H34   H     H_    0.211800 0.083086 0.508168 0.355497
O23   O     O_3   0.297806 0.862738 0.534698 -0.678697
H35   H     H_    0.296486 0.924974 0.567714 0.414391
C51   C     C_3   0.665033 0.154540 0.577422 -0.772115
H36   H     H_    0.744534 0.134502 0.551412 0.256599
H37   H     H_    0.663386 0.262611 0.582151 0.281783
H38   H     H_    0.686529 0.121928 0.621571 0.188108
C52   C     C_3   0.681557 0.877302 0.565734 -0.810475
H39   H     H_    0.745626 0.919445 0.534212 0.257412
H40   H     H_    0.716336 0.910286 0.608316 0.194858
H41   H     H_    0.682993 0.768089 0.569669 0.316427
O24   O     O_3   0.454607 0.118671 0.597084 -0.664444
H42   H     H_    0.487117 0.109360 0.636503 0.336859
O25   O     O_3   0.483327 0.865679 0.600400 -0.696729
H43   H     H_    0.522502 0.891427 0.637461 0.334873
O26   O     O_3   0.695276 0.128689 0.455865 -0.718502
H44   H     H_    0.732048 0.105280 0.418886 0.355931
O27   O     O_3   0.674036 0.864580 0.439448 -0.735526
H45   H     H_    0.695029 0.876023 0.398465 0.334433
C53   C     C_3   0.741124 0.835929 0.061256 -0.755199
H46   H     H_    0.804350 0.790496 0.092070 0.272668
H47   H     H_    0.800586 0.894504 0.031507 0.233931
H48   H     H_    0.682392 0.906770 0.083374 0.262255
O28   O     O_3   0.681389 0.850066 0.941935 -0.678782
H49   H     H_    0.659595 0.927676 0.965865 0.349650
O29   O     O_3   0.713228 0.359165 0.220295 -0.669471
H50   H     H_    0.726124 0.384400 0.179852 0.334599
O30   O     O_3   0.684967 0.350779 0.332281 -0.674289
H51   H     H_    0.689885 0.383112 0.372076 0.374744
O31   O     O_3   0.341957 0.648731 0.314752 -0.694931
H52   H     H_    0.325101 0.621320 0.354505 0.355649
O32   O     O_3   0.365947 0.646782 0.201865 -0.667076
H53   H     H_    0.374636 0.626914 0.160711 0.339278
C54   C     C_3   0.336364 0.580210 0.805679 -0.730427
H54   H     H_    0.253147 0.605444 0.782015 0.281309
H55   H     H_    0.312538 0.495108 0.834791 0.218735
H56   H     H_    0.365377 0.669847 0.831607 0.238510

loop_
_geom_bond_atom_site_label_1
_geom_bond_atom_site_label_2
_geom_bond_distance
_ccdc_geom_bond_type
C44   N4    1.528064 S    
O16   H19   0.995028 S    
O19   H22   0.988726 S    
C35   O20   1.412809 S    
C7    C10   1.414799 A    
C43   C51   1.575405 S    
O15   H9    0.984809 S    
O22   H34   0.993553 S    
C31   C46   1.547883 S    
C37   C38   1.613833 S    
C53   H48   1.109738 S    
C33   H1    1.113453 S    
O21   H24   0.991767 S    
O28   H49   0.991626 S    
C31   C33   1.569123 S    
C39   O22   1.386481 S    
C35   C36   1.610596 S    
C32   C36   1.615365 S    
C15   C16   1.410495 A    
C21   C22   1.419108 A    
C47   H16   1.111461 S    
C42   N4    1.498945 S    
C17   N2    1.360937 A    
C39   N3    1.503765 S    
O27   H45   0.993757 S    
O2    C1    1.319103 A    
O4    C2    1.307830 A    
O7    C4    1.306285 A    
O32   H53   0.988537 S    
C35   C38   1.597694 S    
C20   O30   1.381191 S    
C40   H4    1.111568 S    
C5    N1    1.360225 A    
C7    C8    1.416692 A    
C25   C26   1.399901 A    
H5    C41   1.118325 S    
O5    C3    1.312734 A    
H6    C42   1.121216 S    
C49   H28   1.111372 S    
Zn1   N4    2.050524 S    
C8    C9    1.417366 A    
N1    C6    1.360384 A    
C43   N3    1.523600 S    
C40   O23   1.402095 S    
C34   H2    1.115150 S    
C25   C30   1.407188 A    
C32   C34   1.565774 S    
C10   C11   1.401751 A    
C50   H32   1.109539 S    
O13   H7    0.992351 S    
C33   O18   1.409973 S    
O3    Zn1   1.997675 S    
C54   H55   1.110153 S    
C54   H54   1.108860 S    
C52   H40   1.107988 S    
C5    C9    1.407005 A    
C41   N3    1.505336 S    
C18   O12   1.348422 S    
O24   H42   0.992451 S    
C13   C14   1.422103 A    
O3    C2    1.308433 A    
N1    C30   1.427587 S    
C23   C24   1.414104 A    
C46   H14   1.104150 S    
C51   H37   1.079761 S    
C14   C15   1.423834 A    
C29   C30   1.406043 A    
C32   O17   1.410381 S    
C46   H13   1.111301 S    
C10   O13   1.377912 S    
O1    C1    1.309977 A    
C19   C20   1.388921 A    
C31   O16   1.411600 S    
Zn1   O7    1.999228 S    
C45   H10   1.110620 S    
N2    C18   1.360729 A    
O4    Zn2   1.998884 S    
C48   H25   1.064354 S    
Zn2   O8    1.998030 S    
C51   H38   1.109451 S    
C48   H27   1.111317 S    
C6    C7    1.405110 A    
C2    C21   1.462224 S    
C49   H29   1.102697 S    
C12   C17   1.408493 A    
C52   H39   1.098037 S    
C45   H11   1.107977 S    
C1    C36   1.523109 S    
C31   C36   1.617416 S    
C40   N4    1.498526 S    
C47   H17   1.106460 S    
O8    C4    1.306503 A    
C17   O11   1.348317 S    
C44   C52   1.550661 S    
C27   C28   1.418334 A    
O25   H43   0.993464 S    
C22   O31   1.383303 S    
C26   C27   1.414115 A    
C50   H31   1.109941 S    
O26   H44   0.990955 S    
O18   H21   0.982620 S    
C54   H56   1.110044 S    
C28   C29   1.397146 A    
O23   H35   0.988874 S    
C52   H41   1.089467 S    
C14   C18   1.409740 A    
Zn1   O5    2.103182 S    
C20   C21   1.420329 A    
C48   H26   1.090265 S    
O1    Zn1   2.069776 S    
O2    Zn2   2.103946 S    
C38   C49   1.568913 S    
C23   O32   1.383749 S    
C53   H47   1.109553 S    
O6    C3    1.317561 A    
C46   H15   1.086069 S    
O30   H51   0.984208 S    
C44   O25   1.414423 S    
C34   O19   1.400675 S    
C5    O9    1.349690 S    
C9    C16   1.411655 A    
O29   H50   0.988783 S    
C34   C37   1.580388 S    
C32   C47   1.573399 S    
C29   C45   1.512415 S    
C16   O28   1.382468 S    
C8    C13   1.410381 A    
O14   H8    0.986068 S    
C33   C37   1.568644 S    
C53   H46   1.110342 S    
C19   O29   1.384151 S    
C39   C40   1.600541 S    
C22   C23   1.394214 A    
N2    C24   1.430206 S    
C26   O14   1.379081 S    
C50   H33   1.110288 S    
C35   O21   1.411938 S    
C19   C24   1.410205 A    
C49   H30   1.109409 S    
C43   O24   1.418597 S    
C28   O15   1.381818 S    
C45   H12   1.110503 S    
C39   H3    1.118140 S    
C12   C13   1.422341 A    
C41   C42   1.595269 S    
C47   H18   1.099360 S    
C25   C54   1.513168 S    
C42   O27   1.393024 S    
Zn2   N3    2.050036 S    
Zn2   O6    2.069012 S    
C43   C44   1.626524 S    
O20   H23   0.993046 S    
C6    O10   1.349711 S    
C11   C12   1.424794 A    
C38   C48   1.562939 S    
C51   H36   1.099811 S    
O17   H20   0.980213 S    
O31   H52   0.986192 S    
C41   O26   1.392855 S    
C15   C53   1.518165 S    
C11   C50   1.518776 S    
C4    C27   1.459528 S    
C3    C37   1.522518 S    
