data_mof_unit_23591.cif
_audit_creation_date              2012-12-10T17:26:22-0500
_audit_creation_method            fapswitch 2.2
_symmetry_space_group_name_H-M    P1
_symmetry_Int_Tables_number       1
_space_group_crystal_system       triclinic
_cell_length_a                    10.093415
_cell_length_b                    10.456325
_cell_length_c                    27.243295
_cell_angle_alpha                 90.158717
_cell_angle_beta                  82.415881
_cell_angle_gamma                 94.384756
_cell_volume                      2841.68596825

loop_
_atom_site_label
_atom_site_type_symbol
_atom_type_description
_atom_site_fract_x
_atom_site_fract_y
_atom_site_fract_z
_atom_type_partial_charge
C1    C     C_R   0.554987 0.734476 0.499920 0.967073
C2    C     C_R   0.549560 0.530287 0.117051 -0.129508
C3    C     C_R   0.498456 0.465327 0.645850 -0.175873
C4    C     C_R   0.492405 0.491825 0.352170 -0.182849
C5    C     C_R   0.603536 0.469062 0.015848 0.003406
C6    C     C_R   0.443398 0.272338 0.976678 0.033814
C7    C     C_R   0.441970 0.280348 0.028765 0.002286
C8    C     C_R   0.634440 0.433962 0.965856 -0.028196
C9    C     C_R   0.511687 0.388480 0.047745 -0.002269
C10   C     C_R   0.542539 0.347271 0.945473 0.006679
C11   C     C_R   0.655073 0.585988 0.033994 -0.288759
C12   C     C_R   0.446123 0.265395 0.506904 0.967786
C13   C     C_R   0.343712 0.199176 0.954942 -0.285672
C14   C     C_R   0.625057 0.619614 0.083658 0.487824
C15   C     C_R   0.342217 0.197912 0.903666 0.498175
C16   C     C_R   0.500892 0.497047 0.594059 0.929145
C17   C     C_R   0.498165 0.498587 0.405604 0.928908
C18   C     C_R   0.750514 0.484490 0.934892 0.446752
C19   C     C_R   0.373570 0.185537 0.062059 0.438379
C20   C     C_2   0.584888 0.868930 0.509782 -0.455235
C21   C     C_2   0.422198 0.131654 0.522611 -0.453305
C22   C     C_2   0.502831 0.931242 0.542979 0.369666
C23   C     C_R   0.545395 0.341970 0.893652 -0.130919
C24   C     C_2   0.519947 0.071391 0.540516 0.359221
C25   C     C_2   0.927431 0.511417 0.504215 -0.146708
C26   C     C_2   0.072478 0.488853 0.495738 -0.139074
C27   C     C_R   0.644443 0.415331 0.812047 0.547517
C28   C     C_R   0.401372 0.350552 0.182388 0.570703
C29   C     C_R   0.432176 0.294063 0.822171 0.602518
C30   C     C_R   0.531846 0.550625 0.168445 0.583410
C31   C     C_R   0.503234 0.299951 0.707981 0.531839
C32   C     C_R   0.380581 0.543928 0.281444 0.528183
C33   C     C_R   0.491553 0.335596 0.659281 -0.426948
C34   C     C_R   0.491279 0.415334 0.098746 -0.130673
C35   C     C_R   0.391970 0.552819 0.332155 -0.420230
C36   C     C_R   0.513281 0.561303 0.681027 0.444031
C37   C     C_R   0.583589 0.422075 0.321039 0.455712
C38   C     C_R   0.517671 0.526178 0.729993 -0.272971
C39   C     C_R   0.568351 0.409791 0.271074 -0.319978
C40   C     C_R   0.516806 0.396425 0.743346 0.197672
C41   C     C_R   0.468926 0.470935 0.251367 0.227435
C42   C     C_3   0.661849 0.726327 0.649793 0.060751
C43   C     C_3   0.722529 0.814670 0.687175 -0.314915
C44   C     C_3   0.873845 0.837996 0.673488 -0.969277
C45   C     C_R   0.650333 0.409645 0.862861 -0.067543
C46   C     C_3   0.806512 0.411151 0.326129 0.103208
C47   C     C_3   0.909292 0.319138 0.337504 -0.336313
C48   C     C_3   0.051971 0.381813 0.327714 -0.907996
C49   C     C_3   0.627213 0.840750 0.079328 0.124656
C50   C     C_3   0.742672 0.931830 0.054695 -0.374657
C51   C     C_3   0.691997 0.050519 0.033126 -0.899725
C52   C     C_3   0.254892 0.996095 0.886079 0.067539
C53   C     C_3   0.340163 0.954540 0.838764 -0.285928
C54   C     C_3   0.351085 0.809780 0.837959 -0.977556
C55   C     C_3   0.954285 0.454878 0.959895 0.083169
C56   C     C_R   0.414461 0.326156 0.131489 -0.054537
C57   C     C_3   0.936450 0.405067 0.013425 -0.345249
C58   C     C_3   0.045229 0.317053 0.021808 -0.960068
C59   C     C_3   0.236811 0.991848 0.071398 0.052252
C60   C     C_3   0.184307 0.885465 0.038716 -0.362523
C61   C     C_3   0.082217 0.790780 0.068531 -0.894977
C62   C     C_3   0.702647 0.098201 0.584527 0.052113
C63   C     C_3   0.803846 0.207025 0.596075 -0.286087
C64   C     C_3   0.870597 0.177459 0.641345 -0.930957
C65   C     C_3   0.364184 0.916473 0.617581 0.066263
C66   C     C_3   0.252446 0.831263 0.647331 -0.269159
C67   C     C_R   0.756418 0.473446 0.883627 -0.233629
C68   C     C_3   0.229501 0.873017 0.701329 -0.923883
C69   C     C_R   0.360308 0.210802 0.113329 -0.285131
C70   C     C_R   0.439828 0.275158 0.872831 -0.144921
H1    H     H_    0.325324 0.081539 0.519406 0.144661
H2    H     H_    0.311821 0.138979 0.139529 0.184286
H3    H     H_    0.322792 0.607517 0.355943 0.179499
H4    H     H_    0.480988 0.262689 0.631427 0.155149
H5    H     H_    0.714076 0.655954 0.009550 0.206486
H6    H     H_    0.259437 0.149271 0.977241 0.196370
H7    H     H_    0.664505 0.780206 0.614544 0.139128
H8    H     H_    0.725706 0.644230 0.640902 0.142958
H9    H     H_    0.675870 0.907743 0.688207 0.216411
H10   H     H_    0.701775 0.770677 0.724738 0.244344
H11   H     H_    0.922736 0.747595 0.677397 0.276989
H12   H     H_    0.673832 0.918310 0.489281 0.146870
H13   H     H_    0.913957 0.910731 0.698580 0.283462
H14   H     H_    0.898361 0.872817 0.634651 0.248880
H15   H     H_    0.820017 0.501142 0.347459 0.158235
H16   H     H_    0.825997 0.434431 0.285773 0.134423
H17   H     H_    0.887787 0.287863 0.376828 0.223535
H18   H     H_    0.901131 0.232606 0.313972 0.236831
H19   H     H_    0.076484 0.410898 0.288183 0.300814
H20   H     H_    0.123944 0.312536 0.336277 0.278623
H21   H     H_    0.063162 0.467415 0.351499 0.248920
H22   H     H_    0.230475 0.651113 0.286726 0.330031
H23   H     H_    0.108154 0.418970 0.468570 0.167956
H24   H     H_    0.487549 0.117814 0.693238 0.309273
H25   H     H_    0.569879 0.892200 0.109886 0.187382
H26   H     H_    0.556420 0.814778 0.051966 0.115156
H27   H     H_    0.809347 0.963048 0.082528 0.234579
H28   H     H_    0.802174 0.880794 0.024583 0.226036
H29   H     H_    0.621847 0.022688 0.006078 0.286587
H30   H     H_    0.778079 0.111184 0.013763 0.257318
H31   H     H_    0.640466 0.107558 0.063259 0.272567
H32   H     H_    0.153839 0.944568 0.888282 0.172199
H33   H     H_    0.298269 0.965818 0.919435 0.121997
H34   H     H_    0.891773 0.581868 0.531149 0.158399
H35   H     H_    0.294102 0.982777 0.805946 0.271048
H36   H     H_    0.442549 0.003417 0.836277 0.223869
H37   H     H_    0.398739 0.779276 0.870064 0.266771
H38   H     H_    0.413649 0.783390 0.803335 0.271064
H39   H     H_    0.250189 0.758441 0.839169 0.273975
H40   H     H_    0.055549 0.505735 0.951694 0.171787
H41   H     H_    0.952036 0.372775 0.933581 0.148096
H42   H     H_    0.940206 0.487423 0.039202 0.240623
H43   H     H_    0.837463 0.350439 0.021995 0.223969
H44   H     H_    0.039881 0.231991 0.997448 0.266071
H45   H     H_    0.120260 0.616852 0.545493 0.172092
H46   H     H_    0.030151 0.283556 0.060931 0.268117
H47   H     H_    0.145946 0.369127 0.013992 0.269850
H48   H     H_    0.153043 0.052895 0.083969 0.141271
H49   H     H_    0.272207 0.946752 0.103746 0.166072
H50   H     H_    0.136624 0.928953 0.008916 0.210694
H51   H     H_    0.269292 0.832390 0.021095 0.231338
H52   H     H_    0.131177 0.738252 0.095698 0.270071
H53   H     H_    0.039761 0.720258 0.043142 0.268243
H54   H     H_    0.999317 0.841765 0.088641 0.275208
H55   H     H_    0.755124 0.009335 0.576375 0.141125
H56   H     H_    0.879688 0.381630 0.455258 0.170433
H57   H     H_    0.626068 0.081898 0.617610 0.098906
H58   H     H_    0.882312 0.224320 0.563609 0.222898
H59   H     H_    0.751647 0.296358 0.603002 0.243338
H60   H     H_    0.794092 0.150856 0.673576 0.288941
H61   H     H_    0.932894 0.263607 0.651065 0.275171
H62   H     H_    0.937004 0.098348 0.633042 0.262077
H63   H     H_    0.331258 0.015551 0.616789 0.121214
H64   H     H_    0.455554 0.916569 0.636421 0.151771
H65   H     H_    0.158403 0.836468 0.630609 0.204541
H66   H     H_    0.279054 0.730012 0.645833 0.263058
H67   H     H_    0.527098 0.600010 0.757522 0.166035
H68   H     H_    0.322164 0.866271 0.718810 0.287293
H69   H     H_    0.148014 0.809385 0.722003 0.269780
H70   H     H_    0.200138 0.973321 0.703793 0.271214
H71   H     H_    0.634099 0.351878 0.247245 0.166194
H72   H     H_    0.842288 0.519123 0.860374 0.204666
N1    N     N_R   0.532973 0.364496 0.793233 -0.328552
N2    N     N_R   0.461848 0.459818 0.199570 -0.327929
N3    N     N_2   0.842700 0.448890 0.480020 -0.181819
N4    N     N_2   0.157300 0.551110 0.519980 -0.183941
O1    O     O_R   0.431060 0.692470 0.504020 -0.537975
O2    O     O_2   0.331152 0.264846 0.214689 -0.560540
O3    O     O_2   0.587141 0.657883 0.187641 -0.498094
O4    O     O_2   0.322723 0.247826 0.802373 -0.494202
O5    O     O_3   0.526060 0.689457 0.667653 -0.665567
O6    O     O_3   0.676215 0.352377 0.340297 -0.619793
O7    O     O_3   0.284476 0.604216 0.260520 -0.757986
O8    O     O_3   0.504680 0.173066 0.721682 -0.768180
O9    O     O_3   0.680389 0.734741 0.100184 -0.598409
O10   O     O_3   0.238064 0.129309 0.884477 -0.602377
O11   O     O_3   0.859185 0.544738 0.954055 -0.669656
O12   O     O_R   0.568940 0.307530 0.495980 -0.523342
O13   O     O_3   0.345634 0.063125 0.043559 -0.666722
O14   O     O_3   0.645647 0.134945 0.542640 -0.615144
O15   O     O_3   0.388985 0.867378 0.569166 -0.618364
O16   O     O_R   0.651120 0.659650 0.491200 -0.631242
O17   O     O_R   0.348880 0.340350 0.508800 -0.625823
O18   O     O_R   0.389980 0.516390 0.577660 -0.594090
O19   O     O_R   0.610020 0.483610 0.422340 -0.582624
O20   O     O_R   0.610040 0.483570 0.564830 -0.636537
O21   O     O_R   0.389960 0.516430 0.435170 -0.622347
O22   O     O_2   0.747024 0.475186 0.781741 -0.572513
Zn1   Zn    Zn3+2 0.353060 0.521910 0.508560 0.967981
Zn2   Zn    Zn3+2 0.646940 0.478090 0.491440 0.966656

loop_
_geom_bond_atom_site_label_1
_geom_bond_atom_site_label_2
_ccdc_geom_bond_type
C46   O6    S    
C52   H33   S    
C34   C56   A    
C23   C45   A    
C20   H12   S    
C14   O9    S    
C68   H68   S    
C44   H13   S    
C28   C56   A    
C39   C41   A    
C53   C54   S    
C16   O18   A    
H45   N4    S    
C52   H32   S    
C54   H37   S    
C21   H1    S    
C61   H54   S    
C5    C11   A    
C62   H57   S    
C11   C14   A    
C57   H42   S    
C66   C68   S    
C3    C33   A    
C43   H9    S    
C29   N1    A    
O19   Zn2   S    
C30   N2    A    
C31   C40   A    
C26   N4    D    
C1    O1    A    
C29   O4    S    
C46   C47   S    
C59   O13   S    
C53   H36   S    
C64   H62   S    
C16   O20   A    
C1    C20   S    
C48   H21   S    
C45   C67   A    
C27   N1    A    
C32   C41   A    
C13   H6    S    
H22   O7    S    
C28   N2    A    
C32   O7    S    
C63   H58   S    
C27   O22   S    
C46   H15   S    
C2    C34   A    
C26   H23   S    
C4    C35   A    
C59   C60   S    
C48   H20   S    
C58   H46   S    
C23   C70   A    
O18   Zn1   S    
C2    C14   A    
H56   N3    S    
C51   H29   S    
C50   H28   S    
C28   O2    S    
C32   C35   A    
C39   H71   S    
C2    C30   A    
C41   N2    S    
O21   Zn1   S    
C44   H11   S    
C17   O21   A    
C22   O15   S    
O12   Zn2   S    
C30   O3    S    
C57   H43   S    
C25   C26   S    
C12   C21   S    
C58   H47   S    
C8    C18   A    
C63   C64   S    
C54   H39   S    
C61   H52   S    
C47   H17   S    
C69   H2    S    
C43   C44   S    
C5    C9    A    
C62   C63   S    
C62   H55   S    
C47   C48   S    
O16   Zn2   S    
C64   H61   S    
H24   O8    S    
C31   C33   A    
C50   C51   S    
C6    C13   A    
C36   O5    S    
C49   H25   S    
C42   O5    S    
C15   O10   S    
C66   H66   S    
C4    C17   S    
C20   C22   D    
C1    O16   A    
C56   C69   A    
C59   H48   S    
C7    C19   A    
C48   H19   S    
C55   C57   S    
C55   H40   S    
C9    C34   A    
C49   C50   S    
C22   C24   S    
C19   C69   A    
C52   O10   S    
C42   C43   S    
C21   C24   D    
C37   O6    S    
C31   O8    S    
C52   C53   S    
C42   H8    S    
C29   C70   A    
C51   H30   S    
C7    C9    A    
C15   C70   A    
N3    Zn2   S    
C35   H3    S    
C50   H27   S    
C59   H49   S    
C55   H41   S    
C40   N1    S    
C49   O9    S    
C65   H64   S    
C64   H60   S    
C44   H14   S    
C6    C10   A    
C5    C8    A    
C25   N3    D    
C24   O14   S    
C25   H34   S    
O20   Zn2   S    
C6    C7    A    
C10   C23   A    
C51   H31   S    
C54   H38   S    
C61   H53   S    
C19   O13   S    
C47   H18   S    
C13   C15   A    
C18   C67   A    
C37   C39   A    
C18   O11   S    
C11   H5    S    
C12   O17   A    
C38   C40   A    
C27   C45   A    
C57   C58   S    
C3    C36   A    
C36   C38   A    
C43   H10   S    
C38   H67   S    
C60   H50   S    
C62   O14   S    
C63   H59   S    
C49   H26   S    
C60   H51   S    
O17   Zn1   S    
C68   H70   S    
C66   H65   S    
C53   H35   S    
C33   H4    S    
C55   O11   S    
C4    C37   A    
C42   H7    S    
C8    C10   A    
C65   C66   S    
N4    Zn1   S    
C65   O15   S    
C58   H44   S    
C60   C61   S    
C68   H69   S    
C17   O19   A    
C12   O12   A    
C67   H72   S    
C65   H63   S    
C3    C16   S    
O1    Zn1   S    
C46   H16   S    
