data_mof_unit_24468.cif
_audit_creation_date              2012-12-10T20:42:41-0500
_audit_creation_method            fapswitch 2.2
_symmetry_space_group_name_H-M    P1
_symmetry_Int_Tables_number       1
_space_group_crystal_system       triclinic
_cell_length_a                    8.927697
_cell_length_b                    10.66489
_cell_length_c                    9.883365
_cell_angle_alpha                 89.887182
_cell_angle_beta                  90.04804
_cell_angle_gamma                 90.376538
_cell_volume                      941.001441556

loop_
_atom_site_label
_atom_site_type_symbol
_atom_type_description
_atom_site_fract_x
_atom_site_fract_y
_atom_site_fract_z
_atom_type_partial_charge
C1    C     C_R   0.502184 0.260303 0.499957 0.886744
C2    C     C_R   0.430087 0.935412 0.394695 -0.223010
C3    C     C_R   0.508295 0.871506 0.495956 -0.080730
C4    C     C_R   0.605267 0.935816 0.581770 0.041950
C5    C     C_3   0.628517 0.927585 0.730993 -0.522090
C6    C     C_3   0.633166 0.070188 0.730950 0.331074
C7    C     C_R   0.449608 0.397847 0.071198 0.170816
C8    C     C_R   0.563612 0.595658 0.071765 -0.125619
C9    C     C_R   0.563899 0.595512 0.927874 -0.149622
C10   C     C_R   0.449425 0.398218 0.929332 0.171868
C11   C     C_3   0.298981 0.338388 0.921264 0.266111
C12   C     C_R   0.218717 0.499561 0.499967 0.933281
C13   C     C_3   0.297153 0.339511 0.075727 -0.577088
C14   C     C_R   0.500726 0.739685 0.499641 0.886205
C15   C     C_R   0.781285 0.499789 0.500076 0.934496
C16   C     C_1   0.065365 0.499321 0.500026 -0.215643
C17   C     C_1   0.934635 0.499406 0.500147 -0.204027
C18   C     C_R   0.607617 0.063989 0.581407 0.075280
C19   C     C_R   0.510024 0.128488 0.496444 -0.138614
C20   C     C_R   0.430538 0.064708 0.395243 -0.201695
H1    H     H_    0.362137 0.114235 0.322316 0.158285
H2    H     H_    0.211620 0.403568 0.118386 0.187102
H3    H     H_    0.298769 0.244434 0.121858 0.212809
H4    H     H_    0.361897 0.885925 0.321082 0.162841
H5    H     H_    0.529355 0.888472 0.784926 0.174552
H6    H     H_    0.737107 0.883151 0.757225 0.219715
H7    H     H_    0.538325 0.111388 0.787861 0.161600
H8    H     H_    0.612599 0.674003 0.125656 0.155069
H9    H     H_    0.613555 0.673464 0.873747 0.155655
H10   H     H_    0.214797 0.400139 0.871425 0.086973
N1    N     N_R   0.499010 0.499140 0.142800 -0.103397
N2    N     N_R   0.499010 0.499180 0.857150 -0.143083
O1    O     O_R   0.500020 0.316790 0.614690 -0.623605
O2    O     O_R   0.500000 0.316760 0.385350 -0.613983
O3    O     O_R   0.285350 0.500020 0.614650 -0.622093
O4    O     O_R   0.285340 0.499980 0.385310 -0.613001
O5    O     O_R   0.500000 0.683240 0.614650 -0.621325
O6    O     O_R   0.499980 0.683210 0.385310 -0.628625
O7    O     O_R   0.714660 0.500020 0.614690 -0.632737
O8    O     O_R   0.714650 0.499980 0.385350 -0.611275
Zn1   Zn    Zn3+2 0.500010 0.500020 0.653130 0.934211
Zn2   Zn    Zn3+2 0.499990 0.499980 0.346870 0.946433
O9    O     O_3   0.313113 0.216329 0.868167 -0.622077
C21   C     C_3   0.171722 0.169769 0.829402 0.127968
H11   H     H_    0.124281 0.227706 0.746070 0.150186
H12   H     H_    0.094207 0.168028 0.917478 0.156268
C22   C     C_3   0.188751 0.036404 0.777659 -0.816877
H13   H     H_    0.237384 0.976039 0.857969 0.243174
H14   H     H_    0.077508 0.998042 0.748209 0.244927
H15   H     H_    0.263549 0.035441 0.687952 0.248495
O10   O     O_3   0.778976 0.115474 0.761036 -0.613278
C23   C     C_3   0.772490 0.226278 0.839038 0.098197
H16   H     H_    0.683366 0.290733 0.804593 0.180019
H17   H     H_    0.878689 0.278943 0.824908 0.140539
C24   C     C_3   0.755215 0.195888 0.989327 -0.882043
H18   H     H_    0.844331 0.130398 0.022224 0.259226
H19   H     H_    0.764460 0.283509 0.049374 0.223948
H20   H     H_    0.644209 0.152200 0.009313 0.259522

loop_
_geom_bond_atom_site_label_1
_geom_bond_atom_site_label_2
_ccdc_geom_bond_type
C13   H2    S    
C7    C10   A    
N2    Zn1   S    
C21   C22   S    
C11   O9    S    
N1    Zn2   S    
C6    O10   S    
C14   O6    A    
O4    Zn2   S    
C6    H7    S    
O2    Zn2   S    
C23   C24   S    
C9    H9    S    
O9    C21   S    
O1    Zn1   S    
C19   C20   A    
O8    Zn2   S    
C2    C3    A    
C1    O1    A    
O7    Zn1   S    
C23   H16   S    
C12   O3    A    
C2    H4    S    
C11   C13   S    
C15   O7    A    
C16   C17   T    
C3    C14   S    
O3    Zn1   S    
C23   H17   S    
C1    O2    A    
O6    Zn2   S    
C22   H15   S    
C24   H19   S    
O5    Zn1   S    
C5    C6    S    
C8    H8    S    
C6    C18   S    
C5    H5    S    
C15   O8    A    
C1    C19   S    
C12   O4    A    
C10   C11   S    
C24   H18   S    
C2    C20   A    
O10   C23   S    
C5    H6    S    
C10   N2    A    
C7    C13   S    
C7    N1    A    
C20   H1    S    
C13   H3    S    
C22   H14   S    
C18   C19   A    
C24   H20   S    
C15   C17   S    
C8    C9    A    
C14   O5    A    
C12   C16   S    
C9    N2    A    
C8    N1    A    
C4    C18   A    
C21   H11   S    
C3    C4    A    
C11   H10   S    
C21   H12   S    
C4    C5    S    
C22   H13   S    
