data_mof_unit_53958.cif
_audit_creation_date              2012-12-11T15:06:39-0500
_audit_creation_method            fapswitch 2.2
_symmetry_space_group_name_H-M    P1
_symmetry_Int_Tables_number       1
_space_group_crystal_system       triclinic
_cell_length_a                    7.241174
_cell_length_b                    14.997232
_cell_length_c                    22.378295
_cell_angle_alpha                 89.999903
_cell_angle_beta                  89.999422
_cell_angle_gamma                 89.99556
_cell_volume                      2430.22837044

loop_
_atom_site_label
_atom_site_type_symbol
_atom_type_description
_atom_site_fract_x
_atom_site_fract_y
_atom_site_fract_z
_atom_type_partial_charge
O1    O     O_R   0.390810 0.844810 0.447340 -0.525191
O2    O     O_R   0.109190 0.155190 0.947340 -0.525136
O3    O     O_R   0.890810 0.655190 0.552660 -0.525180
O4    O     O_R   0.609190 0.344810 0.052660 -0.525165
O5    O     O_R   0.720550 0.655820 0.440420 -0.538485
O6    O     O_R   0.779450 0.344180 0.940420 -0.538470
O7    O     O_R   0.220550 0.844180 0.559580 -0.538490
O8    O     O_R   0.279450 0.155820 0.059580 -0.538453
C1    C     C_R   0.552953 0.626192 0.426681 0.738575
C2    C     C_R   0.947049 0.373810 0.926682 0.738589
C3    C     C_R   0.052940 0.873795 0.573327 0.738581
C4    C     C_R   0.447058 0.126203 0.073325 0.738672
O9    O     O_R   0.720530 0.844130 0.440420 -0.532168
O10   O     O_R   0.779470 0.155870 0.940420 -0.532189
O11   O     O_R   0.220530 0.655870 0.559580 -0.532205
O12   O     O_R   0.279470 0.344130 0.059580 -0.532219
O13   O     O_R   0.890830 0.844810 0.552660 -0.535393
O14   O     O_R   0.609170 0.155190 0.052660 -0.535427
O15   O     O_R   0.390830 0.655190 0.447340 -0.535404
O16   O     O_R   0.109170 0.344810 0.947340 -0.535415
C5    C     C_R   0.552618 0.873208 0.426220 0.673626
C6    C     C_R   0.947384 0.126792 0.926221 0.673633
C7    C     C_R   0.052627 0.626801 0.573786 0.673615
C8    C     C_R   0.447371 0.373200 0.073786 0.673606
O17   O     O_3   0.557310 0.749980 0.536820 -0.376458
O18   O     O_3   0.942690 0.250020 0.036820 -0.376466
O19   O     O_3   0.057310 0.750020 0.463180 -0.376439
O20   O     O_3   0.442690 0.249980 0.963180 -0.376426
V1    V     V_3+5 0.832160 0.749980 0.493170 1.491610
V2    V     V_3+5 0.667840 0.250020 0.993170 1.491597
V3    V     V_3+5 0.332160 0.750020 0.506830 1.491554
V4    V     V_3+5 0.167840 0.249980 0.006830 1.491592
C9    C     C_R   0.839928 0.598054 0.857964 -0.201658
C10   C     C_R   0.660134 0.401961 0.357956 -0.201658
C11   C     C_R   0.340227 0.901930 0.142028 -0.201589
C12   C     C_R   0.159774 0.098066 0.642027 -0.201581
H1    H     H_    0.785807 0.711004 0.769331 0.117570
H2    H     H_    0.714322 0.289025 0.269317 0.117571
H3    H     H_    0.286263 0.788949 0.230640 0.117491
H4    H     H_    0.213650 0.211070 0.730629 0.117490
H5    H     H_    0.778993 0.661420 0.870471 0.148980
H6    H     H_    0.721087 0.338599 0.370461 0.148974
H7    H     H_    0.279477 0.838531 0.129512 0.149032
H8    H     H_    0.220522 0.161462 0.629504 0.148969
C13   C     C_R   0.947737 0.450254 0.884972 -0.106194
C14   C     C_R   0.552272 0.549751 0.384969 -0.106183
C15   C     C_R   0.447767 0.049772 0.115041 -0.106202
C16   C     C_R   0.052225 0.950224 0.615044 -0.106165
C17   C     C_R   0.128551 0.471338 0.597876 -0.125000
C18   C     C_R   0.371383 0.528655 0.097879 -0.124991
C19   C     C_R   0.628153 0.028737 0.402169 -0.124944
C20   C     C_R   0.871958 0.971248 0.902181 -0.124912
C21   C     C_R   0.149850 0.400803 0.637480 -0.118211
C22   C     C_R   0.350066 0.599188 0.137484 -0.118217
C23   C     C_R   0.649056 0.099344 0.362598 -0.118224
C24   C     C_R   0.851115 0.900631 0.862614 -0.118249
C25   C     C_R   0.098476 0.409946 0.697126 -0.158346
C26   C     C_R   0.401479 0.590053 0.197127 -0.158359
C27   C     C_R   0.597677 0.090218 0.302951 -0.158367
C28   C     C_R   0.902456 0.909765 0.802964 -0.158356
C29   C     C_R   0.020687 0.490010 0.718813 0.084218
C30   C     C_R   0.479321 0.509998 0.218809 0.084220
C31   C     C_R   0.520395 0.010069 0.281223 0.084211
C32   C     C_R   0.979642 0.989929 0.781227 0.084212
C33   C     C_R   0.992139 0.561252 0.677170 0.068127
C34   C     C_R   0.507888 0.438760 0.177165 0.068128
C35   C     C_R   0.492119 0.938773 0.322842 0.068132
C36   C     C_R   0.007871 0.061235 0.822841 0.068111
C37   C     C_R   0.972115 0.501970 0.780495 0.085063
C38   C     C_R   0.527915 0.498041 0.280490 0.085059
C39   C     C_R   0.472000 0.998085 0.219528 0.085052
C40   C     C_R   0.028009 0.001914 0.719530 0.085042
C41   C     C_R   0.889296 0.583398 0.798193 0.120157
C42   C     C_R   0.610768 0.416619 0.298185 0.120160
C43   C     C_R   0.389448 0.916611 0.201808 0.120121
C44   C     C_R   0.110538 0.083392 0.701806 0.120130
C45   C     C_R   0.855265 0.650328 0.756169 -0.189495
C46   C     C_R   0.644830 0.349695 0.256159 -0.189492
C47   C     C_R   0.355552 0.849652 0.243818 -0.189346
C48   C     C_R   0.144391 0.150362 0.743812 -0.189322
C49   C     C_R   0.908964 0.640450 0.696977 -0.194223
C50   C     C_R   0.591112 0.359571 0.196968 -0.194230
C51   C     C_R   0.409207 0.859530 0.303013 -0.194161
C52   C     C_R   0.090727 0.140488 0.803007 -0.194151
C53   C     C_R   0.000640 0.435997 0.825219 -0.236086
C54   C     C_R   0.499373 0.564011 0.325215 -0.236088
C55   C     C_R   0.500507 0.064061 0.174808 -0.236140
C56   C     C_R   0.999497 0.935935 0.674812 -0.236124
C57   C     C_R   0.868647 0.532847 0.901818 -0.022648
C58   C     C_R   0.631380 0.467161 0.401812 -0.022636
C59   C     C_R   0.368871 0.967148 0.098179 -0.022737
C60   C     C_R   0.131125 0.032844 0.598182 -0.022673
C61   C     C_R   0.050233 0.551830 0.616736 -0.071483
C62   C     C_R   0.449758 0.448173 0.116734 -0.071481
C63   C     C_R   0.550156 0.948194 0.383280 -0.071473
C64   C     C_R   0.949862 0.051807 0.883282 -0.071382
H9    H     H_    0.175160 0.463402 0.552150 0.140885
H10   H     H_    0.324741 0.536583 0.052157 0.140875
H11   H     H_    0.674713 0.036675 0.447899 0.140862
H12   H     H_    0.825435 0.963300 0.947914 0.140734
H13   H     H_    0.121495 0.353233 0.725270 0.105085
H14   H     H_    0.378444 0.646765 0.225272 0.105089
H15   H     H_    0.620188 0.147027 0.274846 0.105167
H16   H     H_    0.880012 0.852947 0.774863 0.105167
H17   H     H_    0.210000 0.338836 0.622067 0.133233
H18   H     H_    0.289869 0.661146 0.122075 0.133264
H19   H     H_    0.708847 0.161369 0.378044 0.133207
H20   H     H_    0.791409 0.838590 0.878066 0.133189
H21   H     H_    0.882800 0.695304 0.666725 0.114775
H22   H     H_    0.617295 0.304721 0.166715 0.114798
H23   H     H_    0.383196 0.804643 0.333250 0.114676
H24   H     H_    0.116700 0.195383 0.833240 0.114643
C65   C     C_2   0.814218 0.553526 0.964602 0.737980
O21   O     O_2   0.882384 0.512686 0.006456 -0.562132
O22   O     O_R   0.686990 0.621661 0.975991 -0.667768
H25   H     H_    0.662060 0.629978 0.020230 0.300846
C66   C     C_2   0.685783 0.446478 0.464596 0.738002
O23   O     O_2   0.617522 0.487283 0.506449 -0.562133
O24   O     O_R   0.813086 0.378377 0.475986 -0.667772
H26   H     H_    0.837979 0.370050 0.520226 0.300833
C67   C     C_2   0.314585 0.946439 0.035386 0.737960
O25   O     O_2   0.382552 0.987377 0.993542 -0.562082
O26   O     O_R   0.187728 0.878162 0.023974 -0.667791
H27   H     H_    0.162856 0.869840 0.979732 0.300861
C68   C     C_2   0.185390 0.053544 0.535388 0.738002
O27   O     O_2   0.117141 0.012713 0.493546 -0.562113
O28   O     O_R   0.312546 0.121692 0.523976 -0.667778
H28   H     H_    0.337347 0.130031 0.479731 0.300845
H29   H     H_    0.058012 0.371528 0.814893 0.100169
H30   H     H_    0.441991 0.628477 0.314890 0.100173
H31   H     H_    0.557805 0.128539 0.185143 0.100164
H32   H     H_    0.942190 0.871459 0.685148 0.100168

loop_
_geom_bond_atom_site_label_1
_geom_bond_atom_site_label_2
_ccdc_geom_bond_type
O17   V3    S    
C39   C43   A    
C26   C30   A    
C23   C27   A    
O19   V1    S    
O13   V1    S    
O3    C7    A    
C10   H6    S    
C21   H17   S    
C48   C52   A    
O15   V3    S    
C60   C68   S    
C14   C54   A    
O26   H27   S    
C11   C59   A    
O1    C5    A    
C11   C43   A    
O5    C1    A    
C36   C64   A    
C50   H22   S    
O9    V1    S    
C9    C57   A    
C66   O24   S    
O16   V4    S    
O4    C8    A    
C25   H13   S    
O22   H25   S    
O1    V3    S    
C30   C38   A    
O2    V4    S    
C55   H31   S    
O3    V1    S    
C24   H20   S    
C12   C44   A    
C53   H29   S    
C1    O15   A    
C2    O16   A    
C19   C63   A    
C38   C42   A    
C16   C60   A    
C16   C56   A    
C37   C41   A    
C26   H14   S    
C11   H7    S    
O5    V1    S    
C40   C44   A    
C34   C62   A    
C12   C60   A    
O11   C7    A    
C1    C14   S    
O12   C8    A    
C35   C63   A    
C3    C16   S    
C15   C59   A    
O10   V2    S    
C4    C15   S    
C40   C56   A    
C31   C35   A    
C19   H11   S    
C57   C65   S    
C18   H10   S    
O7    V3    S    
C22   H18   S    
O8    V4    S    
C58   C66   S    
C30   C34   A    
O18   V4    S    
C54   H30   S    
H2    C46   S    
H1    C45   S    
C20   H12   S    
C7    C61   S    
C23   H19   S    
C36   C52   A    
O7    C3    A    
C10   C58   A    
O2    C6    A    
C8    C62   S    
C34   C50   A    
C46   C50   A    
C33   C49   A    
C45   C49   A    
O8    C4    A    
C2    C13   S    
H4    C48   S    
O9    C5    A    
C52   H24   S    
C35   C51   A    
C25   C29   A    
C67   O25   D    
C10   C42   A    
C39   C55   A    
C9    C41   A    
O6    V2    S    
C31   C39   A    
C59   C67   S    
C68   O27   D    
C51   H23   S    
C12   H8    S    
C56   H32   S    
O28   H28   S    
C38   C54   A    
C32   C36   A    
C37   C53   A    
C65   O21   D    
C22   C26   A    
C29   C37   A    
C3    O13   A    
C21   C25   A    
C13   C57   A    
C6    C64   S    
C18   C62   A    
C44   C48   A    
C49   H21   S    
O6    C2    A    
O24   H26   S    
O11   V3    S    
C14   C58   A    
O12   V4    S    
C5    C63   S    
C27   C31   A    
C13   C53   A    
C28   C32   A    
C9    H5    S    
O10   C6    A    
O20   V2    S    
C27   H15   S    
C18   C22   A    
C66   O23   D    
C47   C51   A    
C17   C21   A    
C33   C61   A    
C20   C64   A    
C19   C23   A    
C32   C40   A    
C67   O26   S    
O14   V2    S    
C17   H9    S    
C29   C33   A    
C24   C28   A    
C42   C46   A    
C4    O14   A    
C68   O28   S    
C41   C45   A    
C17   C61   A    
C28   H16   S    
C43   C47   A    
O4    V2    S    
C20   C24   A    
H3    C47   S    
C65   O22   S    
C15   C55   A    
