data_mof_unit_5913.cif
_audit_creation_date              2012-10-26T19:09:31-0400
_audit_creation_method            fapswitch 2.2
_symmetry_space_group_name_H-M    P1
_symmetry_Int_Tables_number       1
_space_group_crystal_system       triclinic
_cell_length_a                    10.847224
_cell_length_b                    9.606213
_cell_length_c                    19.298317
_cell_angle_alpha                 89.998329
_cell_angle_beta                  92.209586
_cell_angle_gamma                 90.001754
_cell_volume                      2009.40384764

loop_
_atom_site_label
_atom_site_type_symbol
_atom_type_description
_atom_site_fract_x
_atom_site_fract_y
_atom_site_fract_z
_atom_type_partial_charge
C1    C     C_R   0.262374 0.500436 0.501061 0.530782
C2    C     C_R   0.064011 0.629035 0.500501 -0.132717
C3    C     C_R   0.871597 0.502305 0.497995 0.016434
C4    C     C_R   0.128403 0.502297 0.502026 0.016451
C5    C     C_R   0.429805 0.075385 0.451787 0.312151
C6    C     C_R   0.560426 0.925925 0.552144 0.304671
C7    C     C_R   0.570198 0.075383 0.548211 0.312141
C8    C     C_R   0.439580 0.925928 0.447853 0.304673
C9    C     C_R   0.580885 0.587555 0.257068 -0.153909
C10   C     C_R   0.567941 0.399804 0.745095 -0.145017
C11   C     C_R   0.419139 0.587546 0.742933 -0.153903
C12   C     C_R   0.737626 0.500439 0.498946 0.530773
C13   C     C_R   0.432098 0.399792 0.254904 -0.145015
C14   C     C_R   0.581090 0.587056 0.184704 -0.025530
C15   C     C_R   0.568559 0.396994 0.817373 -0.026504
C16   C     C_R   0.418948 0.587049 0.815298 -0.025529
C17   C     C_R   0.431497 0.396974 0.182627 -0.026503
C18   C     C_R   0.505250 0.492079 0.146589 0.012570
C19   C     C_R   0.494802 0.492086 0.853412 0.012571
C20   C     C_R   0.504515 0.496542 0.292149 -0.016823
C21   C     C_R   0.495505 0.496538 0.707851 -0.016819
C22   C     C_1   0.656635 0.688555 0.150962 0.219348
C23   C     C_R   0.497417 0.492331 0.929843 0.339403
C24   C     C_1   0.643085 0.292682 0.853035 0.221211
C25   C     C_1   0.343401 0.688536 0.849041 0.219345
C26   C     C_1   0.356993 0.292640 0.146966 0.221212
C27   C     C_3   0.234184 0.111857 0.403355 -0.007550
C28   C     C_3   0.158089 0.217059 0.361027 -0.375711
C29   C     C_3   0.564007 0.885894 0.669535 -0.008250
C30   C     C_3   0.644303 0.828076 0.729243 -0.356984
C31   C     C_3   0.765842 0.111900 0.596592 -0.007530
C32   C     C_3   0.841945 0.217078 0.638931 -0.375655
C33   C     C_3   0.436074 0.885915 0.330465 -0.008270
C34   C     C_R   0.502638 0.492328 0.070157 0.339402
C35   C     C_3   0.355807 0.828120 0.270738 -0.356986
C36   C     C_R   0.501651 0.499545 0.367785 0.538974
C37   C     C_R   0.498354 0.499543 0.632214 0.538961
C38   C     C_R   0.063525 0.376911 0.502868 -0.151193
C39   C     C_R   0.936001 0.629037 0.499630 -0.132731
C40   C     C_R   0.936461 0.376920 0.497054 -0.151169
Cu1   Cu    Cu3+1 0.500000 0.640660 0.500000 1.025041
Cu2   Cu    Cu3+1 0.500000 0.359340 0.500000 1.035334
H1    H     H_    0.110601 0.278595 0.507207 0.123373
H2    H     H_    0.217351 0.009695 0.378335 0.172390
H3    H     H_    0.177568 0.206291 0.305202 0.147157
H4    H     H_    0.058251 0.198191 0.367732 0.105314
H5    H     H_    0.181310 0.324748 0.377624 0.177676
H6    H     H_    0.470522 0.839603 0.670569 0.139633
H7    H     H_    0.553769 0.999142 0.678995 0.158775
H8    H     H_    0.596386 0.840048 0.778717 0.128209
H9    H     H_    0.664212 0.716273 0.720697 0.176007
H10   H     H_    0.733075 0.885616 0.733238 0.150801
H11   H     H_    0.799068 0.106274 0.542969 0.109389
H12   H     H_    0.887900 0.727846 0.499865 0.133118
H13   H     H_    0.782720 0.009704 0.621574 0.172334
H14   H     H_    0.941781 0.198234 0.632209 0.105323
H15   H     H_    0.818710 0.324778 0.622356 0.177664
H16   H     H_    0.822487 0.206258 0.694757 0.147163
H17   H     H_    0.529557 0.839619 0.329446 0.139634
H18   H     H_    0.446329 0.999165 0.321012 0.158750
H19   H     H_    0.267048 0.885674 0.266723 0.150791
H20   H     H_    0.403762 0.840091 0.221276 0.128212
H21   H     H_    0.335871 0.716319 0.279277 0.176023
H22   H     H_    0.889374 0.278618 0.492631 0.123343
H23   H     H_    0.112123 0.727845 0.500352 0.133079
H24   H     H_    0.640769 0.658549 0.286153 0.110973
H25   H     H_    0.624943 0.327170 0.717693 0.151355
H26   H     H_    0.359247 0.658532 0.713849 0.110970
H27   H     H_    0.375100 0.327147 0.282305 0.151369
H28   H     H_    0.200915 0.106137 0.456966 0.109367
N1    N     N_R   0.500000 0.852070 0.500000 -0.253857
N2    N     N_1   0.297344 0.208921 0.118520 -0.248831
N3    N     N_R   0.500000 0.147930 0.500000 -0.249757
N4    N     N_R   0.393484 0.492341 0.033383 -0.192096
N5    N     N_R   0.606571 0.492412 0.966616 -0.192099
N6    N     N_R   0.390905 0.492324 0.964424 -0.188086
N7    N     N_R   0.609150 0.492392 0.035576 -0.188086
N8    N     N_1   0.717104 0.770002 0.124002 -0.244466
N9    N     N_1   0.702751 0.208982 0.881483 -0.248825
N10   N     N_1   0.282930 0.769972 0.876003 -0.244467
O1    O     O_R   0.319640 0.618740 0.500000 -0.488024
O2    O     O_3   0.618917 0.853662 0.605978 -0.540449
O3    O     O_3   0.640092 0.150694 0.596919 -0.539580
O4    O     O_3   0.381121 0.853668 0.394009 -0.540439
O5    O     O_R   0.680360 0.381260 0.500000 -0.489539
O6    O     O_R   0.680360 0.618740 0.500000 -0.488022
O7    O     O_R   0.319640 0.381260 0.500000 -0.489528
O8    O     O_R   0.499980 0.618820 0.400140 -0.469237
O9    O     O_R   0.500020 0.381180 0.599860 -0.457561
O10   O     O_R   0.500020 0.618820 0.599860 -0.469260
O11   O     O_R   0.499980 0.381180 0.400140 -0.457555
O12   O     O_3   0.359927 0.150700 0.403073 -0.539578

loop_
_geom_bond_atom_site_label_1
_geom_bond_atom_site_label_2
_ccdc_geom_bond_type
C1    O7    A    
C7    O3    S    
C30   H9    S    
C28   H5    S    
C6    O2    S    
C25   N10   T    
C26   N2    T    
Cu1   Cu2   S    
C14   C18   A    
C19   C23   S    
C32   H16   S    
C23   N6    A    
C2    H23   S    
C7    N3    A    
C29   H7    S    
C10   H25   S    
C36   O8    A    
C15   C19   A    
Cu1   O6    S    
C28   H4    S    
N4    N6    A    
C12   O5    A    
C17   C26   S    
C10   C15   A    
C34   N7    A    
C39   H12   S    
C1    O1    A    
C31   O3    S    
Cu2   O11   S    
C9    H24   S    
C3    C12   S    
C24   N9    T    
C27   H2    S    
C8    N1    A    
Cu1   N1    S    
Cu1   O10   S    
C30   H8    S    
C3    C39   A    
C33   H17   S    
C32   H15   S    
C2    C39   A    
C10   C21   A    
C6    N1    A    
C28   H3    S    
C29   H6    S    
C22   N8    T    
C11   C21   A    
C2    C4    A    
C9    C14   A    
C29   C30   S    
N5    N7    A    
C11   C16   A    
C9    C20   A    
C31   C32   S    
Cu1   O1    S    
C17   C18   A    
C27   O12   S    
C35   H19   S    
Cu2   O5    S    
C31   H11   S    
C18   C34   S    
C27   H28   S    
C34   N4    A    
C37   O10   A    
C36   O11   A    
C15   C24   S    
C4    C38   A    
C3    C40   A    
C33   H18   S    
C11   H26   S    
C16   C25   S    
Cu1   O8    S    
C30   H10   S    
Cu2   N3    S    
C13   C20   A    
C8    O4    S    
C23   N5    A    
C5    C8    A    
C6    C7    A    
C37   O9    A    
C40   H22   S    
C12   O6    A    
C1    C4    S    
Cu2   O9    S    
C29   O2    S    
C38   C40   A    
C14   C22   S    
C13   H27   S    
C16   C19   A    
C33   C35   S    
C35   H20   S    
C5    N3    A    
C33   O4    S    
C5    O12   S    
C13   C17   A    
C20   C36   S    
C38   H1    S    
C21   C37   S    
C27   C28   S    
C35   H21   S    
Cu2   O7    S    
C31   H13   S    
C32   H14   S    
