data_mof_unit_19772.cif
_audit_creation_date              2013-03-05T15:39:54-0500
_audit_creation_method            fapswitch 2.2
_symmetry_space_group_name_H-M    P1
_symmetry_Int_Tables_number       1
_space_group_crystal_system       triclinic
_cell_length_a                    17.416146
_cell_length_b                    17.299353
_cell_length_c                    17.376203
_cell_angle_alpha                 90.047877
_cell_angle_beta                  90.107466
_cell_angle_gamma                 90.309571
_cell_volume                      5235.15495305

loop_
_atom_site_label
_atom_site_type_symbol
_atom_site_description
_atom_site_fract_x
_atom_site_fract_y
_atom_site_fract_z
_atom_type_partial_charge
C1    C     C_R   0.604467 0.306053 0.108330 0.353332
C2    C     C_R   0.690616 0.601578 0.116568 0.319180
C3    C     C_R   0.395404 0.694101 0.108138 0.335226
C4    C     C_R   0.304994 0.392799 0.103437 0.320455
C5    C     C_R   0.604372 0.694389 0.891146 0.267952
C6    C     C_R   0.670564 0.419515 0.857676 0.322655
C7    C     C_R   0.395449 0.305080 0.892194 0.261891
C8    C     C_R   0.330045 0.580226 0.857018 0.326387
C9    C     C_R   0.104359 0.804652 0.606097 0.264878
C10   C     C_R   0.169245 0.079447 0.643443 0.327261
C11   C     C_R   0.895627 0.195228 0.606487 0.264573
C12   C     C_R   0.830747 0.920330 0.643273 0.327681
C13   C     C_R   0.087919 0.177226 0.363151 0.323081
C14   C     C_R   0.191520 0.896934 0.386239 0.275775
C15   C     C_R   0.918815 0.828798 0.357608 0.309288
C16   C     C_R   0.807868 0.104113 0.387799 0.267335
N1    N     N_R   0.574080 0.369570 0.076720 -0.104223
N2    N     N_R   0.630430 0.574080 0.076720 -0.098881
N3    N     N_R   0.425920 0.630430 0.076720 -0.103856
N4    N     N_R   0.369570 0.425920 0.076720 -0.101006
N5    N     N_R   0.574080 0.630430 0.923280 -0.102618
N6    N     N_R   0.630430 0.425920 0.923280 -0.092999
N7    N     N_R   0.425920 0.369570 0.923280 -0.103749
N8    N     N_R   0.369570 0.574080 0.923280 -0.091713
N9    N     N_R   0.074080 0.869570 0.576720 -0.103760
N10   N     N_R   0.130430 0.074080 0.576720 -0.088426
N11   N     N_R   0.925920 0.130430 0.576720 -0.103653
N12   N     N_R   0.869570 0.925920 0.576720 -0.088253
N13   N     N_R   0.074080 0.130430 0.423280 -0.090421
N14   N     N_R   0.130430 0.925920 0.423280 -0.102531
N15   N     N_R   0.925920 0.869570 0.423280 -0.084036
N16   N     N_R   0.869570 0.074080 0.423280 -0.103243
C17   C     C_R   0.599086 0.691369 0.116521 -0.117204
C18   C     C_R   0.306029 0.602154 0.108109 -0.101045
C19   C     C_R   0.395698 0.303476 0.102206 -0.096836
C20   C     C_R   0.694578 0.396880 0.106354 -0.111395
C21   C     C_R   0.576016 0.332650 0.855432 -0.080773
C22   C     C_R   0.306099 0.395717 0.891547 -0.090784
C23   C     C_R   0.423804 0.667933 0.855908 -0.085516
C24   C     C_R   0.693827 0.603895 0.891436 -0.086820
C25   C     C_R   0.075410 0.166110 0.645296 -0.080203
C26   C     C_R   0.805573 0.104539 0.606151 -0.090301
C27   C     C_R   0.924545 0.833556 0.645031 -0.081082
C28   C     C_R   0.194487 0.895304 0.606086 -0.086865
C29   C     C_R   0.099844 0.807559 0.386937 -0.141839
C30   C     C_R   0.832947 0.923565 0.355534 -0.093087
C31   C     C_R   0.900091 0.192747 0.387590 -0.141416
C32   C     C_R   0.174473 0.083038 0.360988 -0.110203
H1    H     H_    0.571429 0.746785 0.117671 0.200350
H2    H     H_    0.250973 0.573838 0.106795 0.194010
H3    H     H_    0.421764 0.247925 0.093427 0.202510
H4    H     H_    0.749944 0.424477 0.103503 0.195091
H5    H     H_    0.536906 0.288108 0.837091 0.154253
H6    H     H_    0.249975 0.420982 0.894070 0.213824
H7    H     H_    0.462179 0.713491 0.838719 0.154620
H8    H     H_    0.750021 0.578868 0.895018 0.210670
H9    H     H_    0.036339 0.210159 0.663784 0.149000
H10   H     H_    0.749251 0.079246 0.601387 0.205714
H11   H     H_    0.963557 0.789298 0.663286 0.148752
H12   H     H_    0.250807 0.920582 0.601526 0.206880
H13   H     H_    0.073461 0.751228 0.386751 0.218730
H14   H     H_    0.788055 0.961704 0.337707 0.153166
H15   H     H_    0.927141 0.248722 0.386951 0.215774
H16   H     H_    0.223957 0.049346 0.346404 0.174389
N17   N     N_R   0.574050 0.630410 0.076720 -0.078667
N18   N     N_R   0.369590 0.574050 0.076720 -0.076055
N19   N     N_R   0.425950 0.369590 0.076720 -0.082990
N20   N     N_R   0.630410 0.425950 0.076720 -0.078959
N21   N     N_R   0.574050 0.369590 0.923280 -0.062747
N22   N     N_R   0.369590 0.425950 0.923280 -0.088587
N23   N     N_R   0.425950 0.630410 0.923280 -0.063385
N24   N     N_R   0.630410 0.574050 0.923280 -0.087892
N25   N     N_R   0.074050 0.130410 0.576720 -0.055776
N26   N     N_R   0.869590 0.074050 0.576720 -0.090534
N27   N     N_R   0.925950 0.869590 0.576720 -0.055380
N28   N     N_R   0.130410 0.925950 0.576720 -0.090395
N29   N     N_R   0.074050 0.869590 0.423280 -0.087194
N30   N     N_R   0.869590 0.925950 0.423280 -0.057184
N31   N     N_R   0.925950 0.130410 0.423280 -0.085717
N32   N     N_R   0.130410 0.074050 0.423280 -0.062414
Ni1   Ni    Ni4+2 0.500000 0.370760 0.000000 0.293815
Ni2   Ni    Ni4+2 0.629240 0.500000 0.000000 0.288867
Ni3   Ni    Ni4+2 0.500000 0.629240 0.000000 0.299316
Ni4   Ni    Ni4+2 0.370760 0.500000 0.000000 0.289215
Ni5   Ni    Ni4+2 0.000000 0.870760 0.500000 0.307705
Ni6   Ni    Ni4+2 0.129240 0.000000 0.500000 0.298862
Ni7   Ni    Ni4+2 0.000000 0.129240 0.500000 0.304009
Ni8   Ni    Ni4+2 0.870760 0.000000 0.500000 0.302634
C33   C     C_R   0.680168 0.321049 0.125102 -0.042422
C34   C     C_R   0.671902 0.674750 0.142905 -0.045999
C35   C     C_R   0.320257 0.678074 0.126509 -0.040223
C36   C     C_R   0.319412 0.315670 0.117971 -0.040689
C37   C     C_R   0.678580 0.678261 0.868524 -0.048354
C38   C     C_R   0.635415 0.363465 0.812333 -0.055129
C39   C     C_R   0.321126 0.320992 0.869579 -0.050734
C40   C     C_R   0.364985 0.636651 0.812184 -0.052957
C41   C     C_R   0.179279 0.820260 0.627445 -0.049030
C42   C     C_R   0.133927 0.134714 0.688972 -0.060816
C43   C     C_R   0.820821 0.179489 0.627861 -0.048114
C44   C     C_R   0.865996 0.864805 0.688623 -0.059821
C45   C     C_R   0.148278 0.146780 0.321615 -0.057346
C46   C     C_R   0.171211 0.824545 0.359088 -0.015797
C47   C     C_R   0.863545 0.864313 0.312247 -0.050851
C48   C     C_R   0.828067 0.176568 0.360773 -0.009851
C49   C     C_2   0.809250 0.725006 0.842228 -0.098567
C50   C     C_2   0.360225 0.732603 0.708919 -0.097938
C51   C     C_2   0.190526 0.273911 0.843404 -0.103295
C52   C     C_2   0.640085 0.267342 0.709094 -0.099287
C53   C     C_2   0.802899 0.288676 0.179373 -0.093953
C54   C     C_2   0.282008 0.185744 0.156520 -0.066847
C55   C     C_2   0.196912 0.710793 0.178935 -0.095665
C56   C     C_2   0.720245 0.805757 0.164704 -0.103514
C57   C     C_2   0.231110 0.143659 0.208701 -0.132937
C58   C     C_2   0.836912 0.248186 0.243505 -0.126318
C59   C     C_2   0.766516 0.859329 0.210755 -0.100522
C60   C     C_2   0.162706 0.752141 0.242317 -0.126404
C61   C     C_2   0.309556 0.775502 0.656924 -0.089584
C62   C     C_2   0.860977 0.768996 0.791963 -0.102597
C63   C     C_2   0.690645 0.224351 0.657198 -0.088844
C64   C     C_2   0.138636 0.229949 0.793029 -0.102290
C65   C     C_2   0.732905 0.731991 0.834188 -0.074029
C66   C     C_2   0.338552 0.663921 0.737282 -0.123551
C67   C     C_2   0.266817 0.267407 0.834825 -0.063292
C68   C     C_2   0.661839 0.336067 0.737520 -0.123579
C69   C     C_2   0.734626 0.265372 0.153505 -0.098595
C70   C     C_2   0.261964 0.255695 0.130796 -0.140223
C71   C     C_2   0.265246 0.733908 0.153409 -0.097061
C72   C     C_2   0.724322 0.729480 0.178220 -0.085885
C73   C     C_2   0.186766 0.183390 0.257600 -0.077244
C74   C     C_2   0.792329 0.219896 0.300089 -0.111870
C75   C     C_2   0.834770 0.837024 0.238107 -0.132262
C76   C     C_2   0.207135 0.780802 0.298998 -0.110919
C77   C     C_2   0.233106 0.766757 0.662163 -0.067105
C78   C     C_2   0.839587 0.837563 0.763590 -0.124251
C79   C     C_2   0.767103 0.232835 0.662876 -0.066996
C80   C     C_2   0.160194 0.161588 0.764263 -0.124678
H17   H     H_    0.833731 0.679812 0.877716 0.171898
H18   H     H_    0.409228 0.763803 0.732066 0.168505
H19   H     H_    0.166181 0.318682 0.879516 0.170278
H20   H     H_    0.591116 0.236176 0.732115 0.167134
H21   H     H_    0.828592 0.343463 0.163117 0.177965
H22   H     H_    0.340549 0.165135 0.152498 0.179388
H23   H     H_    0.171473 0.655648 0.163330 0.178308
H24   H     H_    0.676883 0.829493 0.126667 0.174648
H25   H     H_    0.238466 0.081674 0.214716 0.159127
H26   H     H_    0.899104 0.244798 0.245791 0.191685
H27   H     H_    0.737919 0.910636 0.231758 0.165929
H28   H     H_    0.100576 0.755925 0.244044 0.195498
H29   H     H_    0.334583 0.821584 0.622728 0.170120
H30   H     H_    0.910340 0.738501 0.769561 0.165886
H31   H     H_    0.665515 0.178487 0.622616 0.169828
H32   H     H_    0.089109 0.260389 0.770782 0.165960
H33   H     H_    0.708665 0.774123 0.795118 0.187614
H34   H     H_    0.292794 0.631772 0.709403 0.201647
H35   H     H_    0.290996 0.225794 0.795143 0.184834
H36   H     H_    0.707604 0.368106 0.709760 0.202158
H37   H     H_    0.712887 0.208121 0.167849 0.185465
H38   H     H_    0.202122 0.272757 0.131536 0.193377
H39   H     H_    0.286553 0.791551 0.167011 0.187611
H40   H     H_    0.765263 0.706012 0.218947 0.194552
H41   H     H_    0.182634 0.245817 0.254512 0.196328
H42   H     H_    0.730265 0.224758 0.298791 0.193253
H43   H     H_    0.863706 0.788828 0.211201 0.202204
H44   H     H_    0.269206 0.775790 0.298314 0.192066
H45   H     H_    0.208063 0.723906 0.700130 0.182858
H46   H     H_    0.793258 0.868798 0.790840 0.201061
H47   H     H_    0.792198 0.275434 0.701263 0.182967
H48   H     H_    0.206715 0.130438 0.791412 0.202473
N33   N     N_R   0.572203 0.230346 0.102688 0.230127
O1    O     O_R   0.537782 0.201775 0.162694 -0.382312
O2    O     O_R   0.599827 0.182948 0.051758 -0.308059
N34   N     N_R   0.767296 0.573773 0.107717 0.219441
O3    O     O_R   0.817005 0.581358 0.163183 -0.354079
O4    O     O_R   0.789644 0.546902 0.041617 -0.385005
N35   N     N_R   0.423277 0.770635 0.095255 0.233694
O5    O     O_R   0.449447 0.809605 0.153806 -0.374916
O6    O     O_R   0.396618 0.808638 0.036530 -0.306026
N36   N     N_R   0.230028 0.424622 0.093756 0.213027
O7    O     O_R   0.178258 0.415212 0.146825 -0.357938
O8    O     O_R   0.212164 0.460729 0.030788 -0.391741
N37   N     N_R   0.575744 0.770656 0.904951 0.227713
O9    O     O_R   0.597145 0.828770 0.862546 -0.350372
O10   O     O_R   0.528651 0.782610 0.961419 -0.351672
N38   N     N_R   0.748356 0.444912 0.849399 0.219050
O11   O     O_R   0.774306 0.468040 0.783123 -0.382389
O12   O     O_R   0.794826 0.441432 0.907969 -0.341753
N39   N     N_R   0.425014 0.228994 0.906067 0.226611
O13   O     O_R   0.395187 0.168578 0.872676 -0.346865
O14   O     O_R   0.481142 0.219411 0.954326 -0.363911
N40   N     N_R   0.252791 0.553817 0.847002 0.218861
O15   O     O_R   0.229214 0.528017 0.780670 -0.384408
O16   O     O_R   0.203946 0.561123 0.903006 -0.330764
N41   N     N_R   0.073586 0.728867 0.591131 0.230546
O17   O     O_R   0.104006 0.667642 0.621709 -0.344542
O18   O     O_R   0.016119 0.720393 0.544054 -0.343022
N42   N     N_R   0.246120 0.052851 0.653836 0.218653
O19   O     O_R   0.268948 0.026600 0.720111 -0.385388
O20   O     O_R   0.295064 0.058942 0.597695 -0.323158
N43   N     N_R   0.926306 0.271144 0.592330 0.230838
O21   O     O_R   0.895446 0.332191 0.622802 -0.344207
O22   O     O_R   0.984198 0.279936 0.546132 -0.341748
N44   N     N_R   0.753933 0.947031 0.653585 0.218901
O23   O     O_R   0.731260 0.973193 0.719906 -0.385828
O24   O     O_R   0.704861 0.941024 0.597354 -0.321654
N45   N     N_R   0.061699 0.255008 0.356473 0.214605
O25   O     O_R   0.046431 0.283888 0.289094 -0.401742
O26   O     O_R   0.065120 0.300696 0.415771 -0.293851
N46   N     N_R   0.268701 0.924341 0.396379 0.222714
O27   O     O_R   0.323689 0.899766 0.352309 -0.361646
O28   O     O_R   0.285104 0.971390 0.452520 -0.360137
N47   N     N_R   0.939905 0.749283 0.350556 0.220265
O29   O     O_R   0.958741 0.720274 0.284215 -0.412149
O30   O     O_R   0.933680 0.703698 0.409667 -0.293389
N48   N     N_R   0.730796 0.076401 0.398218 0.224689
O31   O     O_R   0.674257 0.105547 0.359040 -0.359795
O32   O     O_R   0.716235 0.023997 0.449853 -0.356155

loop_
_geom_bond_atom_site_label_1
_geom_bond_atom_site_label_2
_geom_bond_distance
_ccdc_geom_bond_type
C20   C33   1.373844 A    
C22   N22   1.338381 A    
N40   O15   1.300639 A    
N15   Ni5   1.853481 S    
N46   O28   1.300327 A    
C14   N46   1.433451 S    
C2    N2    1.340078 A    
C66   H34   1.082771 S    
N33   O1    1.300323 A    
N4    N19   1.387122 A    
C61   H29   1.084696 S    
C8    C40   1.388032 A    
C31   N31   1.325013 A    
C24   C37   1.374117 A    
C61   C77   1.342499 D    
C26   H10   1.074947 S    
C25   N25   1.341777 A    
N31   Ni7   1.853293 S    
N36   O7    1.300615 A    
C17   N17   1.331611 A    
N35   O6    1.300648 A    
C33   C69   1.442129 S    
N45   O25   1.300895 A    
N2    N17   1.387122 A    
N41   O17   1.300287 A    
N44   O24   1.300624 A    
C30   H14   1.071245 S    
N6    Ni2   1.848639 S    
C11   C43   1.381157 A    
C7    N39   1.436362 S    
C37   C65   1.452121 S    
C77   H45   1.083220 S    
C31   H15   1.074637 S    
N39   O14   1.298131 A    
C9    N41   1.437000 S    
C14   C46   1.381840 A    
C17   H1    1.075367 S    
C6    N6    1.343106 A    
C59   H27   1.083478 S    
N10   N25   1.387122 A    
N38   O11   1.300518 A    
N3    N18   1.379640 A    
C3    C35   1.374565 A    
C57   H25   1.085713 S    
C10   C42   1.387531 A    
C18   C35   1.372608 A    
N25   Ni7   1.853114 S    
C42   C80   1.459944 S    
C15   N47   1.430884 S    
C8    N8    1.344936 A    
N14   N29   1.379648 A    
C16   C48   1.382839 A    
C23   H7    1.073533 S    
N5    Ni3   1.856982 S    
C8    N40   1.428865 S    
N46   O27   1.300342 A    
C6    C38   1.387865 A    
C60   C76   1.344164 D    
C22   C39   1.374214 A    
N12   Ni8   1.850026 S    
N32   Ni6   1.849665 S    
C78   H46   1.083021 S    
C3    N3    1.341698 A    
C55   C60   1.444035 S    
C34   C72   1.447082 S    
C12   N44   1.429205 S    
N14   Ni6   1.848639 S    
N11   N26   1.379640 A    
N22   Ni4   1.848067 S    
N6    N21   1.379648 A    
N1    Ni1   1.853658 S    
C20   H4    1.074900 S    
C27   H11   1.074092 S    
C21   H5    1.073497 S    
C19   C36   1.374436 A    
C74   H42   1.084831 S    
N37   O10   1.297200 A    
N29   Ni5   1.856744 S    
N43   O21   1.300304 A    
C48   C74   1.437007 S    
C53   C69   1.330762 D    
C27   N27   1.341386 A    
N33   O2    1.300619 A    
C52   C63   1.466483 S    
C18   N18   1.329259 A    
C14   N14   1.343684 A    
C5    C37   1.381415 A    
N3    Ni3   1.857112 S    
C5    N37   1.433156 S    
C1    C33   1.373028 A    
C44   C78   1.459946 S    
N9    Ni5   1.853658 S    
N23   Ni3   1.853293 S    
N45   O26   1.299146 A    
C63   H31   1.084733 S    
C41   C77   1.451753 S    
C43   C79   1.451776 S    
N30   Ni8   1.848067 S    
C26   N26   1.338219 A    
N13   Ni7   1.856982 S    
N44   O23   1.300613 A    
N5    N24   1.387114 A    
C9    N9    1.343964 A    
N21   Ni1   1.856744 S    
C27   C44   1.383447 A    
C58   H26   1.085687 S    
N42   O20   1.300633 A    
C29   C46   1.365271 A    
C4    N36   1.429368 S    
C60   H28   1.084875 S    
N48   O31   1.300279 A    
C46   C76   1.435464 S    
C59   C75   1.338285 D    
C80   H48   1.083089 S    
C24   H8    1.074026 S    
C23   N23   1.339619 A    
N37   O9    1.300291 A    
C49   H17   1.084764 S    
C51   C67   1.342625 D    
C63   C79   1.342303 D    
C12   C44   1.387925 A    
C6    N38   1.429583 S    
C64   C80   1.339358 D    
N17   Ni3   1.853114 S    
N11   Ni7   1.857112 S    
C76   H44   1.085063 S    
C62   H30   1.083868 S    
C10   N42   1.429240 S    
C54   H22   1.084273 S    
C28   C41   1.375047 A    
C70   H38   1.084834 S    
C52   H20   1.083863 S    
N47   O29   1.300199 A    
C22   H6    1.073848 S    
C11   N11   1.344947 A    
N10   Ni6   1.848425 S    
C36   C70   1.455047 S    
C50   C66   1.339368 D    
N41   O18   1.299053 A    
C49   C65   1.342810 D    
C56   H24   1.085217 S    
C16   N48   1.434719 S    
C28   N28   1.338487 A    
C54   C57   1.461199 S    
C57   C73   1.340909 D    
C35   C71   1.442320 S    
C53   C58   1.444537 S    
C54   C70   1.338244 D    
C3    N35   1.425711 S    
N47   O30   1.299796 A    
C50   H18   1.083899 S    
C12   N12   1.343980 A    
N19   Ni1   1.856617 S    
C64   H32   1.083857 S    
C68   H36   1.082715 S    
C50   C61   1.466613 S    
C19   H3    1.075913 S    
C21   N21   1.341101 A    
C13   N45   1.428038 S    
C49   C62   1.466365 S    
N16   Ni8   1.850126 S    
C13   N13   1.343630 A    
C13   C45   1.382589 A    
C71   H39   1.087753 S    
C51   C64   1.466219 S    
C1    N33   1.425573 S    
N34   O3    1.300400 A    
C72   H40   1.084332 S    
N15   N30   1.387114 A    
C30   N30   1.338471 A    
C39   C67   1.451226 S    
C38   C68   1.459421 S    
N1    N20   1.379640 A    
C9    C41   1.381051 A    
C31   C48   1.364814 A    
C24   N24   1.337608 A    
C69   H37   1.087704 S    
N40   O16   1.300265 A    
N7    Ni1   1.853481 S    
N34   O4    1.299810 A    
N42   O19   1.300613 A    
C62   C78   1.339350 D    
C18   H2    1.074575 S    
N36   O8    1.298472 A    
C20   N20   1.330920 A    
C15   N15   1.346156 A    
C55   H23   1.083703 S    
C16   N16   1.344962 A    
C7    C39   1.381242 A    
C30   C47   1.380769 A    
C58   C74   1.344874 D    
C1    N1    1.339906 A    
C40   C66   1.459301 S    
N9    N28   1.379640 A    
N20   Ni2   1.849762 S    
C32   N32   1.336710 A    
N4    Ni4   1.850026 S    
C65   H33   1.083244 S    
C25   H9    1.073754 S    
N39   O13   1.300316 A    
N35   O5    1.300427 A    
N26   Ni8   1.848273 S    
C17   C34   1.379529 A    
N27   Ni5   1.856617 S    
N16   N31   1.379648 A    
C55   C71   1.330478 D    
C10   N10   1.343883 A    
N13   N32   1.387114 A    
N7    N22   1.387114 A    
C28   H12   1.074858 S    
C7    N7    1.345200 A    
C32   C45   1.377550 A    
C73   H41   1.084099 S    
C29   H13   1.075131 S    
N2    Ni2   1.848425 S    
N38   O12   1.300746 A    
C21   C38   1.383059 A    
C52   C68   1.339569 D    
N48   O32   1.300337 A    
C56   C59   1.461807 S    
N8    Ni4   1.850126 S    
C11   N43   1.436730 S    
C23   C40   1.381993 A    
C56   C72   1.342711 D    
C32   H16   1.073617 S    
C19   N19   1.333050 A    
N18   Ni4   1.848273 S    
C4    N4    1.343180 A    
C15   C47   1.389128 A    
C5    N5    1.345424 A    
C2    C34   1.386370 A    
C75   H43   1.082813 S    
N28   Ni6   1.849762 S    
N43   O22   1.298351 A    
C79   H47   1.083335 S    
C25   C42   1.383245 A    
C53   H21   1.083807 S    
C29   N29   1.325620 A    
C26   C43   1.374429 A    
N12   N27   1.387122 A    
C47   C75   1.458642 S    
C51   H19   1.084957 S    
N24   Ni2   1.849665 S    
C67   H35   1.083757 S    
N8    N23   1.379648 A    
C2    N34   1.430417 S    
C4    C36   1.382424 A    
C45   C73   1.444691 S    
