data_mof_unit_43893.cif
_audit_creation_date              2012-12-11T15:48:05-0500
_audit_creation_method            fapswitch 2.2
_symmetry_space_group_name_H-M    P1
_symmetry_Int_Tables_number       1
_space_group_crystal_system       triclinic
_cell_length_a                    6.933354
_cell_length_b                    17.57548
_cell_length_c                    19.447084
_cell_angle_alpha                 108.609971
_cell_angle_beta                  89.40953
_cell_angle_gamma                 90.683468
_cell_volume                      2245.64309455

loop_
_atom_site_label
_atom_site_type_symbol
_atom_type_description
_atom_site_fract_x
_atom_site_fract_y
_atom_site_fract_z
_atom_type_partial_charge
O1    O     O_R   0.494330 0.415710 0.413720 -0.544198
O2    O     O_R   0.819360 0.430070 0.560210 -0.539360
O3    O     O_R   0.994320 0.584290 0.586280 -0.541431
C1    C     C_R   0.649582 0.413968 0.580630 0.764025
O4    O     O_R   0.823740 0.406290 0.412670 -0.548873
O5    O     O_R   0.998730 0.560340 0.437690 -0.541667
C2    C     C_R   0.654810 0.383161 0.384662 0.674332
O6    O     O_R   0.489920 0.439660 0.562310 -0.523377
O7    O     O_3   0.662330 0.550570 0.508380 -0.370062
V1    V     V_3+5 0.935370 0.490620 0.498440 1.426292
O8    O     O_R   0.328720 0.569930 0.439790 -0.541044
C3    C     C_R   0.160729 0.586186 0.419600 0.702302
O9    O     O_R   0.324340 0.593710 0.587330 -0.535286
C4    C     C_R   0.155179 0.616743 0.615384 0.721795
V2    V     V_3+5 0.435940 0.509380 0.501560 1.439784
O10   O     O_3   0.159110 0.449430 0.491620 -0.370131
C5    C     C_R   0.310555 0.728445 0.715022 -0.119656
H1    H     H_    0.449892 0.713329 0.688846 0.133188
C6    C     C_R   0.299220 0.792626 0.779784 -0.150921
H2    H     H_    0.430441 0.825031 0.801534 0.141231
C7    C     C_R   0.121325 0.814628 0.815877 -0.048059
C8    C     C_R   0.954897 0.770973 0.785223 -0.118677
H3    H     H_    0.815531 0.786098 0.811394 0.131229
C9    C     C_R   0.966077 0.707016 0.720285 -0.136503
H4    H     H_    0.834752 0.674778 0.698420 0.140685
C10   C     C_R   0.144080 0.684862 0.684319 -0.050907
C11   C     C_R   0.200414 0.604835 0.299998 -0.238844
C12   C     C_R   0.152837 0.638474 0.373436 -0.086125
C13   C     C_R   0.097834 0.720234 0.401297 0.034733
C14   C     C_R   0.094881 0.767362 0.353417 0.086713
C15   C     C_R   0.138470 0.731594 0.278593 0.045778
C16   C     C_R   0.191289 0.650103 0.252575 0.092202
C17   C     C_R   0.050344 0.849497 0.378188 -0.202988
C18   C     C_R   0.044688 0.894361 0.330932 -0.192136
C19   C     C_R   0.081800 0.859612 0.255978 0.082887
C20   C     C_R   0.130106 0.777211 0.229593 0.010276
C21   C     C_R   0.172026 0.740098 0.154742 0.065661
C22   C     C_R   0.225286 0.658341 0.131081 -0.170725
C23   C     C_R   0.234978 0.614475 0.179169 -0.154662
C24   C     C_R   0.073834 0.905565 0.207522 0.001890
C25   C     C_R   0.110453 0.867684 0.132366 -0.112900
C26   C     C_R   0.160248 0.785178 0.105620 0.007620
H5    H     H_    0.242032 0.542239 0.279461 0.120118
H6    H     H_    0.021366 0.881232 0.434695 0.136209
H7    H     H_    0.011472 0.957138 0.355120 0.134432
H8    H     H_    0.262004 0.626588 0.075304 0.156569
H9    H     H_    0.276645 0.551959 0.158561 0.156003
C27   C     C_R   0.557790 0.209782 0.889811 -0.201154
C28   C     C_R   0.625545 0.130924 0.866869 -0.112753
C29   C     C_R   0.695511 0.096655 0.795441 0.089051
C30   C     C_R   0.698712 0.142862 0.747527 0.095391
C31   C     C_R   0.631212 0.223038 0.771324 0.015646
C32   C     C_R   0.560827 0.256662 0.843192 0.063426
C33   C     C_R   0.766870 0.110727 0.676098 -0.155011
C34   C     C_R   0.767137 0.155626 0.628807 -0.200183
C35   C     C_R   0.699690 0.235279 0.650614 0.098064
C36   C     C_R   0.633069 0.269468 0.723056 0.007682
C37   C     C_R   0.568206 0.349776 0.747587 0.029301
C38   C     C_R   0.499530 0.381699 0.819304 -0.148970
C39   C     C_R   0.494685 0.336386 0.866556 0.157565
C40   C     C_R   0.698107 0.281181 0.601917 0.004445
C41   C     C_R   0.638935 0.362679 0.628014 -0.131424
C42   C     C_R   0.574731 0.396696 0.700451 0.088130
H10   H     H_    0.503674 0.233932 0.944771 0.157874
H11   H     H_    0.821205 0.050294 0.655321 0.157739
H12   H     H_    0.821570 0.126052 0.574763 0.135453
H13   H     H_    0.446957 0.442349 0.840024 0.183663
C43   C     C_R   0.811857 0.278957 0.279542 -0.167141
H14   H     H_    0.952797 0.299858 0.301518 0.117796
C44   C     C_R   0.800604 0.215344 0.214343 -0.153505
H15   H     H_    0.933363 0.189154 0.187955 0.119502
C45   C     C_R   0.620819 0.185968 0.183635 -0.035709
C46   C     C_R   0.452534 0.222716 0.219290 -0.145019
H16   H     H_    0.311666 0.202028 0.197124 0.123164
C47   C     C_R   0.463690 0.286388 0.284453 -0.157110
H17   H     H_    0.330749 0.312863 0.310468 0.120162
C48   C     C_R   0.643522 0.315101 0.315665 -0.036794
O11   O     O_R   0.774940 0.060470 0.937800 -0.519845
O12   O     O_R   0.440880 0.093730 0.087350 -0.546625
O13   O     O_R   0.266130 0.939630 0.062280 -0.542342
C49   C     C_R   0.609740 0.117145 0.115216 0.671014
O14   O     O_R   0.445480 0.069960 0.939820 -0.534415
O15   O     O_R   0.270770 0.915690 0.913690 -0.539591
C50   C     C_R   0.614976 0.084053 0.917716 0.775370
O16   O     O_R   0.770300 0.084410 0.086380 -0.545767
O17   O     O_3   0.602600 0.949510 0.991670 -0.375017
V3    V     V_3+5 0.329470 0.009370 0.001550 1.439877
O18   O     O_R   0.940760 0.906160 0.912560 -0.535000
C51   C     C_R   0.110028 0.883026 0.884642 0.720489
O19   O     O_R   0.936150 0.929930 0.060100 -0.549489
C52   C     C_R   0.103888 0.915666 0.082012 0.696983
V4    V     V_3+5 0.828930 0.990450 0.998310 1.435292
O20   O     O_3   0.105670 0.050490 0.008320 -0.363403
C53   C     C_3   0.201958 0.746049 0.024709 -0.354830
C54   C     C_3   0.420036 0.742371 0.009404 -0.320555
C55   C     C_3   0.463331 0.699982 0.929312 -0.695826
H18   H     H_    0.409019 0.637067 0.913005 0.253769
H19   H     H_    0.394158 0.731968 0.895400 0.228512
H20   H     H_    0.621582 0.699300 0.919731 0.218102
H21   H     H_    0.480907 0.804253 0.024902 0.213834
H22   H     H_    0.493779 0.709971 0.042053 0.201204
H23   H     H_    0.134482 0.685472 0.004610 0.181290
H24   H     H_    0.132966 0.778936 0.991498 0.153583
I1    I     I_    0.781189 0.973074 0.760117 -0.502020
C56   C     C_3   0.755225 0.242627 0.522172 -0.356545
C57   C     C_3   0.597009 0.184997 0.479952 -0.309469
C58   C     C_3   0.673191 0.130669 0.407181 -0.801505
H25   H     H_    0.723889 0.167014 0.373013 0.243572
H26   H     H_    0.793327 0.093645 0.415918 0.221844
H27   H     H_    0.557133 0.089322 0.378188 0.225439
H28   H     H_    0.540499 0.146473 0.511205 0.206404
H29   H     H_    0.474492 0.220535 0.470376 0.189904
H30   H     H_    0.782136 0.286989 0.493576 0.167155
H31   H     H_    0.895715 0.211865 0.518591 0.172104
I2    I     I_    0.499296 0.521847 0.738638 -0.467845
I3    I     I_    0.384729 0.394912 0.972791 -0.447041
C59   C     C_3   0.044386 0.756572 0.481352 -0.373369
C60   C     C_3   0.216467 0.801686 0.525612 -0.346196
C61   C     C_3   0.153833 0.852252 0.601813 -0.702059
H32   H     H_    0.057197 0.901103 0.598956 0.234549
H33   H     H_    0.076273 0.814565 0.629486 0.244129
H34   H     H_    0.282574 0.879576 0.634245 0.236790
H35   H     H_    0.325571 0.757505 0.529735 0.195213
H36   H     H_    0.285813 0.841909 0.498455 0.205458
H37   H     H_    0.917510 0.796224 0.487650 0.177231
H38   H     H_    0.994914 0.710122 0.505125 0.169908
C62   C     C_3   0.035869 0.995875 0.236507 -0.357291
C63   C     C_3   0.219070 0.041860 0.270997 -0.301526
C64   C     C_3   0.173751 0.127203 0.318596 -0.800695
H39   H     H_    0.091627 0.158887 0.287686 0.229889
H40   H     H_    0.089119 0.126183 0.366959 0.230450
H41   H     H_    0.309705 0.160871 0.337430 0.233282
H42   H     H_    0.292120 0.010753 0.304893 0.197671
H43   H     H_    0.321348 0.044175 0.227272 0.192189
H44   H     H_    0.987803 0.020462 0.193737 0.163703
H45   H     H_    0.912519 0.008460 0.275203 0.175359

loop_
_geom_bond_atom_site_label_1
_geom_bond_atom_site_label_2
_ccdc_geom_bond_type
O15   V3    S    
C34   C35   A    
C29   I1    S    
C54   C55   S    
C58   H26   S    
C46   H16   S    
C19   C20   A    
C62   H45   S    
C1    O6    A    
C63   C64   S    
O12   V3    S    
C36   C37   A    
C33   H11   S    
C7    C51   S    
C41   C42   A    
C3    C12   S    
C5    C10   A    
C28   C50   S    
C56   H30   S    
C20   C21   A    
C6    C7    A    
C62   H44   S    
O13   V3    S    
C15   C20   A    
O5    C3    A    
C14   C15   A    
C27   H10   S    
C57   C58   S    
O14   V3    S    
C55   H20   S    
C1    C41   S    
C37   C42   A    
C35   C36   A    
C18   C19   A    
C25   C26   A    
C16   C23   A    
C21   C26   A    
C60   C61   S    
C38   H13   S    
O8    V2    S    
C32   C39   A    
O18   V4    S    
C43   H14   S    
C55   H19   S    
C58   H25   S    
C44   H15   S    
O1    V2    S    
C13   C14   A    
C40   C56   S    
C59   H38   S    
C45   C49   S    
C2    C48   S    
C64   H41   S    
C42   I2    S    
C38   C39   A    
O1    C2    A    
O9    C4    A    
C46   C47   A    
C53   C54   S    
O16   V4    S    
C5    H1    S    
O4    C2    A    
C57   H28   S    
C61   H33   S    
C27   C32   A    
O15   C51   A    
C30   C31   A    
C56   H31   S    
C9    H4    S    
O12   C49   A    
C54   H21   S    
C57   H29   S    
O11   V4    S    
C37   C38   A    
C24   C62   S    
C13   C59   S    
O11   C50   A    
O2    C1    A    
C47   H17   S    
C21   C22   A    
C63   H43   S    
O19   V4    S    
C15   C16   A    
C61   H32   S    
C55   H18   S    
C29   C30   A    
C18   H7    S    
C60   H36   S    
C4    C10   S    
C47   C48   A    
O3    C4    A    
C24   C25   A    
C25   C52   S    
C53   H24   S    
O6    V2    S    
O14   C50   A    
O9    V2    S    
C58   H27   S    
C8    C9    A    
C39   I3    S    
C62   C63   S    
O2    V1    S    
C34   H12   S    
C31   C32   A    
O17   V3    S    
C23   H9    S    
C64   H39   S    
O7    V1    S    
C61   H34   S    
C43   C48   A    
C33   C34   A    
C12   C13   A    
C14   C17   A    
C11   C16   A    
C26   C53   S    
C17   H6    S    
C8    H3    S    
C9    C10   A    
C45   C46   A    
O5    V1    S    
C44   C45   A    
O8    C3    A    
C56   C57   S    
C54   H22   S    
C30   C33   A    
C7    C8    A    
C6    H2    S    
C19   C24   A    
O7    V2    S    
O4    V1    S    
O3    V1    S    
O17   V4    S    
C63   H42   S    
O19   C52   A    
C22   C23   A    
O13   C52   A    
C27   C28   A    
V3    O20   S    
V4    O20   S    
C5    C6    A    
C17   C18   A    
C60   H35   S    
C40   C41   A    
C22   H8    S    
C31   C36   A    
C11   H5    S    
O18   C51   A    
C53   H23   S    
C43   C44   A    
C28   C29   A    
C11   C12   A    
C35   C40   A    
V1    O10   S    
C59   C60   S    
C59   H37   S    
C49   O16   A    
V2    O10   S    
C64   H40   S    
