data_mof_unit_61133.cif
_audit_creation_date              2012-12-10T18:50:47-0500
_audit_creation_method            fapswitch 2.2
_symmetry_space_group_name_H-M    P1
_symmetry_Int_Tables_number       1
_space_group_crystal_system       triclinic
_cell_length_a                    37.083271
_cell_length_b                    30.246057
_cell_length_c                    21.743136
_cell_angle_alpha                 89.999266
_cell_angle_beta                  125.366584
_cell_angle_gamma                 90.001288
_cell_volume                      19887.242895

loop_
_atom_site_label
_atom_site_type_symbol
_atom_type_description
_atom_site_fract_x
_atom_site_fract_y
_atom_site_fract_z
_atom_type_partial_charge
C1    C     C_R   0.413836 0.500031 0.915504 0.858933
C2    C     C_R   0.586164 0.500032 0.084495 0.858978
C3    C     C_R   0.913836 0.000032 0.915506 0.858963
C4    C     C_R   0.086164 0.000033 0.084495 0.858959
C5    C     C_2   0.504817 0.498346 0.820020 -0.348006
C6    C     C_2   0.495183 0.498344 0.179979 -0.348010
C7    C     C_2   0.004818 0.998346 0.820021 -0.348008
C8    C     C_2   0.995183 0.998344 0.179979 -0.348008
C9    C     C_R   0.296569 0.529755 0.838292 -0.101352
C10   C     C_R   0.703430 0.529838 0.161815 -0.101509
C11   C     C_R   0.796577 0.029825 0.838241 -0.101479
C12   C     C_R   0.203425 0.029819 0.161754 -0.101467
C13   C     C_R   0.342431 0.528654 0.887225 0.422423
C14   C     C_R   0.657569 0.528725 0.112864 0.422409
C15   C     C_R   0.842438 0.028705 0.887184 0.422405
C16   C     C_R   0.157564 0.028702 0.112812 0.422406
C17   C     C_R   0.366002 0.500199 0.870321 -0.143776
C18   C     C_R   0.634000 0.500206 0.129683 -0.143863
C19   C     C_R   0.866001 0.000206 0.870327 -0.143835
C20   C     C_R   0.133999 0.000208 0.129676 -0.143824
C21   C     C_R   0.343358 0.472525 0.807097 -0.245844
C22   C     C_R   0.656645 0.472477 0.192835 -0.245853
C23   C     C_R   0.843350 0.972503 0.807141 -0.245859
C24   C     C_R   0.156648 0.972509 0.192867 -0.245857
C25   C     C_R   0.297632 0.473647 0.759441 -0.146935
C26   C     C_R   0.702370 0.473606 0.240502 -0.146897
C27   C     C_R   0.797625 0.973639 0.759480 -0.146907
C28   C     C_R   0.202373 0.973644 0.240528 -0.146911
C29   C     C_R   0.274362 0.502201 0.775159 0.122576
C30   C     C_R   0.725638 0.502228 0.224873 0.122581
C31   C     C_R   0.774363 0.002241 0.775149 0.122562
C32   C     C_R   0.225637 0.002240 0.224851 0.122568
C33   C     C_R   0.203793 0.538236 0.680302 0.455699
C34   C     C_R   0.796215 0.538225 0.319799 0.455692
C35   C     C_R   0.703785 0.038256 0.680277 0.455702
C36   C     C_R   0.296216 0.038256 0.319722 0.455698
C37   C     C_R   0.157331 0.538112 0.632589 0.314279
C38   C     C_R   0.842676 0.538097 0.367493 0.314355
C39   C     C_R   0.657324 0.038121 0.632563 0.314313
C40   C     C_R   0.342678 0.038121 0.367436 0.314315
C41   C     C_R   0.134193 0.500763 0.632874 -0.244915
C42   C     C_R   0.865807 0.500769 0.367123 -0.244956
C43   C     C_R   0.634194 0.000773 0.632876 -0.244937
C44   C     C_R   0.365806 0.000772 0.367124 -0.244938
C45   C     C_R   0.501336 0.499847 0.882357 0.922404
C46   C     C_R   0.498664 0.499847 0.117643 0.922417
C47   C     C_R   0.001336 0.999847 0.882357 0.922404
C48   C     C_R   0.998664 0.999847 0.117643 0.922399
C49   C     C_R   0.157169 0.463811 0.678841 -0.100620
C50   C     C_R   0.842823 0.463846 0.321068 -0.100614
C51   C     C_R   0.657178 0.963837 0.678887 -0.100600
C52   C     C_R   0.342821 0.963835 0.321117 -0.100600
C53   C     C_R   0.203440 0.464666 0.727153 -0.105367
C54   C     C_R   0.796551 0.464711 0.272759 -0.105330
C55   C     C_R   0.703449 0.964706 0.727211 -0.105321
C56   C     C_R   0.296550 0.964704 0.272795 -0.105328
C57   C     C_R   0.226241 0.501761 0.727042 -0.100816
C58   C     C_R   0.773759 0.501783 0.272971 -0.100810
C59   C     C_R   0.726242 0.001798 0.727056 -0.100810
C60   C     C_R   0.273758 0.001796 0.272946 -0.100810
C61   C     C_R   0.500000 0.413983 0.500000 0.899641
C62   C     C_R   1.000000 0.913983 0.500000 0.899640
C63   C     C_R   0.499654 0.501626 0.618649 0.950828
C64   C     C_R   0.500346 0.501625 0.381351 0.950832
C65   C     C_R   0.999654 0.001626 0.618649 0.950822
C66   C     C_R   0.000346 0.001626 0.381351 0.950824
C67   C     C_R   0.500000 0.586239 0.500000 0.857216
C68   C     C_R   0.000000 0.086239 0.500001 0.857196
C69   C     C_R   0.000004 0.413614 0.500004 0.911634
C70   C     C_R   0.500000 0.913613 0.500000 0.911644
C71   C     C_R   0.086228 0.500073 0.585887 0.895540
C72   C     C_R   0.913772 0.500071 0.414113 0.895498
C73   C     C_R   0.586228 0.000072 0.585887 0.895518
C74   C     C_R   0.413772 0.000071 0.414113 0.895515
C75   C     C_R   0.999999 0.586184 0.499999 0.843418
C76   C     C_R   0.500000 0.086184 0.499999 0.843406
C77   C     C_R   0.491975 0.297366 0.437398 -0.194932
C78   C     C_R   0.508021 0.297365 0.562599 -0.194930
C79   C     C_R   0.991968 0.797365 0.437395 -0.194934
C80   C     C_R   0.008020 0.797365 0.562601 -0.194931
C81   C     C_R   0.000018 0.273676 0.500020 -0.014214
C82   C     C_R   0.499998 0.773676 0.500000 -0.014207
C83   C     C_R   0.490178 0.343244 0.435626 -0.030793
C84   C     C_R   0.509819 0.343243 0.564372 -0.030796
C85   C     C_R   0.990174 0.843243 0.435624 -0.030797
C86   C     C_R   0.009820 0.843243 0.564374 -0.030794
C87   C     C_R   0.499999 0.366279 0.499999 -0.114372
C88   C     C_R   0.999998 0.866279 0.500000 -0.114371
C89   C     C_R   0.499998 0.274539 0.499999 0.114843
C90   C     C_R   0.999993 0.774539 0.499998 0.114844
C91   C     C_R   0.038433 0.703233 0.556112 -0.035606
C92   C     C_R   0.961558 0.703229 0.443884 -0.035585
C93   C     C_R   0.538435 0.203232 0.556118 -0.035599
C94   C     C_R   0.461564 0.203230 0.443879 -0.035597
C95   C     C_R   0.038210 0.657093 0.557702 0.367064
C96   C     C_R   0.961784 0.657090 0.442292 0.367067
C97   C     C_R   0.538211 0.157092 0.557708 0.367075
C98   C     C_R   0.461789 0.157091 0.442288 0.367070
C99   C     C_R   0.999998 0.634008 0.499997 -0.274811
C100  C     C_R   0.500000 0.134008 0.499998 -0.274820
C101  C     C_R   0.999994 0.726212 0.499999 -0.170278
C102  C     C_R   0.499999 0.226212 0.499999 -0.170277
C103  C     C_R   0.533569 0.702879 0.563931 -0.166117
C104  C     C_R   0.466429 0.702877 0.436070 -0.166118
C105  C     C_R   0.033553 0.202874 0.563973 -0.166112
C106  C     C_R   0.966468 0.202880 0.436050 -0.166106
C107  C     C_R   0.533874 0.657044 0.563623 -0.189932
C108  C     C_R   0.466126 0.657043 0.436377 -0.189923
C109  C     C_R   0.033852 0.157040 0.563662 -0.189913
C110  C     C_R   0.966158 0.157046 0.436354 -0.189936
C111  C     C_R   0.500000 0.634083 0.500000 -0.018207
C112  C     C_R   0.000003 0.134082 0.500005 -0.018165
C113  C     C_R   0.010895 0.296743 0.456316 -0.008344
C114  C     C_R   0.989142 0.296741 0.543726 -0.008434
C115  C     C_R   0.510811 0.796742 0.456208 -0.008413
C116  C     C_R   0.489184 0.796741 0.543791 -0.008407
C117  C     C_R   0.499998 0.725640 0.500000 0.126759
C118  C     C_R   0.000013 0.225640 0.500014 0.126761
C119  C     C_R   0.000012 0.365640 0.500014 -0.029265
C120  C     C_R   0.499999 0.865639 0.500000 -0.029307
C121  C     C_R   0.010044 0.342711 0.455874 -0.239712
C122  C     C_R   0.989986 0.342709 0.544163 -0.240004
C123  C     C_R   0.509964 0.842709 0.455769 -0.239881
C124  C     C_R   0.490033 0.842709 0.544230 -0.239866
C125  C     C_2   0.530747 0.524923 0.747071 -0.160094
C126  C     C_2   0.469252 0.524920 0.252928 -0.160074
C127  C     C_2   0.030747 0.024923 0.747071 -0.160091
C128  C     C_2   0.969252 0.024920 0.252927 -0.160088
C129  C     C_2   0.497697 0.506747 0.682386 -0.315729
C130  C     C_2   0.502303 0.506746 0.317613 -0.315753
C131  C     C_2   0.997697 0.006747 0.682386 -0.315735
C132  C     C_2   0.002303 0.006746 0.317613 -0.315732
C133  C     C_2   0.527034 0.528974 0.810234 -0.154318
C134  C     C_2   0.472965 0.528972 0.189765 -0.154259
C135  C     C_2   0.027034 0.028975 0.810233 -0.154291
C136  C     C_2   0.972965 0.028971 0.189764 -0.154296
H1    H     H_    0.559903 0.537976 0.753000 0.165801
H2    H     H_    0.440097 0.537973 0.246998 0.165823
H3    H     H_    0.059902 0.037978 0.752999 0.165807
H4    H     H_    0.940096 0.037972 0.246998 0.165807
H5    H     H_    0.485942 0.279297 0.389194 0.140716
H6    H     H_    0.514054 0.279296 0.610803 0.140716
H7    H     H_    0.985932 0.779296 0.389189 0.140716
H8    H     H_    0.014055 0.779296 0.610806 0.140717
H9    H     H_    0.018452 0.360591 0.422572 0.162462
H10   H     H_    0.981578 0.360585 0.577465 0.162489
H11   H     H_    0.518322 0.860587 0.422398 0.162515
H12   H     H_    0.481674 0.860586 0.577600 0.162510
H13   H     H_    0.559545 0.720678 0.613352 0.125167
H14   H     H_    0.440453 0.720675 0.386649 0.125167
H15   H     H_    0.059509 0.220671 0.613421 0.125166
H16   H     H_    0.940516 0.220682 0.386607 0.125183
H17   H     H_    0.466579 0.498162 0.673625 0.156525
H18   H     H_    0.533421 0.498163 0.326375 0.156535
H19   H     H_    0.966579 0.998162 0.673625 0.156531
H20   H     H_    0.033421 0.998163 0.326375 0.156529
H21   H     H_    0.560056 0.639547 0.613220 0.147260
H22   H     H_    0.439945 0.639545 0.386780 0.147264
H23   H     H_    0.060011 0.139540 0.613281 0.147226
H24   H     H_    0.939996 0.139550 0.386731 0.147224
H25   H     H_    0.544278 0.555673 0.850550 0.171595
H26   H     H_    0.455721 0.555670 0.149448 0.171633
H27   H     H_    0.044277 0.055674 0.850548 0.171619
H28   H     H_    0.955720 0.055669 0.149447 0.171617
H29   H     H_    0.491892 0.468936 0.785024 0.150985
H30   H     H_    0.508108 0.468935 0.214977 0.150987
H31   H     H_    0.991894 0.968936 0.785026 0.150988
H32   H     H_    0.008108 0.968935 0.214977 0.150986
H33   H     H_    0.278066 0.551160 0.850633 0.160406
H34   H     H_    0.721931 0.551292 0.149534 0.160445
H35   H     H_    0.778081 0.051262 0.850551 0.160456
H36   H     H_    0.221922 0.051253 0.149439 0.160449
H37   H     H_    0.361161 0.450700 0.793853 0.163827
H38   H     H_    0.638844 0.450601 0.206016 0.163902
H39   H     H_    0.861147 0.950644 0.793932 0.163876
H40   H     H_    0.138850 0.950653 0.206081 0.163868
H41   H     H_    0.280291 0.452282 0.710415 0.141188
H42   H     H_    0.719714 0.452192 0.289465 0.141251
H43   H     H_    0.780277 0.952246 0.710491 0.141249
H44   H     H_    0.219720 0.952255 0.289521 0.141241
O1    O     O_R   0.434530 0.536960 0.934530 -0.603029
O2    O     O_R   0.565470 0.536960 0.065470 -0.602979
O3    O     O_R   0.934530 0.036960 0.934530 -0.602983
O4    O     O_R   0.065470 0.036960 0.065470 -0.602992
O5    O     O_R   0.065470 0.500010 0.514410 -0.622115
O6    O     O_R   0.934530 0.500010 0.485590 -0.622040
O7    O     O_R   0.565470 0.000010 0.514410 -0.622120
O8    O     O_R   0.434530 0.000010 0.485590 -0.622115
O9    O     O_R   0.065460 0.500010 0.616540 -0.617419
O10   O     O_R   0.934540 0.500010 0.383460 -0.617348
O11   O     O_R   0.565460 0.000010 0.616540 -0.617311
O12   O     O_R   0.434540 0.000010 0.383460 -0.617318
O13   O     O_R   0.000010 0.565480 0.448930 -0.619930
O14   O     O_R   0.999990 0.565480 0.551070 -0.619888
O15   O     O_R   0.500010 0.065480 0.448930 -0.619919
O16   O     O_R   0.499990 0.065480 0.551070 -0.619908
O17   O     O_R   0.434530 0.463040 0.934530 -0.621974
O18   O     O_R   0.565470 0.463040 0.065470 -0.622003
O19   O     O_R   0.934530 0.963040 0.934530 -0.621995
O20   O     O_R   0.065470 0.963040 0.065470 -0.621991
O21   O     O_R   0.500010 0.536960 0.909550 -0.611316
O22   O     O_R   0.499990 0.536960 0.090450 -0.611313
O23   O     O_R   0.000010 0.036960 0.909550 -0.611310
O24   O     O_R   0.999990 0.036960 0.090450 -0.611308
O25   O     O_R   0.500010 0.463040 0.909550 -0.629479
O26   O     O_R   0.499990 0.463040 0.090450 -0.629470
O27   O     O_R   0.000010 0.963040 0.909550 -0.629474
O28   O     O_R   0.999990 0.963040 0.090450 -0.629476
O29   O     O_R   0.536960 0.434530 0.536970 -0.626487
O30   O     O_R   0.463040 0.434530 0.463030 -0.626491
O31   O     O_R   0.036960 0.934530 0.536970 -0.626490
O32   O     O_R   0.963040 0.934530 0.463030 -0.626484
O33   O     O_R   0.536950 0.500000 0.627420 -0.618435
O34   O     O_R   0.463050 0.500000 0.372580 -0.618435
O35   O     O_R   0.036950 0.000000 0.627420 -0.618435
O36   O     O_R   0.963050 0.000000 0.372580 -0.618435
O37   O     O_R   0.463030 0.500000 0.553490 -0.624627
O38   O     O_R   0.536970 0.500000 0.446510 -0.624622
O39   O     O_R   0.963030 0.000000 0.553490 -0.624623
O40   O     O_R   0.036970 1.000000 0.446510 -0.624625
O41   O     O_R   0.536960 0.565470 0.536960 -0.627974
O42   O     O_R   0.463040 0.565470 0.463040 -0.627974
O43   O     O_R   0.036960 0.065470 0.536960 -0.627961
O44   O     O_R   0.963040 0.065470 0.463040 -0.627957
O45   O     O_R   1.000000 0.434540 0.448940 -0.626502
O46   O     O_R   0.000000 0.434540 0.551060 -0.626564
O47   O     O_R   0.500000 0.934540 0.448940 -0.626548
O48   O     O_R   0.500000 0.934540 0.551060 -0.626546
Zn1   Zn    Zn3+2 0.500000 0.549350 0.000000 0.989142
Zn2   Zn    Zn3+2 0.000000 0.049350 0.000000 0.989175
Zn3   Zn    Zn3+2 0.500000 0.450640 0.000000 0.940778
Zn4   Zn    Zn3+2 0.000000 0.950640 0.000000 0.940774
Zn5   Zn    Zn3+2 0.549360 0.500000 0.549360 0.944023
Zn6   Zn    Zn3+2 0.450640 0.500000 0.450640 0.944019
Zn7   Zn    Zn3+2 0.049360 0.000000 0.549360 0.944025
Zn8   Zn    Zn3+2 0.950640 1.000000 0.450640 0.944031
Zn9   Zn    Zn3+2 0.000010 0.500010 0.431810 0.961370
Zn10  Zn    Zn3+2 0.999990 0.500010 0.568190 0.961337
Zn11  Zn    Zn3+2 0.500010 0.000010 0.431810 0.961385
Zn12  Zn    Zn3+2 0.499990 0.000010 0.568190 0.961394
O49   O     O_3   0.136288 0.574925 0.587658 -0.760577
H45   H     H_    0.103893 0.571293 0.556097 0.350905
O50   O     O_3   0.863727 0.574885 0.412495 -0.760568
H46   H     H_    0.896125 0.571297 0.443905 0.350938
O51   O     O_3   0.636273 0.074921 0.587599 -0.760576
H47   H     H_    0.603877 0.071298 0.556089 0.350915
O52   O     O_3   0.363730 0.074921 0.412398 -0.760568
H48   H     H_    0.396126 0.071300 0.443903 0.350919
C137  C     C_R   0.133482 0.422990 0.673953 0.159854
C138  C     C_R   0.123573 0.415037 0.726226 -0.097251
C139  C     C_R   0.106334 0.374112 0.727208 -0.150874
C140  C     C_R   0.099628 0.340842 0.676922 -0.100399
C141  C     C_R   0.109055 0.348789 0.624323 -0.131921
C142  C     C_R   0.125439 0.389911 0.622152 -0.183581
H49   H     H_    0.130136 0.440102 0.767081 0.124178
H50   H     H_    0.098960 0.367892 0.767857 0.123168
H51   H     H_    0.087197 0.308860 0.678661 0.120810
H52   H     H_    0.103956 0.322965 0.585583 0.135597
H53   H     H_    0.133424 0.395457 0.582094 0.129821
C143  C     C_R   0.866505 0.423042 0.325875 0.160075
C144  C     C_R   0.876249 0.415059 0.273396 -0.097187
C145  C     C_R   0.893479 0.374141 0.272364 -0.150851
C146  C     C_R   0.900338 0.340905 0.322805 -0.100493
C147  C     C_R   0.891066 0.348878 0.375595 -0.132011
C148  C     C_R   0.874701 0.389998 0.377824 -0.183988
H54   H     H_    0.869563 0.440094 0.232423 0.124104
H55   H     H_    0.900725 0.367898 0.231556 0.123218
H56   H     H_    0.912758 0.308926 0.321028 0.120765
H57   H     H_    0.896270 0.323076 0.414440 0.135733
H58   H     H_    0.866842 0.395563 0.418042 0.129885
C149  C     C_R   0.633501 0.923013 0.674015 0.160026
C150  C     C_R   0.623795 0.914954 0.726526 -0.097251
C151  C     C_R   0.606595 0.874006 0.727518 -0.150899
C152  C     C_R   0.599727 0.840817 0.677004 -0.100445
C153  C     C_R   0.608957 0.848867 0.624177 -0.132015
C154  C     C_R   0.625291 0.890016 0.621990 -0.183986
H59   H     H_    0.630494 0.939951 0.767560 0.124107
H60   H     H_    0.599382 0.867703 0.768354 0.123204
H61   H     H_    0.587333 0.808814 0.678750 0.120774
H62   H     H_    0.603744 0.823102 0.585273 0.135730
H63   H     H_    0.633123 0.895640 0.581750 0.129916
C155  C     C_R   0.366496 0.923009 0.325996 0.160015
C156  C     C_R   0.376208 0.914948 0.273493 -0.097263
C157  C     C_R   0.393406 0.873999 0.272508 -0.150898
C158  C     C_R   0.400268 0.840811 0.323021 -0.100438
C159  C     C_R   0.391032 0.848864 0.375839 -0.132017
C160  C     C_R   0.374697 0.890013 0.378018 -0.183951
H64   H     H_    0.369514 0.939944 0.232461 0.124108
H65   H     H_    0.400623 0.867694 0.231679 0.123201
H66   H     H_    0.412662 0.808807 0.321280 0.120776
H67   H     H_    0.396241 0.823099 0.414742 0.135727
H68   H     H_    0.366860 0.895640 0.418251 0.129914
C161  C     C_R   0.228123 0.427241 0.779381 0.171006
C162  C     C_R   0.234542 0.387886 0.752687 -0.140581
C163  C     C_R   0.258024 0.352901 0.802292 -0.134618
C164  C     C_R   0.275343 0.357089 0.878715 -0.106968
C165  C     C_R   0.269222 0.396290 0.905653 -0.138394
C166  C     C_R   0.245687 0.431318 0.856187 -0.154444
H69   H     H_    0.221589 0.384464 0.693718 0.118873
H70   H     H_    0.262893 0.322589 0.781535 0.127472
H71   H     H_    0.293565 0.329996 0.917074 0.123379
H72   H     H_    0.282723 0.399530 0.964859 0.127639
H73   H     H_    0.241121 0.461574 0.877557 0.125173
C167  C     C_R   0.771852 0.427313 0.220462 0.170790
C168  C     C_R   0.765591 0.387861 0.247150 -0.140479
C169  C     C_R   0.742083 0.352909 0.197481 -0.134680
C170  C     C_R   0.724568 0.357229 0.120993 -0.107000
C171  C     C_R   0.730522 0.396527 0.094057 -0.138389
C172  C     C_R   0.754091 0.431521 0.143590 -0.154494
H74   H     H_    0.778686 0.384338 0.306167 0.119060
H75   H     H_    0.737342 0.322520 0.218238 0.127492
H76   H     H_    0.706320 0.330163 0.082583 0.123383
H77   H     H_    0.716864 0.399872 0.034800 0.127638
H78   H     H_    0.758524 0.461854 0.122218 0.125202
C173  C     C_R   0.728148 0.927291 0.779462 0.170789
C174  C     C_R   0.734411 0.887861 0.752726 -0.140444
C175  C     C_R   0.757920 0.852893 0.802351 -0.134681
C176  C     C_R   0.775431 0.857172 0.878842 -0.107005
C177  C     C_R   0.769474 0.896447 0.905826 -0.138383
C178  C     C_R   0.745905 0.931458 0.856337 -0.154522
H79   H     H_    0.721319 0.884370 0.693705 0.119074
H80   H     H_    0.762664 0.822523 0.781557 0.127492
H81   H     H_    0.793679 0.830093 0.917218 0.123385
H82   H     H_    0.783128 0.899760 0.965085 0.127642
H83   H     H_    0.741469 0.961772 0.877746 0.125203
C179  C     C_R   0.271851 0.927288 0.220547 0.170809
C180  C     C_R   0.265567 0.887868 0.247279 -0.140451
C181  C     C_R   0.242060 0.852897 0.197656 -0.134675
C182  C     C_R   0.224572 0.857165 0.121173 -0.106998
C183  C     C_R   0.230552 0.896430 0.094195 -0.138387
C184  C     C_R   0.254118 0.931443 0.143680 -0.154525
H84   H     H_    0.278643 0.884385 0.306293 0.119058
H85   H     H_    0.237298 0.822534 0.218445 0.127490
H86   H     H_    0.206326 0.830085 0.082799 0.123385
H87   H     H_    0.216918 0.899734 0.034942 0.127642
H88   H     H_    0.258572 0.961750 0.122277 0.125200
C185  C     C_R   0.024201 0.273755 0.412079 0.120089
C186  C     C_R   0.061026 0.245396 0.447916 -0.136395
C187  C     C_R   0.073322 0.223655 0.405962 -0.130156
C188  C     C_R   0.049294 0.230392 0.328160 -0.104349
C189  C     C_R   0.013085 0.259094 0.292264 -0.131676
C190  C     C_R   0.000651 0.280874 0.334005 -0.173001
H89   H     H_    0.080385 0.240373 0.508318 0.120777
H90   H     H_    0.101587 0.201706 0.433826 0.132728
H91   H     H_    0.058868 0.213555 0.295756 0.131188
H92   H     H_    0.994652 0.264491 0.232065 0.131156
H93   H     H_    0.972584 0.303059 0.305394 0.120737
C191  C     C_R   0.975845 0.273749 0.587974 0.120123
C192  C     C_R   0.939012 0.245400 0.552142 -0.136377
C193  C     C_R   0.926726 0.223654 0.594107 -0.130150
C194  C     C_R   0.950772 0.230377 0.671915 -0.104352
C195  C     C_R   0.986990 0.259068 0.707806 -0.131681
C196  C     C_R   0.999415 0.280853 0.666054 -0.172987
H94   H     H_    0.919641 0.240387 0.491737 0.120789
H95   H     H_    0.898454 0.201712 0.566247 0.132731
H96   H     H_    0.941205 0.213535 0.704327 0.131191
H97   H     H_    0.005439 0.264452 0.768010 0.131160
H98   H     H_    0.027491 0.303028 0.694661 0.120691
C197  C     C_R   0.524048 0.773752 0.411872 0.120098
C198  C     C_R   0.560876 0.745398 0.447626 -0.136383
C199  C     C_R   0.573104 0.723654 0.405579 -0.130143
C200  C     C_R   0.549006 0.730383 0.327767 -0.104343
C201  C     C_R   0.512793 0.759080 0.291952 -0.131696
C202  C     C_R   0.500426 0.780863 0.333786 -0.173008
H99   H     H_    0.580287 0.740379 0.508034 0.120801
H100  H     H_    0.601372 0.701707 0.433380 0.132740
H101  H     H_    0.558529 0.713542 0.295291 0.131187
H102  H     H_    0.494305 0.764470 0.231744 0.131158
H103  H     H_    0.472354 0.803043 0.305237 0.120750
C203  C     C_R   0.475944 0.773751 0.588122 0.120094
C204  C     C_R   0.439117 0.745393 0.552366 -0.136386
C205  C     C_R   0.426885 0.723648 0.594408 -0.130146
C206  C     C_R   0.450978 0.730380 0.672219 -0.104346
C207  C     C_R   0.487190 0.759081 0.708036 -0.131693
C208  C     C_R   0.499560 0.780864 0.666207 -0.173009
H104  H     H_    0.419710 0.740372 0.491958 0.120802
H105  H     H_    0.398618 0.701699 0.566605 0.132735
H106  H     H_    0.441453 0.713540 0.704691 0.131182
H107  H     H_    0.505674 0.764474 0.768243 0.131157
H108  H     H_    0.527631 0.803048 0.694758 0.120751
C209  C     C_R   0.477473 0.366026 0.365639 0.096665
C210  C     C_R   0.435240 0.384857 0.318227 -0.100688
C211  C     C_R   0.422415 0.404687 0.250309 -0.133247
C212  C     C_R   0.451464 0.405404 0.229025 -0.104590
C213  C     C_R   0.493525 0.386590 0.275915 -0.155027
C214  C     C_R   0.506524 0.366836 0.344018 -0.166208
H109  H     H_    0.412153 0.383719 0.333493 0.135780
H110  H     H_    0.389843 0.419192 0.213902 0.124886
H111  H     H_    0.441320 0.420467 0.176130 0.139234
H112  H     H_    0.515971 0.387114 0.259313 0.131196
H113  H     H_    0.539031 0.352020 0.379675 0.130869
C215  C     C_R   0.522524 0.366024 0.634358 0.096666
C216  C     C_R   0.564758 0.384855 0.681773 -0.100672
C217  C     C_R   0.577581 0.404685 0.749691 -0.133266
C218  C     C_R   0.548531 0.405403 0.770971 -0.104613
C219  C     C_R   0.506468 0.386590 0.724077 -0.155015
C220  C     C_R   0.493470 0.366836 0.655975 -0.166212
H114  H     H_    0.587845 0.383715 0.666510 0.135777
H115  H     H_    0.610155 0.419188 0.786100 0.124853
H116  H     H_    0.558674 0.420466 0.823865 0.139204
H117  H     H_    0.484021 0.387116 0.740676 0.131186
H118  H     H_    0.460962 0.352021 0.620316 0.130864
C221  C     C_R   0.977468 0.866025 0.365638 0.096667
C222  C     C_R   0.935233 0.884853 0.318222 -0.100669
C223  C     C_R   0.922409 0.904683 0.250304 -0.133270
C224  C     C_R   0.951460 0.905404 0.229024 -0.104606
C225  C     C_R   0.993523 0.886594 0.275919 -0.155011
C226  C     C_R   0.006522 0.866840 0.344022 -0.166216
H119  H     H_    0.912146 0.883711 0.333485 0.135774
H120  H     H_    0.889836 0.919184 0.213894 0.124860
H121  H     H_    0.941316 0.920467 0.176130 0.139208
H122  H     H_    0.015970 0.887122 0.259320 0.131188
H123  H     H_    0.039030 0.852028 0.379681 0.130866
C227  C     C_R   0.022528 0.866025 0.634362 0.096664
C228  C     C_R   0.064763 0.884855 0.681773 -0.100672
C229  C     C_R   0.077589 0.904686 0.749691 -0.133261
C230  C     C_R   0.048541 0.905406 0.770975 -0.104607
C231  C     C_R   0.006478 0.886593 0.724086 -0.155015
C232  C     C_R   0.993477 0.866838 0.655983 -0.166211
H124  H     H_    0.087848 0.883714 0.666505 0.135777
H125  H     H_    0.110162 0.919190 0.786096 0.124862
H126  H     H_    0.058686 0.920471 0.823870 0.139211
H127  H     H_    0.984033 0.887119 0.740689 0.131191
H128  H     H_    0.960969 0.852023 0.620328 0.130868
C233  C     C_R   0.079616 0.727330 0.613258 0.209286
C234  C     C_R   0.101430 0.753460 0.590798 -0.126903
C235  C     C_R   0.139016 0.777670 0.644233 -0.142904
C236  C     C_R   0.155172 0.775828 0.720348 -0.112010
C237  C     C_R   0.133838 0.749669 0.743189 -0.145388
C238  C     C_R   0.096208 0.725436 0.689931 -0.096184
H129  H     H_    0.089078 0.755330 0.531918 0.127555
H130  H     H_    0.155545 0.797960 0.626602 0.132168
H131  H     H_    0.184208 0.794682 0.761620 0.127404
H132  H     H_    0.146334 0.748345 0.802131 0.132587
H133  H     H_    0.079593 0.705769 0.708153 0.138058
C239  C     C_R   0.920374 0.727324 0.386739 0.209283
C240  C     C_R   0.898558 0.753448 0.409200 -0.126904
C241  C     C_R   0.860970 0.777655 0.355766 -0.142896
C242  C     C_R   0.844813 0.775816 0.279651 -0.112005
C243  C     C_R   0.866149 0.749662 0.256809 -0.145401
C244  C     C_R   0.903781 0.725432 0.310066 -0.096205
H134  H     H_    0.910909 0.755316 0.468080 0.127560
H135  H     H_    0.844438 0.797940 0.373397 0.132172
H136  H     H_    0.815775 0.794667 0.238379 0.127406
H137  H     H_    0.853654 0.748340 0.197867 0.132585
H138  H     H_    0.920398 0.705770 0.291844 0.138053
C245  C     C_R   0.579617 0.227329 0.613268 0.209280
C246  C     C_R   0.601435 0.253458 0.590815 -0.126901
C247  C     C_R   0.639020 0.277667 0.644254 -0.142902
C248  C     C_R   0.655173 0.275825 0.720367 -0.112006
C249  C     C_R   0.633835 0.249667 0.743202 -0.145392
C250  C     C_R   0.596206 0.225434 0.689940 -0.096190
H139  H     H_    0.589086 0.255328 0.531936 0.127559
H140  H     H_    0.655553 0.297955 0.626628 0.132173
H141  H     H_    0.684209 0.294678 0.761642 0.127406
H142  H     H_    0.646327 0.248342 0.802142 0.132586
H143  H     H_    0.579587 0.205769 0.708157 0.138060
C251  C     C_R   0.420381 0.227326 0.386729 0.209285
C252  C     C_R   0.398561 0.253450 0.409182 -0.126901
C253  C     C_R   0.360975 0.277658 0.355743 -0.142903
C254  C     C_R   0.344824 0.275818 0.279631 -0.112005
C255  C     C_R   0.366163 0.249665 0.256796 -0.145389
C256  C     C_R   0.403793 0.225433 0.310058 -0.096192
H144  H     H_    0.410909 0.255318 0.468061 0.127557
H145  H     H_    0.344441 0.297943 0.373369 0.132167
H146  H     H_    0.315788 0.294670 0.238356 0.127400
H147  H     H_    0.353672 0.248341 0.197856 0.132585
H148  H     H_    0.420413 0.205771 0.291841 0.138056
O53   O     O_3   0.076607 0.636201 0.614874 -0.746055
H149  H     H_    0.072110 0.604049 0.614596 0.341868
O54   O     O_3   0.923388 0.636195 0.385121 -0.746182
H150  H     H_    0.927890 0.604045 0.385389 0.341782
O55   O     O_3   0.576606 0.136200 0.614885 -0.746093
H151  H     H_    0.572107 0.104048 0.614607 0.341849
O56   O     O_3   0.423394 0.136197 0.385110 -0.746097
H152  H     H_    0.427895 0.104046 0.385381 0.341846
O57   O     O_3   0.362409 0.554819 0.950973 -0.767763
H153  H     H_    0.392339 0.543258 0.989374 0.326730
O58   O     O_3   0.637592 0.554941 0.049175 -0.767702
H154  H     H_    0.607685 0.543352 0.010713 0.326736
O59   O     O_3   0.862422 0.054897 0.950901 -0.767719
H155  H     H_    0.892334 0.043309 0.989340 0.326724
O60   O     O_3   0.137581 0.054890 0.049091 -0.767726
H156  H     H_    0.107667 0.043305 0.010657 0.326726
O61   O     O_3   0.228611 0.573283 0.682608 -0.755390
H157  H     H_    0.209039 0.596784 0.647172 0.389180
O62   O     O_3   0.771404 0.573247 0.317588 -0.755395
H158  H     H_    0.790980 0.596723 0.353091 0.389169
O63   O     O_3   0.728595 0.073299 0.682544 -0.755402
H159  H     H_    0.709018 0.096787 0.647078 0.389180
O64   O     O_3   0.271407 0.073299 0.317452 -0.755402
H160  H     H_    0.290985 0.096790 0.352913 0.389178

loop_
_geom_bond_atom_site_label_1
_geom_bond_atom_site_label_2
_ccdc_geom_bond_type
C235  C236  A    
C11   H35   S    
C147  H57   S    
C55   C59   A    
O45   Zn9   S    
C233  C234  A    
C9    H33   S    
C214  H113  S    
C252  C253  A    
C185  C186  A    
C12   H36   S    
O53   H149  S    
C77   C89   A    
C155  C156  A    
C176  H81   S    
C157  C158  A    
C70   O48   A    
C104  C117  A    
C190  H93   S    
C198  H99   S    
C63   C129  S    
C86   C88   A    
C34   O62   S    
C149  C150  A    
C250  H143  S    
C96   C99   A    
C128  C132  D    
C205  C206  A    
C152  C153  A    
C104  H14   S    
C9    C13   A    
C84   C215  S    
C79   C90   A    
C80   C86   A    
C8    H32   S    
C65   C131  S    
C11   C15   A    
C141  H52   S    
C12   C16   A    
C13   O57   S    
C150  C151  A    
C165  H72   S    
C3    C19   S    
C179  C180  A    
C230  H126  S    
C156  H64   S    
O51   H47   S    
C106  C118  A    
C103  C117  A    
O10   Zn9   S    
O33   Zn5   S    
C41   C49   A    
C107  H21   S    
C78   C89   A    
C25   C29   A    
C105  H15   S    
C115  C123  A    
C183  C184  A    
C27   C31   A    
C28   C32   A    
C188  C189  A    
C251  C252  A    
C1    O1    A    
C194  H96   S    
C240  C241  A    
C62   C88   S    
C69   C119  S    
C17   C21   A    
C174  C175  A    
O37   Zn6   S    
C19   C23   A    
C148  H58   S    
C16   O60   S    
C181  H85   S    
O8    Zn12  S    
C76   O15   A    
C10   C30   A    
C248  H141  S    
C189  H92   S    
C195  C196  A    
C48   O28   A    
C42   C72   S    
C169  C170  A    
C44   C74   S    
C28   H44   S    
O3    Zn2   S    
C220  H118  S    
O28   Zn4   S    
C159  H67   S    
C164  C165  A    
C21   H37   S    
C209  C210  A    
C105  C118  A    
C211  C212  A    
C24   H40   S    
C79   C85   A    
C239  C240  A    
C249  H142  S    
C136  H28   S    
O42   Zn6   S    
O26   Zn3   S    
C135  H27   S    
C127  C135  S    
C76   C100  S    
C216  C217  A    
C151  H60   S    
C108  C111  A    
C229  C230  A    
C63   O37   A    
C78   H6    S    
C153  H62   S    
C144  H54   S    
C98   O56   S    
C246  C247  A    
C139  H50   S    
C50   C143  S    
C142  H53   S    
C83   C209  S    
C49   C53   A    
C191  C192  A    
O31   Zn7   S    
C95   C99   A    
C207  H107  S    
C122  H10   S    
C193  C194  A    
C77   H5    S    
C217  C218  A    
C82   C116  A    
C231  H127  S    
C4    C20   S    
C125  C129  D    
C126  C134  S    
C204  H104  S    
C197  C198  A    
C34   C58   A    
C126  C130  D    
C243  H137  S    
C103  C107  A    
O20   Zn4   S    
C223  C224  A    
C204  C205  A    
C140  C141  A    
C43   C73   S    
C199  H100  S    
C192  C193  A    
C201  H102  S    
C115  C197  S    
C194  C195  A    
C69   O46   A    
C203  C204  A    
C113  C185  S    
C244  H138  S    
C237  C238  A    
C5    C133  D    
C38   O50   S    
C86   C227  S    
C137  C138  A    
C161  C162  A    
C21   C25   A    
O15   Zn11  S    
C82   C115  A    
C65   O35   A    
C141  C142  A    
C95   O53   S    
C97   O55   S    
C200  C201  A    
C31   C59   S    
C186  H89   S    
C168  H74   S    
C92   C96   A    
C170  H76   S    
C68   C112  S    
C161  C166  A    
C67   O41   A    
C207  C208  A    
O24   Zn2   S    
C61   C87   S    
C241  C242  A    
C255  H147  S    
C79   H7    S    
C70   C120  S    
C147  C148  A    
C80   H8    S    
C81   C114  A    
C233  C238  A    
C197  C202  A    
C184  H88   S    
C51   C55   A    
C185  C190  A    
C41   C71   S    
C44   C52   A    
O21   Zn1   S    
C187  H90   S    
C155  C160  A    
C68   O44   A    
C71   O5    A    
C72   O10   A    
C198  C199  A    
O32   Zn8   S    
C127  C131  D    
C119  C121  A    
C149  C154  A    
C37   O49   S    
C205  H105  S    
C152  H61   S    
C222  C223  A    
C10   C14   A    
C145  H55   S    
C65   O39   A    
O18   Zn3   S    
C246  H139  S    
C171  H77   S    
C63   O33   A    
C202  H103  S    
O61   H157  S    
C218  H116  S    
O60   H156  S    
C182  H86   S    
C75   C99   S    
O59   H155  S    
C130  H18   S    
O14   Zn10  S    
C36   O64   S    
C94   C102  A    
C96   O54   S    
C42   C50   A    
O22   Zn1   S    
C64   C130  S    
C26   C30   A    
C183  H87   S    
C256  H148  S    
O25   Zn3   S    
C188  H91   S    
C109  H23   S    
C93   C97   A    
C40   O52   S    
C110  H24   S    
C236  C237  A    
C85   C88   A    
O11   Zn12  S    
C46   O26   A    
O54   H150  S    
C7    H31   S    
C226  H123  S    
C62   O32   A    
C92   C239  S    
O41   Zn5   S    
C18   C22   A    
C107  C111  A    
C1    O17   A    
C24   C28   A    
O38   Zn5   S    
C181  C182  A    
O23   Zn2   S    
C145  C146  A    
C215  C220  A    
C48   O24   A    
C1    C17   S    
C169  H75   S    
C13   C17   A    
C221  C226  A    
C128  H4    S    
C162  H69   S    
C212  H111  S    
C129  H17   S    
C210  H109  S    
C132  H20   S    
C241  H135  S    
C37   C41   A    
C110  C112  A    
C239  C244  A    
C91   C95   A    
C249  C250  A    
C75   O14   A    
C4    O20   A    
C113  C121  A    
C247  C248  A    
C156  C157  A    
C160  H68   S    
O64   H160  S    
C3    O3    A    
C238  H133  S    
C236  H131  S    
C83   C87   A    
C216  H114  S    
C6    H30   S    
C210  C211  A    
C8    C136  D    
O40   Zn7   S    
O58   H154  S    
C97   C100  A    
C139  C140  A    
O34   Zn6   S    
C15   C19   A    
C124  H12   S    
C50   C54   A    
C27   H43   S    
C56   C179  S    
C217  H115  S    
C128  C136  S    
C106  C110  A    
C162  C163  A    
C25   H41   S    
O27   Zn4   S    
C23   H39   S    
C234  C235  A    
C94   C98   A    
O50   H46   S    
C243  C244  A    
C35   C59   A    
C182  C183  A    
C245  C250  A    
C66   O40   A    
C76   O16   A    
C201  C202  A    
C203  C208  A    
C120  C123  A    
C49   C137  S    
C137  C142  A    
C2    O18   A    
C167  C172  A    
O9    Zn10  S    
C73   O7    A    
C140  H51   S    
C74   O8    A    
C200  H101  S    
O17   Zn3   S    
C228  H124  S    
C146  H56   S    
C170  C171  A    
C106  H16   S    
C70   O47   A    
C163  C164  A    
C53   C57   A    
C255  C256  A    
C143  C144  A    
C125  H1    S    
C138  C139  A    
C208  H108  S    
C5    C45   S    
C81   C118  S    
C33   C37   A    
C245  C246  A    
C7    C47   S    
C35   C39   A    
C242  C243  A    
C8    C48   S    
O57   H153  S    
C55   C173  S    
C187  C188  A    
O52   H48   S    
O47   Zn11  S    
C173  C178  A    
C47   O23   A    
C61   O29   A    
C178  H83   S    
C219  C220  A    
C72   O6    A    
C219  H117  S    
C92   C101  A    
C35   O63   S    
C67   C111  S    
C29   C57   S    
C174  H79   S    
C98   C100  A    
C251  C256  A    
C227  C228  A    
O36   Zn8   S    
C222  H119  S    
C32   C60   S    
C104  C108  A    
C213  C214  A    
C177  H82   S    
C45   O25   A    
C116  C124  A    
C229  H125  S    
C215  C216  A    
C69   O45   A    
C93   C102  A    
O7    Zn11  S    
C218  C219  A    
O48   Zn12  S    
C163  H70   S    
C61   O30   A    
C10   H34   S    
C252  H144  S    
C64   O38   A    
C131  H19   S    
O44   Zn8   S    
O4    Zn2   S    
C180  C181  A    
C242  H136  S    
C43   C51   A    
C144  C145  A    
C105  C109  A    
C33   O61   S    
O30   Zn6   S    
C103  H13   S    
C177  C178  A    
C56   C60   A    
C46   O22   A    
C54   C58   A    
C253  C254  A    
C168  C169  A    
C22   C26   A    
C254  C255  A    
C81   C113  A    
C224  C225  A    
C82   C117  S    
C143  C148  A    
C150  H59   S    
O46   Zn10  S    
C51   C149  S    
C89   C102  S    
C2    C18   S    
C165  C166  A    
C14   C18   A    
C221  C222  A    
C84   C87   A    
O19   Zn4   S    
C237  H132  S    
C212  C213  A    
C230  C231  A    
C189  C190  A    
C158  C159  A    
C193  H95   S    
C64   O34   A    
O49   H45   S    
C223  H120  S    
C180  H84   S    
C108  H22   S    
C154  H63   S    
C77   C83   A    
C247  H140  S    
C30   C58   S    
C2    O2    A    
C211  H110  S    
C120  C124  A    
C20   C24   A    
O1    Zn1   S    
C253  H145  S    
C3    O19   A    
C225  C226  A    
C23   C27   A    
O63   H159  S    
C91   C101  A    
C196  H98   S    
C16   C20   A    
C166  H73   S    
C248  C249  A    
C11   C31   A    
C39   O51   S    
C195  H97   S    
C12   C32   A    
C66   O36   A    
C127  H3    S    
C209  C214  A    
C53   C161  S    
C22   H38   S    
C191  C196  A    
C66   C132  S    
C234  H129  S    
C26   H42   S    
C164  H71   S    
O5    Zn9   S    
C235  H130  S    
C85   C221  S    
C36   C40   A    
O35   Zn7   S    
C109  C112  A    
C54   C167  S    
O56   H152  S    
C159  C160  A    
O12   Zn11  S    
C39   C43   A    
O55   H151  S    
C158  H66   S    
C71   O9    A    
C134  H26   S    
C67   O42   A    
C206  H106  S    
C90   C101  S    
C7    C135  D    
C176  C177  A    
O2    Zn1   S    
C228  C229  A    
C40   C44   A    
C62   O31   A    
C151  C152  A    
C225  H122  S    
C4    O4    A    
O13   Zn9   S    
C73   O11   A    
O43   Zn7   S    
C227  C232  A    
C15   O59   S    
C74   O12   A    
C75   O13   A    
C167  C168  A    
C153  C154  A    
C123  H11   S    
C5    H29   S    
C121  H9    S    
C68   O43   A    
O62   H158  S    
C171  C172  A    
C231  C232  A    
O16   Zn12  S    
C119  C122  A    
C125  C133  S    
C138  H49   S    
C126  H2    S    
C33   C57   A    
C6    C46   S    
C34   C38   A    
O39   Zn8   S    
C36   C60   A    
C133  H25   S    
C157  H65   S    
C240  H134  S    
C94   C251  S    
C9    C29   A    
C199  C200  A    
C47   O27   A    
C224  H121  S    
C146  C147  A    
C232  H128  S    
C173  C174  A    
C6    C134  D    
C206  C207  A    
C172  H78   S    
C254  H146  S    
C192  H94   S    
C93   C245  S    
C80   C90   A    
C175  C176  A    
O29   Zn5   S    
C91   C233  S    
C52   C155  S    
C213  H112  S    
C114  C122  A    
C38   C42   A    
C78   C84   A    
C14   O58   S    
C45   O21   A    
C186  C187  A    
C179  C184  A    
C175  H80   S    
C116  C203  S    
O6    Zn10  S    
C52   C56   A    
C114  C191  S    
