data_mof_unit_49522.cif
_audit_creation_date              2012-12-11T15:27:46-0500
_audit_creation_method            fapswitch 2.2
_symmetry_space_group_name_H-M    P1
_symmetry_Int_Tables_number       1
_space_group_crystal_system       triclinic
_cell_length_a                    23.353577
_cell_length_b                    7.393703
_cell_length_c                    15.079701
_cell_angle_alpha                 90.0
_cell_angle_beta                  108.27911
_cell_angle_gamma                 90.001205
_cell_volume                      2472.41493329

loop_
_atom_site_label
_atom_site_type_symbol
_atom_type_description
_atom_site_fract_x
_atom_site_fract_y
_atom_site_fract_z
_atom_type_partial_charge
O1    O     O_R   0.711000 0.648610 0.341170 -0.547261
O2    O     O_R   0.289000 0.351390 0.658830 -0.559302
O3    O     O_R   0.789000 0.148610 0.158830 -0.547261
O4    O     O_R   0.211000 0.851390 0.841170 -0.559318
O5    O     O_R   0.829650 0.322030 0.336650 -0.538327
O6    O     O_R   0.170350 0.677970 0.663350 -0.548826
O7    O     O_R   0.670350 0.822030 0.163350 -0.538328
O8    O     O_R   0.329650 0.177970 0.836650 -0.548819
C1    C     C_R   0.854275 0.485514 0.356085 0.717183
C2    C     C_R   0.146077 0.513833 0.642649 0.717302
C3    C     C_R   0.645726 0.985512 0.143914 0.717202
C4    C     C_R   0.353924 0.013833 0.857348 0.717310
O9    O     O_R   0.713950 0.319280 0.352070 -0.543024
O10   O     O_R   0.286050 0.680720 0.647930 -0.512658
O11   O     O_R   0.786050 0.819280 0.147930 -0.543028
O12   O     O_R   0.213950 0.180720 0.852070 -0.512660
O13   O     O_R   0.672470 0.142870 0.174360 -0.531973
O14   O     O_R   0.327530 0.857130 0.825640 -0.528600
O15   O     O_R   0.827530 0.642870 0.325640 -0.531975
O16   O     O_R   0.172470 0.357130 0.674360 -0.528609
C5    C     C_R   0.702593 0.487088 0.376468 0.855671
C6    C     C_R   0.298718 0.513461 0.624814 0.796043
C7    C     C_R   0.797409 0.987090 0.123535 0.855672
C8    C     C_R   0.201281 0.013461 0.875186 0.796044
O17   O     O_3   0.736530 0.478650 0.191680 -0.397342
O18   O     O_3   0.263470 0.521350 0.808320 -0.386312
O19   O     O_3   0.763470 0.978650 0.308320 -0.397338
O20   O     O_3   0.236530 0.021350 0.691680 -0.386312
V1    V     V_3+5 0.752500 0.206170 0.260820 1.391139
V2    V     V_3+5 0.247500 0.793830 0.739180 1.434827
V3    V     V_3+5 0.747500 0.706170 0.239180 1.391136
V4    V     V_3+5 0.252500 0.293830 0.760820 1.434849
C9    C     C_R   0.826125 0.993541 0.050201 -0.296982
C10   C     C_R   0.170717 0.009226 0.946923 -0.292609
C11   C     C_R   0.673881 0.493532 0.449805 -0.296960
C12   C     C_R   0.329286 0.509220 0.553082 -0.292548
C13   C     C_R   0.820864 0.035173 0.889103 0.356722
C14   C     C_R   0.175613 0.012440 0.109353 0.399419
C15   C     C_R   0.679146 0.535143 0.610908 0.356710
C16   C     C_R   0.324395 0.512426 0.390657 0.399542
C17   C     C_R   0.792735 0.040517 0.958817 0.264686
C18   C     C_R   0.204627 0.019285 0.041377 0.301595
C19   C     C_R   0.707273 0.540500 0.541190 0.264682
C20   C     C_R   0.295379 0.519313 0.458628 0.301529
C21   C     C_R   0.887541 0.950967 0.072802 0.390964
C22   C     C_R   0.107422 0.020012 0.919188 0.350859
C23   C     C_R   0.612466 0.450945 0.427208 0.390975
C24   C     C_R   0.392582 0.519965 0.580824 0.350850
C25   C     C_R   0.919712 0.998454 0.009506 -0.074247
C26   C     C_R   0.076583 0.032122 0.987671 -0.043902
C27   C     C_R   0.580296 0.498409 0.490510 -0.074242
C28   C     C_R   0.423425 0.532068 0.512345 -0.043934
C29   C     C_R   0.884546 0.030851 0.915167 -0.117519
C30   C     C_R   0.111857 0.012230 0.083093 -0.127688
C31   C     C_R   0.615465 0.530805 0.584847 -0.117519
C32   C     C_R   0.388153 0.512191 0.416922 -0.127632
C33   C     C_R   0.984364 0.020195 0.036277 -0.051035
C34   C     C_R   0.012258 0.052938 0.965725 -0.051662
C35   C     C_R   0.515645 0.520140 0.463740 -0.051036
C36   C     C_R   0.487751 0.552872 0.534293 -0.051665
C37   C     C_R   0.974574 0.120783 0.879208 0.457976
C38   C     C_R   0.021129 0.032431 0.131072 0.444462
C39   C     C_R   0.525437 0.620710 0.620812 0.457975
C40   C     C_R   0.478882 0.532384 0.368945 0.444527
C41   C     C_R   0.912957 0.084196 0.851056 -0.243078
C42   C     C_R   0.083665 0.009274 0.152278 -0.259677
C43   C     C_R   0.587055 0.584138 0.648961 -0.243071
C44   C     C_R   0.416345 0.509245 0.347740 -0.259604
H1    H     H_    0.886651 0.119941 0.780917 0.179117
H2    H     H_    0.110925 0.990768 0.223889 0.182146
H3    H     H_    0.613361 0.619892 0.719098 0.179102
H4    H     H_    0.389081 0.490794 0.276131 0.182073
C45   C     C_1   0.416023 0.004435 0.921110 -0.226485
C46   C     C_1   0.582727 0.991628 0.083310 -0.183432
C47   C     C_1   0.083979 0.504439 0.578881 -0.226450
C48   C     C_1   0.917274 0.491636 0.416686 -0.183418
C49   C     C_1   0.468191 0.998712 0.973254 -0.041751
C50   C     C_1   0.530061 0.994790 0.033117 -0.005693
C51   C     C_1   0.031812 0.498723 0.526736 -0.041760
C52   C     C_1   0.969941 0.494801 0.466875 -0.005687
O21   O     O_3   0.078715 0.049543 0.825539 -0.523822
C53   C     C_3   0.061561 0.885509 0.777537 0.119826
H5    H     H_    0.019598 0.835464 0.788655 0.104583
H6    H     H_    0.096721 0.778610 0.800891 0.072748
C54   C     C_3   0.050960 0.920851 0.673592 -0.281910
H7    H     H_    0.093255 0.971941 0.663524 0.199342
H8    H     H_    0.038900 0.793154 0.634794 0.150134
C55   C     C_3   0.000391 0.056610 0.632382 -0.648691
H9    H     H_    0.958791 0.014455 0.647432 0.207235
H10   H     H_    0.990477 0.063389 0.555475 0.197809
H11   H     H_    0.014206 0.193359 0.661624 0.273720
O22   O     O_3   0.913375 0.861437 0.156746 -0.542808
C56   C     C_3   0.932512 0.687467 0.140361 0.125844
H12   H     H_    0.955841 0.624971 0.209265 0.128419
H13   H     H_    0.966115 0.693251 0.102013 0.108321
C57   C     C_3   0.878865 0.568174 0.089007 -0.369103
H14   H     H_    0.849292 0.547321 0.133162 0.218246
H15   H     H_    0.851923 0.630711 0.021900 0.198191
C58   C     C_3   0.900530 0.388038 0.066692 -0.812785
H16   H     H_    0.862623 0.324440 0.013106 0.221264
H17   H     H_    0.914128 0.304798 0.130857 0.273243
H18   H     H_    0.938656 0.402133 0.037941 0.229327
O23   O     O_3   0.421288 0.549480 0.674474 -0.523818
C59   C     C_3   0.438441 0.385437 0.722465 0.119884
H19   H     H_    0.480388 0.335358 0.711309 0.104541
H20   H     H_    0.403267 0.278568 0.699134 0.072770
C60   C     C_3   0.449080 0.420779 0.826420 -0.281918
H21   H     H_    0.406799 0.471895 0.836527 0.199333
H22   H     H_    0.461140 0.293076 0.865211 0.150132
C61   C     C_3   0.499667 0.556509 0.867595 -0.648634
H23   H     H_    0.541243 0.514379 0.852466 0.207247
H24   H     H_    0.509629 0.563215 0.944512 0.197770
H25   H     H_    0.485843 0.693285 0.838399 0.273701
O24   O     O_3   0.586630 0.361414 0.343266 -0.542835
C62   C     C_3   0.567496 0.187436 0.359651 0.125786
H26   H     H_    0.544185 0.124920 0.290746 0.128424
H27   H     H_    0.533882 0.193216 0.397976 0.108361
C63   C     C_3   0.621142 0.068164 0.411038 -0.369203
H28   H     H_    0.650734 0.047332 0.366914 0.218273
H29   H     H_    0.648064 0.130702 0.478151 0.198215
C64   C     C_3   0.599480 0.888019 0.433334 -0.812792
H30   H     H_    0.637377 0.824428 0.486941 0.221259
H31   H     H_    0.585903 0.804781 0.369173 0.273267
H32   H     H_    0.561343 0.902109 0.462055 0.229360
O25   O     O_3   0.263330 0.080890 0.066545 -0.528078
C65   C     C_3   0.303470 0.935113 0.076033 0.156238
H33   H     H_    0.299761 0.876889 0.006555 0.057926
H34   H     H_    0.294920 0.825603 0.121184 0.173099
C66   C     C_3   0.367296 0.008450 0.118594 -0.331391
H35   H     H_    0.400035 0.910386 0.107402 0.137790
H36   H     H_    0.372402 0.134033 0.081445 0.210071
C67   C     C_3   0.381258 0.048981 0.222759 -0.640485
H37   H     H_    0.353697 0.164948 0.232692 0.291197
H38   H     H_    0.429682 0.083282 0.253845 0.163148
H39   H     H_    0.371405 0.929912 0.260458 0.242361
O26   O     O_3   0.732388 0.086562 0.938294 -0.566150
C68   C     C_3   0.722955 0.269379 0.907875 0.130453
H40   H     H_    0.683696 0.273218 0.843315 0.204008
H41   H     H_    0.761400 0.332338 0.890180 0.181631
C69   C     C_3   0.710008 0.386326 0.982607 -0.360613
H42   H     H_    0.674223 0.322931 0.006364 0.209836
H43   H     H_    0.752039 0.396818 0.042135 0.221739
C70   C     C_3   0.690531 0.576808 0.946968 -0.737253
H44   H     H_    0.727178 0.646255 0.927852 0.269198
H45   H     H_    0.680098 0.656608 0.002293 0.239135
H46   H     H_    0.649553 0.570582 0.885198 0.213560
O27   O     O_3   0.236694 0.581062 0.433459 -0.528134
C71   C     C_3   0.196501 0.435394 0.423932 0.156202
H47   H     H_    0.200139 0.377290 0.493413 0.057919
H48   H     H_    0.205060 0.325767 0.378846 0.173038
C72   C     C_3   0.132705 0.508875 0.381244 -0.331520
H49   H     H_    0.099910 0.410973 0.392393 0.137745
H50   H     H_    0.127612 0.634542 0.418333 0.210113
C73   C     C_3   0.118833 0.549254 0.277073 -0.639926
H51   H     H_    0.146602 0.664796 0.267142 0.291586
H52   H     H_    0.070448 0.584226 0.245948 0.163129
H53   H     H_    0.128521 0.429811 0.239408 0.242054
O28   O     O_3   0.767621 0.586546 0.561710 -0.566152
C74   C     C_3   0.777056 0.769362 0.592132 0.130460
H54   H     H_    0.816316 0.773195 0.656690 0.204002
H55   H     H_    0.738613 0.832318 0.609830 0.181627
C75   C     C_3   0.790003 0.886316 0.517400 -0.360616
H56   H     H_    0.825785 0.822923 0.493639 0.209835
H57   H     H_    0.747972 0.896815 0.457875 0.221737
C76   C     C_3   0.809484 0.076794 0.553042 -0.737271
H58   H     H_    0.772839 0.146242 0.572160 0.269210
H59   H     H_    0.819919 0.156600 0.497717 0.239128
H60   H     H_    0.850462 0.070559 0.614811 0.213573
Cl1   Cl    Cl    0.775304 0.054500 0.771163 -0.690834
Cl2   Cl    Cl    0.221406 0.023387 0.227827 -0.610593
Cl3   Cl    Cl    0.724708 0.554482 0.728846 -0.690846
Cl4   Cl    Cl    0.278604 0.523357 0.272176 -0.610713
O29   O     O_3   0.996715 0.242384 0.827865 -0.537335
C77   C     C_3   0.968161 0.413625 0.820641 0.091975
H61   H     H_    0.003751 0.517599 0.828654 0.139865
H62   H     H_    0.948980 0.441392 0.878399 0.086578
C78   C     C_3   0.918793 0.433645 0.725236 -0.307275
H63   H     H_    0.918604 0.314072 0.680770 0.207286
H64   H     H_    0.873759 0.442066 0.735541 0.231751
C79   C     C_3   0.927894 0.599879 0.671915 -0.799888
H65   H     H_    0.923480 0.724647 0.710132 0.217990
H66   H     H_    0.893661 0.601787 0.601712 0.250654
H67   H     H_    0.973017 0.593943 0.662765 0.231473
O30   O     O_3   0.993515 0.080065 0.197793 -0.555836
C80   C     C_3   0.031263 0.133027 0.286811 0.081492
H68   H     H_    0.006628 0.237519 0.313465 0.138527
H69   H     H_    0.073142 0.199417 0.284811 0.118317
C81   C     C_3   0.043221 0.972648 0.354250 -0.304110
H70   H     H_    0.000264 0.930347 0.365267 0.214154
H71   H     H_    0.060348 0.857057 0.323453 0.197374
C82   C     C_3   0.089136 0.020227 0.448188 -0.826810
H72   H     H_    0.133200 0.055101 0.439001 0.239861
H73   H     H_    0.095648 0.902388 0.495927 0.234677
H74   H     H_    0.072955 0.136297 0.480464 0.233118
O31   O     O_3   0.503298 0.742290 0.672162 -0.537337
C83   C     C_3   0.531835 0.913557 0.679364 0.091967
H75   H     H_    0.496240 0.017498 0.671375 0.139877
H76   H     H_    0.550993 0.941349 0.621583 0.086566
C84   C     C_3   0.581224 0.933609 0.774746 -0.307241
H77   H     H_    0.581435 0.814024 0.819220 0.207262
H78   H     H_    0.626248 0.942070 0.764403 0.231745
C85   C     C_3   0.572126 0.099833 0.828078 -0.799854
H79   H     H_    0.576528 0.224617 0.789859 0.217982
H80   H     H_    0.606366 0.101742 0.898272 0.250669
H81   H     H_    0.527011 0.093873 0.837251 0.231469
O32   O     O_3   0.506496 0.580083 0.302233 -0.555852
C86   C     C_3   0.468748 0.632852 0.213182 0.081409
H82   H     H_    0.493385 0.737255 0.186473 0.138652
H83   H     H_    0.426870 0.699291 0.215146 0.118410
C87   C     C_3   0.456787 0.472341 0.145829 -0.304235
H84   H     H_    0.499761 0.429775 0.134958 0.214297
H85   H     H_    0.439558 0.356939 0.176610 0.197372
C88   C     C_3   0.410971 0.519890 0.051795 -0.826778
H86   H     H_    0.366885 0.555031 0.060831 0.239814
H87   H     H_    0.404461 0.401962 0.004128 0.234693
H88   H     H_    0.427253 0.635773 0.019530 0.233111

loop_
_geom_bond_atom_site_label_1
_geom_bond_atom_site_label_2
_ccdc_geom_bond_type
O17   V3    S    
C70   H46   S    
O1    C5    A    
C65   H33   S    
O19   V1    S    
C9    C21   A    
O3    C7    A    
O27   C71   S    
C10   C18   A    
C69   C70   S    
C19   O28   S    
O15   V3    S    
C63   H29   S    
C59   H20   S    
O24   C62   S    
C80   H68   S    
C25   C33   A    
C33   C38   A    
C42   H2    S    
O29   C77   S    
O7    C3    A    
C68   H41   S    
C35   C40   A    
C76   H58   S    
C85   H80   S    
C36   C39   A    
C40   C44   A    
C81   H71   S    
C56   C57   S    
C69   H43   S    
C14   C18   A    
C87   H84   S    
C13   Cl1   S    
O4    C8    A    
C25   C29   A    
C44   H4    S    
C62   H26   S    
C22   O21   S    
C57   C58   S    
O1    V3    S    
C20   O27   S    
O13   V1    S    
O30   C80   S    
O2    V4    S    
C27   C31   A    
C72   C73   S    
O3    V1    S    
C21   O22   S    
C63   H28   S    
C64   H32   S    
C15   Cl3   S    
C28   C36   A    
C18   O25   S    
C61   H23   S    
C84   H77   S    
C1    O15   A    
C15   C31   A    
C58   H16   S    
C2    O16   A    
C67   H37   S    
C78   H64   S    
C85   H81   S    
C57   H15   S    
O2    C6    A    
C84   C85   S    
C72   H49   S    
C74   H55   S    
C14   Cl2   S    
C10   C22   A    
C1    C48   S    
C11   C19   A    
C16   C20   A    
C73   H52   S    
C79   H67   S    
C49   C50   S    
C66   C67   S    
C13   C29   A    
C62   C63   S    
C34   C37   A    
O11   C7    A    
C11   C23   A    
C35   C36   A    
O12   C8    A    
C16   C32   A    
C4    C45   S    
C59   C60   S    
C60   H22   S    
C76   H59   S    
O10   V2    S    
C83   C84   S    
C59   H19   S    
C79   H66   S    
O21   C53   S    
C75   H57   S    
C54   H8    S    
C68   C69   S    
C39   C43   A    
O7    V3    S    
C85   H79   S    
C38   C42   A    
C23   O24   S    
C82   H72   S    
C26   C34   A    
C88   H86   S    
C71   C72   S    
C37   O29   S    
C69   H42   S    
C73   H53   S    
C83   H76   S    
O32   C86   S    
C83   H75   S    
C80   C81   S    
C15   C19   A    
C65   C66   S    
C7    C9    S    
C54   H7    S    
C24   O23   S    
C40   O32   S    
C8    C10   S    
C86   H82   S    
C81   H70   S    
C63   C64   S    
O8    V4    S    
C82   H73   S    
O5    C1    A    
C37   C41   A    
C86   C87   S    
C75   C76   S    
C2    C47   S    
C31   C43   A    
C74   H54   S    
C77   C78   S    
C55   H11   S    
C21   C25   A    
O8    C4    A    
C78   C79   S    
C57   H14   S    
C64   H30   S    
C74   C75   S    
O9    C5    A    
C56   H12   S    
C26   C30   A    
C71   H47   S    
C61   H25   S    
C73   H51   S    
C5    C11   S    
C67   H38   S    
O6    V2    S    
C55   H10   S    
C53   H5    S    
C76   H60   S    
C53   H6    S    
C81   C82   S    
O28   C74   S    
C60   C61   S    
C39   O31   S    
C51   C52   S    
C12   C20   A    
C27   C35   A    
C60   H21   S    
C53   C54   S    
O5    V1    S    
C16   Cl4   S    
C29   C41   A    
C79   H65   S    
C54   C55   S    
C84   H78   S    
C75   H56   S    
O16   V4    S    
C88   H88   S    
O9    V1    S    
C70   H45   S    
C62   H27   S    
C3    O13   A    
C65   H34   S    
C58   H17   S    
C48   C52   T    
C71   H48   S    
O26   C68   S    
C3    C46   S    
O6    C2    A    
C23   C27   A    
O11   V3    S    
O18   V4    S    
O12   V4    S    
C87   C88   S    
C6    C12   S    
C68   H40   S    
C22   C26   A    
C87   H85   S    
C9    C17   A    
O10   C6    A    
O20   V2    S    
C70   H44   S    
C66   H35   S    
C88   H87   S    
C32   C44   A    
C33   C34   A    
O25   C65   S    
C67   H39   S    
C41   H1    S    
O22   C56   S    
C77   H62   S    
C12   C24   A    
C43   H3    S    
C72   H50   S    
C13   C17   A    
C61   H24   S    
C64   H31   S    
C80   H69   S    
O14   V2    S    
C38   O30   S    
O31   C83   S    
C14   C30   A    
C24   C28   A    
C58   H18   S    
C55   H9    S    
C56   H13   S    
C78   H63   S    
C46   C50   T    
C4    O14   A    
O23   C59   S    
C86   H83   S    
C45   C49   T    
C30   C42   A    
C47   C51   T    
C17   O26   S    
O4    V2    S    
C82   H74   S    
C28   C32   A    
C66   H36   S    
C77   H61   S    
