data_mof_unit_66047.cif
_audit_creation_date              2012-12-10T21:33:26-0500
_audit_creation_method            fapswitch 2.2
_symmetry_space_group_name_H-M    P1
_symmetry_Int_Tables_number       1
_space_group_crystal_system       triclinic
_cell_length_a                    14.162671
_cell_length_b                    16.100911
_cell_length_c                    16.897536
_cell_angle_alpha                 87.33213
_cell_angle_beta                  90.175018
_cell_angle_gamma                 92.10562
_cell_volume                      3846.39864644

loop_
_atom_site_label
_atom_site_type_symbol
_atom_type_description
_atom_site_fract_x
_atom_site_fract_y
_atom_site_fract_z
_atom_type_partial_charge
C1    C     C_R   0.497094 0.488632 0.652756 0.894569
C2    C     C_R   0.502906 0.511368 0.347244 0.894568
C3    C     C_R   0.518432 0.403008 0.860750 -0.189700
C4    C     C_R   0.481569 0.596992 0.139249 -0.189699
C5    C     C_R   0.519549 0.408645 0.778629 -0.293222
C6    C     C_R   0.480452 0.591355 0.221371 -0.293221
C7    C     C_R   0.465356 0.764464 0.453761 -0.035507
C8    C     C_R   0.534643 0.235536 0.546238 -0.035504
C9    C     C_R   0.467372 0.851472 0.456873 -0.355678
C10   C     C_R   0.532628 0.148528 0.543127 -0.355689
C11   C     C_R   0.515831 0.890607 0.519020 0.229472
C12   C     C_R   0.484169 0.109393 0.480979 0.229487
C13   C     C_R   0.560325 0.839854 0.576921 0.423469
C14   C     C_R   0.439676 0.160145 0.423078 0.423467
C15   C     C_R   0.558241 0.752820 0.570038 -0.083079
C16   C     C_R   0.441759 0.247180 0.429961 -0.083088
C17   C     C_R   0.671015 0.499775 0.499963 0.882591
C18   C     C_R   0.328985 0.500225 0.500037 0.882590
C19   C     C_1   0.772393 0.499406 0.499852 -0.210957
C20   C     C_1   0.227607 0.500594 0.500148 -0.210959
C21   C     C_1   0.857579 0.499464 0.499845 -0.010614
C22   C     C_1   0.142421 0.500536 0.500155 -0.010615
C23   C     C_1   0.957400 0.499814 0.499943 0.008876
C24   C     C_1   0.042600 0.500186 0.500058 0.008875
C25   C     C_R   0.488595 0.480640 0.738207 -0.152411
C26   C     C_R   0.511405 0.519359 0.261793 -0.152413
C27   C     C_R   0.449417 0.544657 0.780170 0.492361
C28   C     C_R   0.550581 0.455341 0.219830 0.492358
C29   C     C_R   0.450059 0.539044 0.862235 -0.255676
C30   C     C_R   0.549938 0.460954 0.137765 -0.255678
C31   C     C_R   0.487485 0.469310 0.902713 0.256668
C32   C     C_R   0.512514 0.530688 0.097287 0.256669
H1    H     H_    0.577395 0.410184 0.105965 0.167089
H2    H     H_    0.422600 0.589813 0.894035 0.167089
H3    H     H_    0.545693 0.348607 0.891862 0.153863
H4    H     H_    0.454309 0.651393 0.108138 0.153864
H5    H     H_    0.547762 0.358158 0.746880 0.178203
H6    H     H_    0.452241 0.641842 0.253119 0.178203
H7    H     H_    0.572455 0.265232 0.593608 0.147190
H8    H     H_    0.427544 0.734767 0.406392 0.147190
H9    H     H_    0.568820 0.112661 0.588871 0.195911
H10   H     H_    0.431179 0.887339 0.411128 0.195913
H11   H     H_    0.594697 0.713808 0.613118 0.160482
H12   H     H_    0.405302 0.286193 0.386883 0.160472
N1    N     N_2   0.497764 0.465130 0.985520 -0.183411
N2    N     N_2   0.502235 0.534869 0.014479 -0.183410
N3    N     N_R   0.510540 0.716920 0.509720 -0.104119
N4    N     N_R   0.489460 0.283080 0.490280 -0.104116
N5    N     N_2   0.521021 0.979244 0.526390 -0.138084
N6    N     N_2   0.478980 0.020756 0.473609 -0.138073
O1    O     O_R   0.496230 0.422540 0.612660 -0.628948
O2    O     O_R   0.503770 0.577460 0.387340 -0.628947
O3    O     O_R   0.503000 0.561840 0.618900 -0.566759
O4    O     O_R   0.497000 0.438160 0.381100 -0.566759
O5    O     O_R   0.622900 0.430330 0.496880 -0.595023
O6    O     O_R   0.377100 0.569670 0.503120 -0.595023
O7    O     O_R   0.629670 0.569640 0.503120 -0.595675
O8    O     O_R   0.370330 0.430360 0.496880 -0.595676
Zn1   Zn    Zn3+2 0.495480 0.406980 0.495830 0.958414
Zn2   Zn    Zn3+2 0.504520 0.593020 0.504170 0.958415
O9    O     O_3   0.584314 0.384696 0.258187 -0.604823
C33   C     C_3   0.681409 0.398545 0.273367 -0.287056
H13   H     H_    0.708386 0.342455 0.305244 0.195917
H14   H     H_    0.694034 0.452016 0.312022 0.147776
H15   H     H_    0.722105 0.408524 0.217255 0.153428
O10   O     O_3   0.415682 0.615301 0.741813 -0.604823
C34   C     C_3   0.318588 0.601449 0.726631 -0.287057
H16   H     H_    0.305967 0.547978 0.687974 0.147775
H17   H     H_    0.291609 0.657538 0.694754 0.195918
H18   H     H_    0.277891 0.591467 0.782742 0.153428
O11   O     O_3   0.610625 0.876185 0.637312 -0.601032
C35   C     C_3   0.560904 0.860501 0.708960 -0.291061
H19   H     H_    0.560151 0.793341 0.727721 0.178258
H20   H     H_    0.487441 0.882789 0.704506 0.163868
H21   H     H_    0.597533 0.895224 0.755979 0.194429
O12   O     O_3   0.389376 0.123812 0.362688 -0.601037
C36   C     C_3   0.439074 0.139524 0.291032 -0.291032
H22   H     H_    0.512556 0.117279 0.295474 0.163864
H23   H     H_    0.439774 0.206684 0.272273 0.178250
H24   H     H_    0.402460 0.104783 0.244018 0.194421

loop_
_geom_bond_atom_site_label_1
_geom_bond_atom_site_label_2
_ccdc_geom_bond_type
C4    H4    S    
C5    H5    S    
C27   C29   A    
C15   N3    A    
C16   N4    A    
C36   H22   S    
C9    H10   S    
C19   C21   T    
O5    Zn1   S    
C1    O3    A    
C33   H14   S    
O2    Zn2   S    
N3    Zn2   S    
C18   O8    A    
C23   C24   T    
C6    H6    S    
C8    H7    S    
C17   O5    A    
C33   H15   S    
C18   O6    A    
C28   O9    S    
O10   C34   S    
C10   H9    S    
C1    C25   S    
C35   H21   S    
C10   C12   A    
O3    Zn2   S    
O4    Zn1   S    
C36   H23   S    
C21   C23   S    
C34   H16   S    
O12   C36   S    
C4    C6    A    
C2    O4    A    
O7    Zn2   S    
C13   O11   S    
O8    Zn1   S    
N1    N2    D    
C29   H2    S    
O6    Zn2   S    
C34   H17   S    
C7    N3    A    
C8    N4    A    
C33   H13   S    
C11   N5    S    
C9    C11   A    
C3    H3    S    
C7    H8    S    
C2    C26   S    
C3    C31   A    
C1    O1    A    
C4    C32   A    
C2    O2    A    
C5    C25   A    
C35   H20   S    
C12   C14   A    
C13   C15   A    
C22   C24   S    
O1    Zn1   S    
N4    Zn1   S    
C36   H24   S    
C7    C9    A    
C16   H12   S    
C30   H1    S    
C14   C16   A    
C32   N2    S    
C20   C22   T    
C35   H19   S    
C3    C5    A    
C12   N6    S    
C25   C27   A    
C26   C28   A    
C34   H18   S    
C28   C30   A    
C15   H11   S    
O11   C35   S    
C29   C31   A    
C27   O10   S    
C30   C32   A    
C11   C13   A    
C6    C26   A    
C17   C19   S    
C18   C20   S    
O9    C33   S    
C8    C10   A    
N5    N6    D    
C31   N1    S    
C17   O7    A    
C14   O12   S    
