data_mof_unit_38889.cif
_audit_creation_date              2012-12-11T17:12:44-0500
_audit_creation_method            fapswitch 2.2
_symmetry_space_group_name_H-M    P1
_symmetry_Int_Tables_number       1
_space_group_crystal_system       triclinic
_cell_length_a                    17.242921
_cell_length_b                    6.885879
_cell_length_c                    14.395108
_cell_angle_alpha                 89.654766
_cell_angle_beta                  110.15802
_cell_angle_gamma                 90.395166
_cell_volume                      1604.42542194

loop_
_atom_site_label
_atom_site_type_symbol
_atom_type_description
_atom_site_fract_x
_atom_site_fract_y
_atom_site_fract_z
_atom_type_partial_charge
O1    O     O_R   0.314130 0.635770 0.168990 -0.535417
O2    O     O_R   0.685870 0.364230 0.831010 -0.536730
O3    O     O_R   0.185870 0.135770 0.331010 -0.540409
O4    O     O_R   0.814130 0.864230 0.668990 -0.540854
O5    O     O_R   0.146800 0.302460 0.139760 -0.537964
O6    O     O_R   0.853200 0.697540 0.860240 -0.538038
O7    O     O_R   0.353200 0.802460 0.360240 -0.537089
O8    O     O_R   0.646800 0.197540 0.639760 -0.538027
C1    C     C_R   0.114010 0.475728 0.112786 0.709733
C2    C     C_R   0.885991 0.524275 0.887210 0.713358
C3    C     C_R   0.385987 0.975956 0.387216 0.715750
C4    C     C_R   0.614011 0.024045 0.612785 0.713038
O9    O     O_R   0.311100 0.305780 0.157130 -0.538810
O10   O     O_R   0.688900 0.694220 0.842870 -0.538736
O11   O     O_R   0.188900 0.805780 0.342870 -0.537892
O12   O     O_R   0.811100 0.194220 0.657130 -0.536282
O13   O     O_R   0.351340 0.139640 0.348510 -0.538395
O14   O     O_R   0.648660 0.860360 0.651490 -0.537890
O15   O     O_R   0.148660 0.639640 0.151490 -0.537085
O16   O     O_R   0.851340 0.360360 0.848510 -0.536464
C5    C     C_R   0.333184 0.475930 0.136281 0.714884
C6    C     C_R   0.666536 0.524361 0.863214 0.712175
C7    C     C_R   0.166346 0.974001 0.363039 0.710604
C8    C     C_R   0.833436 0.026134 0.636526 0.713553
C9    C     C_1   0.533578 0.008765 0.533059 -0.164161
C10   C     C_1   0.466416 0.991236 0.466949 -0.162508
C11   C     C_1   0.966429 0.509045 0.966961 -0.158858
C12   C     C_1   0.033567 0.490961 0.033042 -0.162421
O17   O     O_3   0.263010 0.470920 0.312770 -0.364905
O18   O     O_3   0.736990 0.529080 0.687230 -0.365086
O19   O     O_3   0.236990 0.970920 0.187230 -0.361397
O20   O     O_3   0.763010 0.029080 0.812770 -0.361887
V1    V     V_3+5 0.247590 0.194450 0.238360 1.456214
V2    V     V_3+5 0.752410 0.805550 0.761640 1.456412
V3    V     V_3+5 0.252410 0.694450 0.261640 1.468248
V4    V     V_3+5 0.747590 0.305550 0.738360 1.467494
C13   C     C_R   0.117512 0.981212 0.429646 -0.273451
C14   C     C_R   0.883494 0.022910 0.570956 -0.271173
C15   C     C_R   0.383020 0.493575 0.070740 -0.269218
C16   C     C_R   0.617926 0.510663 0.929991 -0.272435
C17   C     C_R   0.910391 0.157043 0.427901 0.446692
C18   C     C_R   0.099781 0.893324 0.585307 0.431509
C19   C     C_R   0.596891 0.367721 0.074779 0.428468
C20   C     C_R   0.414169 0.678003 0.942743 0.449711
C21   C     C_R   0.857368 0.130284 0.481600 0.316418
C22   C     C_R   0.149008 0.900533 0.525822 0.318935
C23   C     C_R   0.646945 0.397981 0.017469 0.321240
C24   C     C_R   0.359882 0.630209 0.992379 0.314464
C25   C     C_R   0.962470 0.935596 0.603739 0.138267
C26   C     C_R   0.037539 0.062795 0.395492 0.136857
C27   C     C_R   0.539942 0.601306 0.903408 0.142492
C28   C     C_R   0.459897 0.397863 0.095407 0.139521
C29   C     C_R   0.017221 0.964092 0.549889 -0.131189
C30   C     C_R   0.988708 0.064226 0.457529 -0.128643
C31   C     C_R   0.490440 0.578609 0.964044 -0.123384
C32   C     C_R   0.515928 0.447259 0.045673 -0.132823
N1    N     N_3   0.002713 0.127234 0.294429 -0.609643
H1    H     H_    0.037708 0.243682 0.283228 0.229300
H2    H     H_    0.004614 0.013332 0.247553 0.232613
N2    N     N_3   0.986282 0.813219 0.690117 -0.623652
H3    H     H_    0.983076 0.892460 0.750415 0.219435
H4    H     H_    0.945670 0.694961 0.677263 0.250598
N3    N     N_3   0.480213 0.246551 0.168930 -0.625587
H5    H     H_    0.478600 0.302369 0.235629 0.219096
H6    H     H_    0.436727 0.134549 0.145134 0.256319
N4    N     N_3   0.507350 0.700401 0.809852 -0.609174
H7    H     H_    0.545091 0.819784 0.809852 0.233335
H8    H     H_    0.507065 0.605584 0.753263 0.232405
O21   O     O_3   0.228627 0.829674 0.566244 -0.588745
H9    H     H_    0.262717 0.876746 0.527725 0.284830
O22   O     O_3   0.780400 0.216094 0.444523 -0.597812
H10   H     H_    0.741898 0.149261 0.471788 0.283213
O23   O     O_3   0.284824 0.725307 0.963087 -0.594953
H11   H     H_    0.244478 0.647442 0.982741 0.286813
O24   O     O_3   0.724901 0.316315 0.051306 -0.587689
H12   H     H_    0.760634 0.379679 0.018960 0.286135
O25   O     O_3   0.884088 0.281549 0.347979 -0.568220
H13   H     H_    0.930423 0.372428 0.354023 0.307532
O26   O     O_3   0.136603 0.824560 0.680349 -0.567642
H14   H     H_    0.127555 0.923703 0.725200 0.326418
O27   O     O_3   0.631461 0.266981 0.162152 -0.568873
H15   H     H_    0.623784 0.347632 0.215139 0.328701
O28   O     O_3   0.391321 0.829018 0.875750 -0.569836
H16   H     H_    0.439660 0.917539 0.890689 0.308667

loop_
_geom_bond_atom_site_label_1
_geom_bond_atom_site_label_2
_ccdc_geom_bond_type
C2    C11   S    
C16   C23   A    
N4    H8    S    
C31   C32   A    
N3    H6    S    
O1    C5    A    
C21   O22   S    
O23   H11   S    
O3    C7    A    
C20   O28   S    
O27   H15   S    
C14   C25   A    
O25   H13   S    
O7    C3    A    
C26   C30   A    
C25   N2    S    
O20   V4    S    
C18   C29   A    
C17   O25   S    
O4    C8    A    
N1    H2    S    
O3    V1    S    
O17   V1    S    
N2    H4    S    
C18   C22   A    
C14   C21   A    
C1    O15   A    
C29   C30   A    
C2    O16   A    
C22   O21   S    
O5    V1    S    
O2    C6    A    
C8    C14   S    
O19   V1    S    
O11   C7    A    
C15   C28   A    
C18   O26   S    
O12   C8    A    
O13   V1    S    
O11   V3    S    
O4    V2    S    
O18   V2    S    
C3    C10   S    
C9    C10   T    
C7    C13   S    
O6    V2    S    
N2    H3    S    
C27   N4    S    
O20   V2    S    
O24   H12   S    
O5    C1    A    
O28   H16   S    
C5    C15   S    
O8    C4    A    
C6    C16   S    
O9    C5    A    
O14   V2    S    
C19   O27   S    
O19   V3    S    
O1    V3    S    
O2    V4    S    
C3    O13   A    
C26   N1    S    
O7    V3    S    
C24   O23   S    
N3    H5    S    
C28   N3    S    
O10   V2    S    
O8    V4    S    
C16   C27   A    
O17   V3    S    
O18   V4    S    
C4    C9    S    
O10   C6    A    
C23   O24   S    
O22   H10   S    
O15   V3    S    
O12   V4    S    
C13   C26   A    
C20   C31   A    
N1    H1    S    
C25   C29   A    
N4    H7    S    
C27   C31   A    
O21   H9    S    
C17   C30   A    
O6    C2    A    
O26   H14   S    
O16   V4    S    
C28   C32   A    
C19   C32   A    
O9    V1    S    
C4    O14   A    
C11   C12   T    
C17   C21   A    
C13   C22   A    
C19   C23   A    
C20   C24   A    
C1    C12   S    
C15   C24   A    
