data_mof_unit_11495.cif
_audit_creation_date              2012-12-10T17:21:05-0500
_audit_creation_method            fapswitch 2.2
_symmetry_space_group_name_H-M    P1
_symmetry_Int_Tables_number       1
_space_group_crystal_system       triclinic
_cell_length_a                    18.36501
_cell_length_b                    25.90952
_cell_length_c                    18.242897
_cell_angle_alpha                 90.370825
_cell_angle_beta                  90.019625
_cell_angle_gamma                 90.179373
_cell_volume                      8680.26711427

loop_
_atom_site_label
_atom_site_type_symbol
_atom_type_description
_atom_site_fract_x
_atom_site_fract_y
_atom_site_fract_z
_atom_type_partial_charge
C1    C     C_R   0.390029 0.250458 0.139602 0.929597
C2    C     C_R   0.390152 0.749495 0.860491 0.933017
C3    C     C_R   0.389088 0.750776 0.140634 0.943087
C4    C     C_R   0.388514 0.248924 0.859147 0.932495
C5    C     C_R   0.890028 0.750457 0.639602 0.929592
C6    C     C_R   0.890152 0.249495 0.360492 0.933026
C7    C     C_R   0.889088 0.250777 0.640634 0.943071
C8    C     C_R   0.888514 0.748924 0.359147 0.932496
C9    C     C_R   0.389622 0.860398 0.322860 -0.256839
C10   C     C_R   0.411890 0.121404 0.704123 -0.242395
C11   C     C_R   0.579833 0.350077 0.126912 -0.229337
C12   C     C_R   0.579726 0.650588 0.873796 -0.230046
C13   C     C_R   0.889623 0.360410 0.822842 -0.256885
C14   C     C_R   0.911942 0.621375 0.204179 -0.242377
C15   C     C_R   0.079810 0.850099 0.626929 -0.229313
C16   C     C_R   0.079661 0.150520 0.373727 -0.230061
C17   C     C_R   0.389649 0.826802 0.261853 0.456421
C18   C     C_R   0.403594 0.161348 0.756028 0.454729
C19   C     C_R   0.517359 0.318619 0.129619 0.465642
C20   C     C_R   0.516778 0.681241 0.870271 0.464760
C21   C     C_R   0.889656 0.326815 0.761834 0.456365
C22   C     C_R   0.903619 0.661334 0.256056 0.454744
C23   C     C_R   0.017341 0.818637 0.629633 0.465646
C24   C     C_R   0.016739 0.181201 0.370231 0.464756
C25   C     C_R   0.444093 0.787723 0.255249 0.039650
C26   C     C_R   0.450655 0.205693 0.753622 0.032147
C27   C     C_R   0.507379 0.283768 0.189742 0.021615
C28   C     C_R   0.507290 0.716356 0.810451 0.021755
C29   C     C_R   0.944092 0.287729 0.755243 0.039663
C30   C     C_R   0.950669 0.705684 0.253638 0.032134
C31   C     C_R   0.007370 0.783777 0.689748 0.021618
C32   C     C_R   0.007269 0.216334 0.310429 0.021756
C33   C     C_R   0.999333 0.285623 0.809167 -0.010791
C34   C     C_R   0.005815 0.707411 0.199366 -0.009957
C35   C     C_R   0.061055 0.782040 0.745410 0.016862
C36   C     C_R   0.061220 0.218417 0.255089 0.012889
C37   C     C_R   0.499339 0.785620 0.309167 -0.010799
C38   C     C_R   0.505795 0.207422 0.699345 -0.009957
C39   C     C_R   0.561062 0.282030 0.245406 0.016877
C40   C     C_R   0.561244 0.718442 0.755114 0.012880
C41   C     C_R   0.445573 0.751006 0.196786 -0.160882
C42   C     C_R   0.444047 0.248535 0.802534 -0.162362
C43   C     C_R   0.446053 0.250544 0.195914 -0.152456
C44   C     C_R   0.446094 0.749410 0.804177 -0.151588
C45   C     C_R   0.945574 0.251010 0.696782 -0.160879
C46   C     C_R   0.944044 0.748536 0.302532 -0.162368
C47   C     C_R   0.946056 0.750542 0.695911 -0.152452
C48   C     C_R   0.946095 0.249411 0.304177 -0.151598
C49   C     C_R   0.503140 0.715083 0.189615 0.017506
C50   C     C_R   0.491584 0.291573 0.798850 0.021613
C51   C     C_R   0.437593 0.216447 0.255797 0.034118
C52   C     C_R   0.437614 0.783290 0.744124 0.029924
C53   C     C_R   0.003147 0.215093 0.689606 0.017482
C54   C     C_R   0.991559 0.791584 0.298824 0.021609
C55   C     C_R   0.937612 0.716431 0.755779 0.034134
C56   C     C_R   0.937637 0.283313 0.244146 0.029929
C57   C     C_R   0.061556 0.215994 0.740268 0.082810
C58   C     C_R   0.048900 0.791924 0.247110 0.085192
C59   C     C_R   0.989765 0.715962 0.813304 0.033097
C60   C     C_R   0.989826 0.283888 0.186718 0.033946
C61   C     C_R   0.561551 0.715984 0.240274 0.082792
C62   C     C_R   0.548926 0.291912 0.747135 0.085204
C63   C     C_R   0.489756 0.215967 0.313313 0.033071
C64   C     C_R   0.489802 0.783862 0.686695 0.033948
C65   C     C_R   0.056490 0.249558 0.802010 -0.128023
C66   C     C_R   0.054428 0.749952 0.196694 -0.133874
C67   C     C_R   0.052273 0.748432 0.805983 -0.111401
C68   C     C_R   0.052267 0.251605 0.194120 -0.111323
C69   C     C_R   0.556494 0.749554 0.302009 -0.128018
C70   C     C_R   0.554430 0.249953 0.696695 -0.133862
C71   C     C_R   0.552273 0.248428 0.305984 -0.111391
C72   C     C_R   0.552267 0.751605 0.694121 -0.111325
C73   C     C_R   0.504204 0.678863 0.131012 -0.145549
C74   C     C_R   0.484223 0.333880 0.848250 -0.150280
C75   C     C_R   0.376734 0.182663 0.258992 -0.149146
C76   C     C_R   0.376661 0.816720 0.740635 -0.145560
C77   C     C_R   0.004221 0.178880 0.630995 -0.145538
C78   C     C_R   0.984179 0.833902 0.348204 -0.150286
C79   C     C_R   0.876779 0.682622 0.758952 -0.149200
C80   C     C_R   0.876703 0.316761 0.240676 -0.145567
C81   C     C_R   0.562698 0.645841 0.120742 -0.157643
C82   C     C_R   0.532251 0.375217 0.847063 -0.169577
C83   C     C_R   0.366498 0.149696 0.317523 -0.204966
C84   C     C_R   0.366451 0.849528 0.681961 -0.185467
C85   C     C_R   0.062721 0.145863 0.620722 -0.157572
C86   C     C_R   0.032185 0.875252 0.346993 -0.169594
C87   C     C_R   0.866558 0.649644 0.817472 -0.205033
C88   C     C_R   0.866513 0.349591 0.182023 -0.185485
C89   C     C_R   0.111626 0.248893 0.858966 0.851650
C90   C     C_R   0.110285 0.750013 0.139954 0.852198
C91   C     C_R   0.109105 0.748797 0.861279 0.775780
C92   C     C_R   0.109035 0.251190 0.138734 0.778532
C93   C     C_R   0.611630 0.748890 0.358963 0.851662
C94   C     C_R   0.610286 0.250014 0.639955 0.852206
C95   C     C_R   0.609103 0.248795 0.361282 0.775767
C96   C     C_R   0.609035 0.751189 0.638734 0.778536
C97   C     C_R   0.122226 0.148759 0.667157 -0.183038
C98   C     C_R   0.090120 0.874950 0.298714 -0.172138
C99   C     C_R   0.915342 0.649975 0.875113 -0.103402
C100  C     C_R   0.915466 0.349465 0.124573 -0.103599
C101  C     C_R   0.622207 0.648738 0.167171 -0.183029
C102  C     C_R   0.590186 0.374914 0.798784 -0.172133
C103  C     C_R   0.415303 0.150007 0.375145 -0.103349
C104  C     C_R   0.415401 0.849397 0.624509 -0.103613
C105  C     C_R   0.123182 0.183666 0.726119 0.092057
C106  C     C_R   0.099961 0.833727 0.249717 0.109364
C107  C     C_R   0.975941 0.682651 0.875074 0.110030
C108  C     C_R   0.976162 0.317159 0.124983 0.109113
C109  C     C_R   0.623172 0.683648 0.226129 0.092023
C110  C     C_R   0.600007 0.333702 0.749764 0.109324
C111  C     C_R   0.475932 0.182655 0.375083 0.110036
C112  C     C_R   0.476114 0.817108 0.624938 0.109104
C113  C     C_R   0.309300 0.055195 0.121083 -0.134936
C114  C     C_R   0.319287 0.948372 0.116597 -0.169593
C115  C     C_R   0.809500 0.555195 0.620991 -0.134922
C116  C     C_R   0.819478 0.448374 0.616496 -0.169569
C117  C     C_R   0.342781 0.029089 0.178328 -0.143059
C118  C     C_R   0.348451 0.975742 0.175720 -0.154797
C119  C     C_R   0.843086 0.529092 0.678176 -0.143117
C120  C     C_R   0.848751 0.475746 0.675562 -0.154841
C121  C     C_R   0.284179 0.973859 0.058119 0.069302
C122  C     C_R   0.281071 0.028040 0.059373 0.077142
C123  C     C_R   0.784277 0.473859 0.558069 0.069288
C124  C     C_R   0.781171 0.528040 0.559326 0.077138
C125  C     C_R   0.251513 0.946448 0.999202 -0.160674
C126  C     C_R   0.249021 0.053835 0.999721 -0.157743
C127  C     C_R   0.751512 0.446448 0.499205 -0.160742
C128  C     C_R   0.749024 0.553835 0.499724 -0.157807
C129  C     C_R   0.219724 0.972329 0.939324 0.075664
C130  C     C_R   0.218078 0.026618 0.939797 0.075128
C131  C     C_R   0.719623 0.472329 0.439379 0.075661
C132  C     C_R   0.717986 0.526618 0.439848 0.075113
C133  C     C_R   0.191429 0.945230 0.877661 -0.138995
C134  C     C_R   0.186680 0.052452 0.879368 -0.156343
C135  C     C_R   0.691219 0.445230 0.377764 -0.139027
C136  C     C_R   0.686505 0.552452 0.379460 -0.156313
C137  C     C_R   0.160847 0.971554 0.818918 -0.143190
C138  C     C_R   0.158269 0.025099 0.819873 -0.154059
C139  C     C_R   0.660536 0.471553 0.319074 -0.143263
C140  C     C_R   0.657978 0.525097 0.320022 -0.154059
C141  C     C_R   0.249762 0.109417 0.999283 0.794869
C142  C     C_R   0.250321 0.890690 0.000279 0.786668
C143  C     C_R   0.749763 0.609417 0.499286 0.794852
C144  C     C_R   0.750321 0.390690 0.500282 0.786666
C145  C     C_R   0.247605 0.391286 0.000256 0.791917
C146  C     C_R   0.247770 0.608692 0.999782 0.789640
C147  C     C_R   0.747604 0.891286 0.500255 0.791894
C148  C     C_R   0.747754 0.108693 0.499779 0.789772
C149  C     C_3   0.205448 0.470339 0.072368 -0.091900
C150  C     C_3   0.201436 0.529501 0.930187 -0.092606
C151  C     C_3   0.207274 0.530789 0.071878 -0.025079
C152  C     C_3   0.202985 0.469011 0.930608 -0.028613
C153  C     C_3   0.705242 0.970339 0.572251 -0.091946
C154  C     C_3   0.701644 0.029497 0.430036 -0.092597
C155  C     C_3   0.707019 0.030792 0.571742 -0.025271
C156  C     C_3   0.703168 0.969008 0.430486 -0.028622
C157  C     C_3   0.321966 0.470340 0.999014 -0.528939
C158  C     C_3   0.321986 0.529854 0.996538 -0.527098
C159  C     C_3   0.821960 0.970346 0.499226 -0.528901
C160  C     C_3   0.821981 0.029860 0.496786 -0.527154
C161  C     C_3   0.242905 0.448943 0.000755 0.130999
C162  C     C_3   0.243029 0.551003 0.999480 0.130967
C163  C     C_3   0.742897 0.948944 0.500745 0.131055
C164  C     C_3   0.743010 0.051005 0.499465 0.131061
C165  C     C_R   0.997638 0.320748 0.869093 -0.144967
C166  C     C_R   0.011353 0.666355 0.147887 -0.146012
C167  C     C_R   0.123114 0.814563 0.739923 -0.146316
C168  C     C_R   0.123685 0.186631 0.261288 -0.142405
C169  C     C_R   0.497652 0.820747 0.369091 -0.144952
C170  C     C_R   0.511309 0.166381 0.647841 -0.146030
C171  C     C_R   0.623125 0.314549 0.239915 -0.146386
C172  C     C_R   0.623734 0.686683 0.761340 -0.142416
C173  C     C_R   0.943021 0.357142 0.875953 -0.181260
C174  C     C_R   0.965001 0.624127 0.150567 -0.190613
C175  C     C_R   0.131983 0.847933 0.681508 -0.212292
C176  C     C_R   0.132489 0.153429 0.319881 -0.194075
C177  C     C_R   0.443032 0.857137 0.375960 -0.181235
C178  C     C_R   0.464938 0.124163 0.650502 -0.190643
C179  C     C_R   0.632002 0.347913 0.181495 -0.212317
C180  C     C_R   0.632560 0.653505 0.819956 -0.194061
H1    H     H_    0.238777 0.457597 0.120088 0.144839
H2    H     H_    0.232051 0.542274 0.880626 0.145159
H3    H     H_    0.243684 0.542856 0.117927 0.144564
H4    H     H_    0.236545 0.456987 0.882493 0.145743
H5    H     H_    0.738466 0.957620 0.620059 0.144853
H6    H     H_    0.732437 0.042255 0.380578 0.145170
H7    H     H_    0.743257 0.042883 0.617916 0.144647
H8    H     H_    0.736845 0.956969 0.382461 0.145701
H9    H     H_    0.460042 0.675786 0.091986 0.126101
H10   H     H_    0.441857 0.335571 0.889295 0.132779
H11   H     H_    0.335996 0.181124 0.216165 0.100642
H12   H     H_    0.335818 0.818100 0.783333 0.105468
H13   H     H_    0.960064 0.175806 0.591962 0.126118
H14   H     H_    0.941816 0.835593 0.389253 0.132799
H15   H     H_    0.836054 0.681071 0.716113 0.100633
H16   H     H_    0.835858 0.318138 0.283373 0.105481
H17   H     H_    0.062633 0.118699 0.575370 0.124553
H18   H     H_    0.025597 0.907010 0.385271 0.132160
H19   H     H_    0.819827 0.624098 0.818592 0.128065
H20   H     H_    0.819715 0.374865 0.180673 0.130914
H21   H     H_    0.562603 0.618671 0.075398 0.124540
H22   H     H_    0.525678 0.406968 0.885357 0.132159
H23   H     H_    0.319745 0.124172 0.318662 0.128035
H24   H     H_    0.319640 0.874790 0.680598 0.130910
H25   H     H_    0.134619 0.045585 0.774169 0.139287
H26   H     H_    0.139400 0.950319 0.772357 0.139756
H27   H     H_    0.634258 0.545582 0.274355 0.139353
H28   H     H_    0.639000 0.450315 0.272556 0.139850
H29   H     H_    0.305496 0.096698 0.126260 0.120478
H30   H     H_    0.325280 0.907197 0.116875 0.182962
H31   H     H_    0.805695 0.596697 0.626183 0.120590
H32   H     H_    0.825465 0.407199 0.616783 0.183102
H33   H     H_    0.364615 0.050339 0.224683 0.138381
H34   H     H_    0.375220 0.955455 0.219794 0.140684
H35   H     H_    0.865004 0.550343 0.724489 0.138459
H36   H     H_    0.875595 0.455459 0.719591 0.140789
H37   H     H_    0.193486 0.903611 0.873417 0.126492
H38   H     H_    0.183822 0.093925 0.877282 0.142085
H39   H     H_    0.693266 0.403612 0.373512 0.126655
H40   H     H_    0.683670 0.593925 0.377354 0.142185
H41   H     H_    0.352398 0.457367 0.048342 0.195357
H42   H     H_    0.349505 0.542910 0.945507 0.197712
H43   H     H_    0.354423 0.545298 0.043420 0.185419
H44   H     H_    0.351565 0.454989 0.950307 0.186411
H45   H     H_    0.852269 0.957359 0.548622 0.195468
H46   H     H_    0.849676 0.042933 0.445862 0.197582
H47   H     H_    0.854255 0.045292 0.543788 0.185546
H48   H     H_    0.851687 0.955009 0.450589 0.186290
H49   H     H_    0.168654 0.124057 0.656894 0.128982
H50   H     H_    0.129132 0.906384 0.300588 0.129734
H51   H     H_    0.905480 0.624795 0.921282 0.140730
H52   H     H_    0.905716 0.374541 0.078303 0.136522
H53   H     H_    0.668631 0.624031 0.156908 0.129011
H54   H     H_    0.629213 0.406338 0.800673 0.129722
H55   H     H_    0.405438 0.124830 0.421317 0.140721
H56   H     H_    0.405635 0.874455 0.578223 0.136534
H57   H     H_    0.039084 0.321051 0.911139 0.139880
H58   H     H_    0.051504 0.666235 0.104527 0.143317
H59   H     H_    0.165795 0.814856 0.780825 0.122392
H60   H     H_    0.166767 0.186825 0.220848 0.126255
H61   H     H_    0.539104 0.821054 0.411130 0.139897
H62   H     H_    0.551456 0.166265 0.604477 0.143322
H63   H     H_    0.665805 0.314844 0.280819 0.122412
H64   H     H_    0.666819 0.686882 0.720903 0.126273
H65   H     H_    0.942774 0.383509 0.922256 0.153994
H66   H     H_    0.970388 0.593207 0.110732 0.151912
H67   H     H_    0.179710 0.872458 0.678658 0.141074
H68   H     H_    0.180561 0.129499 0.323322 0.144077
H69   H     H_    0.442788 0.883505 0.422261 0.153996
H70   H     H_    0.470305 0.093254 0.610645 0.151929
H71   H     H_    0.679732 0.372436 0.178644 0.141147
H72   H     H_    0.680652 0.629597 0.823419 0.144104
H73   H     H_    0.348121 0.889727 0.328967 0.122470
H74   H     H_    0.376534 0.087873 0.704950 0.129933
H75   H     H_    0.588219 0.376578 0.082002 0.127026
H76   H     H_    0.587923 0.624097 0.918719 0.123179
H77   H     H_    0.848128 0.389745 0.828939 0.122519
H78   H     H_    0.876597 0.587839 0.205017 0.129933
H79   H     H_    0.088190 0.876607 0.582024 0.127019
H80   H     H_    0.087842 0.124012 0.418634 0.123161
O1    O     O_3   0.249990 0.250010 0.000000 -0.496375
O2    O     O_3   0.249990 0.749990 0.000000 -0.495639
O3    O     O_3   0.749990 0.750010 0.500000 -0.496370
O4    O     O_3   0.749990 0.249990 0.500000 -0.495617
O5    O     O_R   0.335430 0.280650 0.146160 -0.625106
O6    O     O_R   0.335430 0.719350 0.853840 -0.623572
O7    O     O_R   0.335430 0.719350 0.146160 -0.638508
O8    O     O_R   0.335430 0.280650 0.853840 -0.650896
O9    O     O_R   0.835430 0.780650 0.646160 -0.625070
O10   O     O_R   0.835430 0.219350 0.353840 -0.623548
O11   O     O_R   0.835430 0.219350 0.646160 -0.638511
O12   O     O_R   0.835430 0.780650 0.353840 -0.650904
O13   O     O_R   0.164550 0.280640 0.853840 -0.625486
O14   O     O_R   0.164550 0.719360 0.146160 -0.629240
O15   O     O_R   0.164550 0.719360 0.853840 -0.648469
O16   O     O_R   0.164550 0.280640 0.146160 -0.649428
O17   O     O_R   0.664550 0.780640 0.353840 -0.625491
O18   O     O_R   0.664550 0.219360 0.646160 -0.629242
O19   O     O_R   0.664550 0.219360 0.353840 -0.648506
O20   O     O_R   0.664550 0.780640 0.646160 -0.649409
O21   O     O_R   0.396160 0.219380 0.914560 -0.585183
O22   O     O_R   0.396160 0.780620 0.085440 -0.605091
O23   O     O_R   0.396160 0.780620 0.914560 -0.631358
O24   O     O_R   0.396160 0.219380 0.085440 -0.631782
O25   O     O_R   0.896160 0.719380 0.414560 -0.585190
O26   O     O_R   0.896160 0.280620 0.585440 -0.605095
O27   O     O_R   0.896160 0.280620 0.414560 -0.631377
O28   O     O_R   0.896160 0.719380 0.585440 -0.631826
O29   O     O_R   0.103840 0.219370 0.085450 -0.643212
O30   O     O_R   0.103840 0.780630 0.914550 -0.647427
O31   O     O_R   0.103840 0.780630 0.085450 -0.631449
O32   O     O_R   0.103840 0.219370 0.914550 -0.643981
O33   O     O_R   0.603840 0.719370 0.585450 -0.643227
O34   O     O_R   0.603840 0.280630 0.414550 -0.647431
O35   O     O_R   0.603840 0.280630 0.585450 -0.631466
O36   O     O_R   0.603840 0.719370 0.414550 -0.644007
O37   O     O_R   0.310730 0.133160 0.000000 -0.625645
O38   O     O_R   0.310730 0.866840 0.000000 -0.640521
O39   O     O_R   0.810730 0.633160 0.500000 -0.625678
O40   O     O_R   0.810730 0.366840 0.500000 -0.640560
O41   O     O_R   0.249970 0.366860 0.060720 -0.654409
O42   O     O_R   0.249970 0.633140 0.939280 -0.653166
O43   O     O_R   0.249970 0.633140 0.060720 -0.640997
O44   O     O_R   0.249970 0.366860 0.939280 -0.641167
O45   O     O_R   0.749970 0.866860 0.560720 -0.654368
O46   O     O_R   0.749970 0.133140 0.439280 -0.653221
O47   O     O_R   0.749970 0.133140 0.560720 -0.641100
O48   O     O_R   0.749970 0.866860 0.439280 -0.641139
O49   O     O_R   0.189290 0.133150 0.000000 -0.642259
O50   O     O_R   0.189290 0.866850 0.000000 -0.633718
O51   O     O_R   0.689290 0.633150 0.500000 -0.642274
O52   O     O_R   0.689290 0.366850 0.500000 -0.633758
Zn1   Zn    Zn3+2 0.249990 0.293780 0.913250 0.991159
Zn2   Zn    Zn3+2 0.249990 0.706220 0.086750 0.997765
Zn3   Zn    Zn3+2 0.249990 0.706220 0.913250 0.969851
Zn4   Zn    Zn3+2 0.249990 0.293780 0.086750 0.969112
Zn5   Zn    Zn3+2 0.749990 0.793780 0.413250 0.991160
Zn6   Zn    Zn3+2 0.749990 0.206220 0.586750 0.997762
Zn7   Zn    Zn3+2 0.749990 0.206220 0.413250 0.969833
Zn8   Zn    Zn3+2 0.749990 0.793780 0.586750 0.969151
Zn9   Zn    Zn3+2 0.336760 0.206240 0.000000 1.025660
Zn10  Zn    Zn3+2 0.336760 0.793760 0.000000 1.017217
Zn11  Zn    Zn3+2 0.836760 0.706240 0.500000 1.025622
Zn12  Zn    Zn3+2 0.836760 0.293760 0.500000 1.017188
Zn13  Zn    Zn3+2 0.163250 0.206230 0.000000 0.963856
Zn14  Zn    Zn3+2 0.163250 0.793770 0.000000 0.966946
Zn15  Zn    Zn3+2 0.663250 0.706230 0.500000 0.963824
Zn16  Zn    Zn3+2 0.663250 0.293770 0.500000 0.966927
N1    N     N_3   0.188870 0.187735 0.768004 -0.445276
H81   H     H_    0.201837 0.151069 0.787090 0.166483
H82   H     H_    0.230649 0.199427 0.732831 0.212922
N2    N     N_3   0.166195 0.832430 0.208947 -0.447867
H83   H     H_    0.173883 0.868038 0.183314 0.179801
H84   H     H_    0.207404 0.826843 0.247349 0.201784
N3    N     N_3   0.018905 0.681574 0.940590 -0.493049
H85   H     H_    0.018241 0.717749 0.966065 0.209049
H86   H     H_    0.071502 0.668919 0.929222 0.169573
N4    N     N_3   0.019525 0.318575 0.059874 -0.497201
H87   H     H_    0.019129 0.282357 0.034531 0.208755
H88   H     H_    0.071982 0.331593 0.071665 0.171690
N5    N     N_3   0.688860 0.687712 0.268013 -0.445307
H89   H     H_    0.701835 0.651042 0.287085 0.166492
H90   H     H_    0.730636 0.699412 0.232841 0.212933
N6    N     N_3   0.666233 0.332407 0.708979 -0.447871
H91   H     H_    0.673904 0.368012 0.683334 0.179801
H92   H     H_    0.707456 0.326831 0.747369 0.201829
N7    N     N_3   0.518938 0.181540 0.440570 -0.493031
H93   H     H_    0.518316 0.217705 0.466074 0.208988
H94   H     H_    0.571517 0.168866 0.429159 0.169656
N8    N     N_3   0.519471 0.818513 0.559824 -0.497191
H95   H     H_    0.519080 0.782289 0.534498 0.208845
H96   H     H_    0.571927 0.831539 0.571602 0.171612
N9    N     N_3   0.131441 0.449928 0.082946 -0.471627
H97   H     H_    0.114438 0.459589 0.135976 0.184296
H98   H     H_    0.132361 0.409746 0.082042 0.199280
N10   N     N_3   0.127134 0.549888 0.923872 -0.472220
H99   H     H_    0.128699 0.590074 0.924422 0.195462
H100  H     H_    0.106954 0.540084 0.871993 0.183431
N11   N     N_3   0.136307 0.555308 0.085642 -0.453692
H101  H     H_    0.095155 0.538357 0.054148 0.230813
H102  H     H_    0.122497 0.550520 0.140798 0.185759
N12   N     N_3   0.131237 0.444331 0.921125 -0.452959
H103  H     H_    0.092057 0.461357 0.954801 0.233343
H104  H     H_    0.114299 0.448976 0.866834 0.184154
N13   N     N_3   0.631231 0.949891 0.582652 -0.471662
H105  H     H_    0.614067 0.959595 0.635615 0.184295
H106  H     H_    0.632222 0.909710 0.581846 0.199163
N14   N     N_3   0.627369 0.049894 0.423449 -0.472206
H107  H     H_    0.628943 0.090080 0.423915 0.195714
H108  H     H_    0.607351 0.040044 0.371523 0.183428
N15   N     N_3   0.635986 0.055287 0.585237 -0.453941
H109  H     H_    0.594955 0.038293 0.553629 0.230852
H110  H     H_    0.622001 0.050525 0.640353 0.185701
N16   N     N_3   0.631434 0.944339 0.420833 -0.452727
H111  H     H_    0.592175 0.961387 0.454392 0.233315
H112  H     H_    0.614641 0.948963 0.366492 0.184182
O53   O     O_3   0.337799 0.832862 0.208153 -0.821623
H113  H     H_    0.309458 0.864394 0.219096 0.298554
O54   O     O_3   0.349826 0.157077 0.808590 -0.804558
H114  H     H_    0.326126 0.122704 0.804897 0.314692
O55   O     O_3   0.466373 0.321919 0.074035 -0.804733
H115  H     H_    0.482197 0.347765 0.037411 0.310985
O56   O     O_3   0.464661 0.676707 0.924558 -0.805801
H116  H     H_    0.479183 0.649628 0.959784 0.307981
O57   O     O_3   0.837823 0.332886 0.708118 -0.821652
H117  H     H_    0.809492 0.364426 0.719046 0.298574
O58   O     O_3   0.849830 0.657074 0.308598 -0.804552
H118  H     H_    0.826137 0.622698 0.304917 0.314686
O59   O     O_3   0.966352 0.821938 0.574052 -0.804725
H119  H     H_    0.982169 0.847789 0.537432 0.310987
O60   O     O_3   0.964632 0.176681 0.424530 -0.805804
H120  H     H_    0.979143 0.149592 0.459747 0.307975

loop_
_geom_bond_atom_site_label_1
_geom_bond_atom_site_label_2
_ccdc_geom_bond_type
C133  C137  A    
C157  C158  S    
C12   H76   S    
C55   C59   A    
O42   Zn3   S    
C6    O10   A    
C136  C140  A    
C64   C72   A    
C79   C87   A    
C156  N16   S    
C65   C89   S    
C21   O57   S    
C170  C178  A    
C17   O53   S    
C69   C93   S    
O3    Zn15  S    
C64   C112  A    
C71   C95   S    
C28   C40   A    
C29   C33   A    
C36   C168  A    
C62   C70   A    
C77   H13   S    
C39   C171  A    
C74   H10   S    
C113  C122  A    
C155  N15   S    
C157  H44   S    
O35   Zn16  S    
C92   O16   A    
O30   Zn14  S    
C93   O17   A    
C145  O44   A    
C97   C105  A    
C146  O43   A    
C84   H24   S    
C175  H67   S    
O20   Zn8   S    
C89   O13   A    
C130  C134  A    
C10   C178  A    
C73   C81   A    
N14   H107  S    
N9    H98   S    
C138  H25   S    
C80   H16   S    
C166  C174  A    
C96   O20   A    
O44   Zn1   S    
O1    Zn9   S    
C25   C41   A    
C82   H22   S    
C26   C38   A    
O37   Zn9   S    
C20   C28   A    
C21   C29   A    
C28   C44   A    
C151  N11   S    
C93   O36   A    
C29   C45   A    
C23   C31   A    
C94   O35   A    
C13   C173  A    
C24   C32   A    
C22   O58   S    
O18   Zn6   S    
C144  O40   A    
C89   O32   A    
C110  N6    S    
C178  H70   S    
C90   O31   A    
C12   C20   A    
C13   C21   A    
C117  H33   S    
C86   H18   S    
C129  C133  A    
C63   C71   A    
C102  H54   S    
O55   H115  S    
C49   C73   A    
C11   C179  A    
O58   H118  S    
C140  H27   S    
C9    C177  A    
C174  H66   S    
C5    O9    A    
C9    H73   S    
C99   H51   S    
C139  C140  A    
C36   C68   A    
C166  H58   S    
C126  C141  S    
C105  N1    S    
C98   C106  A    
C160  H47   S    
O5    Zn4   S    
C17   C25   A    
C5    O28   A    
O24   Zn9   S    
C80   C88   A    
C7    O26   A    
C155  H7    S    
N13   H105  S    
O43   Zn2   S    
C145  C161  S    
C10   C18   A    
C7    O11   A    
C68   C92   S    
O6    Zn3   S    
C63   C111  A    
N8    H95   S    
C127  C131  A    
O3    Zn8   S    
C85   C97   A    
N3    H85   S    
C72   C96   S    
C125  C129  A    
O2    Zn10  S    
C116  H32   S    
N11   H101  S    
C39   C71   A    
C101  C109  A    
O13   Zn1   S    
O41   Zn4   S    
C158  H43   S    
O36   Zn15  S    
O2    Zn2   S    
C43   C51   A    
C34   C66   A    
C123  C124  A    
C176  H68   S    
C81   C101  A    
C154  H6    S    
C83   C103  A    
C153  C163  S    
C32   C36   A    
C24   O60   S    
C154  C164  S    
C149  C151  S    
C37   C169  A    
C16   H80   S    
N12   H103  S    
C2    O6    A    
C79   H15   S    
C13   H77   S    
C96   O33   A    
C59   C67   A    
C98   H50   S    
C1    C43   S    
O31   Zn14  S    
C2    C44   S    
O52   Zn16  S    
C35   C67   A    
C152  C161  S    
C44   C52   A    
C167  H59   S    
C77   C85   A    
C157  H41   S    
N1    H82   S    
C171  C179  A    
C169  C177  A    
C145  O41   A    
C148  O47   A    
C109  N5    S    
C137  H26   S    
N5    H90   S    
C100  C108  A    
C30   C34   A    
C148  C164  S    
C95   O34   A    
O21   Zn9   S    
N2    H83   S    
C104  C112  A    
C147  O48   A    
C59   C107  A    
C116  C120  A    
O15   Zn3   S    
C75   H11   S    
C121  C125  A    
C76   H12   S    
C154  N14   S    
C94   O18   A    
C37   C69   A    
C123  C127  A    
O50   Zn14  S    
C153  N13   S    
C132  C136  A    
N10   H100  S    
C82   C102  A    
C90   O14   A    
C159  H48   S    
C42   C50   A    
C113  C117  A    
C12   C180  A    
O4    Zn12  S    
C115  C119  A    
O33   Zn15  S    
C84   C104  A    
O40   Zn12  S    
C91   O15   A    
O32   Zn13  S    
C26   C42   A    
C167  C175  A    
C129  C130  A    
C168  C176  A    
C103  H55   S    
C40   C72   A    
C171  H63   S    
C30   C46   A    
C33   C165  A    
C169  H61   S    
C52   C76   A    
C143  O51   A    
C144  O52   A    
C151  H3    S    
C141  O49   A    
C56   C80   A    
C115  H31   S    
C15   C23   A    
C14   C22   A    
C113  H29   S    
C8    O12   A    
C147  C163  S    
C117  C118  A    
C180  H72   S    
C16   C176  A    
C4    C42   S    
C160  H46   S    
C159  C163  S    
C8    C46   S    
C152  N12   S    
C23   O59   S    
O4    Zn7   S    
C104  H56   S    
N6    H91   S    
C172  H64   S    
O38   Zn10  S    
C19   O55   S    
O51   Zn15  S    
C38   C70   A    
C107  N3    S    
C18   C26   A    
C87   H19   S    
O49   Zn13  S    
C76   C84   A    
N14   H108  S    
N9    H97   S    
C143  O39   A    
O54   H114  S    
C66   C90   S    
C146  C162  S    
C11   C19   A    
C111  N7    S    
C160  C164  S    
C70   C94   S    
O48   Zn5   S    
C126  C130  A    
C106  N2    S    
N15   H109  S    
C103  C111  A    
C78   H14   S    
C41   C49   A    
C114  C121  A    
O14   Zn2   S    
C3    O22   A    
C156  C163  S    
C11   H75   S    
C153  C155  S    
C22   C30   A    
C154  C156  S    
C60   C108  A    
O29   Zn13  S    
C124  C128  A    
C172  C180  A    
O45   Zn8   S    
C31   C47   A    
C149  H1    S    
C32   C48   A    
C74   C82   A    
C38   C170  A    
C156  H8    S    
C150  C162  S    
O34   Zn16  S    
C3    O7    A    
C51   C63   A    
C83   H23   S    
C14   H78   S    
N7    H93   S    
C53   C57   A    
C81   H21   S    
C134  H38   S    
C56   C60   A    
C116  C123  A    
C108  N4    S    
C179  H71   S    
C159  C160  S    
C151  C162  S    
C177  H69   S    
C46   C54   A    
C67   C91   S    
C118  H34   S    
N8    H96   S    
C121  C122  A    
C88   C100  A    
O28   Zn11  S    
C8    O25   A    
C146  O42   A    
C85   H17   S    
C52   C64   A    
C31   C35   A    
C102  C110  A    
C149  C161  S    
C6    O27   A    
C131  C132  A    
C157  C161  S    
C40   C172  A    
N3    H86   S    
O57   H117  S    
C173  H65   S    
C115  C124  A    
O1    Zn4   S    
C10   H74   S    
O2    Zn3   S    
C57   C65   A    
C148  O46   A    
C119  C120  A    
C136  H40   S    
O1    Zn1   S    
C4    O8    A    
C99   C107  A    
C135  C139  A    
C165  H57   S    
C88   H20   S    
C50   C74   A    
C14   C174  A    
O23   Zn10  S    
C49   C61   A    
C75   C83   A    
N12   H104  S    
C127  C144  S    
C86   C98   A    
C128  C143  S    
N16   H112  S    
O3    Zn11  S    
C27   C43   A    
C60   C68   A    
C34   C166  A    
C112  N8    S    
C73   H9    S    
O4    Zn6   S    
C54   C78   A    
C57   C105  A    
C91   O30   A    
C119  H35   S    
N1    H81   S    
C53   C77   A    
C61   C109  A    
C33   C65   A    
O60   H120  S    
N5    H89   S    
C5    C47   S    
C6    C48   S    
C7    C45   S    
N4    H88   S    
N2    H84   S    
C131  C135  A    
N13   H106  S    
C165  C173  A    
C55   C79   A    
O3    Zn5   S    
O1    Zn13  S    
C25   C37   A    
N16   H111  S    
C58   C66   A    
C97   H49   S    
C27   C39   A    
C168  H60   S    
C92   O29   A    
C35   C167  A    
C152  H4    S    
O7    Zn2   S    
C19   C27   A    
O17   Zn5   S    
C78   C86   A    
O19   Zn7   S    
C16   C24   A    
O25   Zn11  S    
O46   Zn7   S    
O47   Zn6   S    
C128  C132  A    
C87   C99   A    
O27   Zn12  S    
C95   O19   A    
O22   Zn10  S    
C100  H52   S    
N15   H110  S    
C133  H37   S    
C58   C106  A    
C122  C126  A    
N7    H94   S    
O4    Zn16  S    
C62   C110  A    
C125  C142  S    
C142  O38   A    
C135  H39   S    
C4    O21   A    
C1    O5    A    
N11   H102  S    
O53   H113  S    
C114  C118  A    
C9    C17   A    
N6    H92   S    
C50   C62   A    
C150  C152  S    
O16   Zn4   S    
O12   Zn5   S    
O8    Zn1   S    
C51   C75   A    
C15   H79   S    
C47   C55   A    
C54   C58   A    
C61   C69   A    
C48   C56   A    
C3    C41   S    
C158  H42   S    
C170  H62   S    
C150  H2    S    
C134  C138  A    
C1    O24   A    
C2    O23   A    
C155  C164  S    
C120  H36   S    
C149  N9    S    
C137  C138  A    
C147  O45   A    
C15   C175  A    
C18   O54   S    
C114  H30   S    
C101  H53   S    
O59   H119  S    
O9    Zn8   S    
C153  H5    S    
O10   Zn7   S    
C141  O37   A    
N10   H99   S    
C142  O50   A    
O11   Zn6   S    
C159  H45   S    
C139  H28   S    
C158  C162  S    
C45   C53   A    
O2    Zn14  S    
C150  N10   S    
C20   O56   S    
O39   Zn11  S    
N4    H87   S    
O26   Zn12  S    
O56   H116  S    
