data_mof_unit_53817.cif
_audit_creation_date              2012-10-26T21:12:33-0400
_audit_creation_method            fapswitch 2.2
_symmetry_space_group_name_H-M    P1
_symmetry_Int_Tables_number       1
_space_group_crystal_system       triclinic
_cell_length_a                    23.372282
_cell_length_b                    10.893129
_cell_length_c                    9.575418
_cell_angle_alpha                 89.368273
_cell_angle_beta                  90.073686
_cell_angle_gamma                 90.450485
_cell_volume                      2437.65012356

loop_
_atom_site_label
_atom_site_type_symbol
_atom_type_description
_atom_site_fract_x
_atom_site_fract_y
_atom_site_fract_z
_atom_type_partial_charge
C1    C     C_R   0.503290 0.262012 0.501934 0.560642
C2    C     C_R   0.115536 0.635893 0.530298 0.410036
C3    C     C_R   0.243519 0.606473 0.393643 -0.068995
C4    C     C_R   0.390990 0.503219 0.499834 0.565092
C5    C     C_R   0.302794 0.591727 0.396427 -0.192989
C6    C     C_R   0.328499 0.516808 0.498856 0.006657
C7    C     C_R   0.294052 0.456437 0.599260 0.243069
C8    C     C_R   0.234797 0.473853 0.597357 -0.055442
C9    C     C_R   0.209373 0.547010 0.493666 0.195702
C10   C     C_R   0.760200 0.446850 0.628635 -0.052176
C11   C     C_R   0.700911 0.460171 0.627470 -0.138638
C12   C     C_R   0.980265 0.292116 0.398855 -0.095582
C13   C     C_R   0.671713 0.480598 0.500928 0.003751
C14   C     C_R   0.702728 0.483209 0.375231 -0.157845
C15   C     C_R   0.762100 0.470625 0.376813 -0.074672
C16   C     C_R   0.496009 0.737205 0.499751 0.535519
C17   C     C_R   0.791191 0.454376 0.503627 0.233510
C18   C     C_R   0.500544 0.109735 0.770614 -0.125468
C19   C     C_R   0.478167 0.047984 0.886793 -0.157556
C20   C     C_R   0.451728 0.934630 0.870880 -0.124443
C21   C     C_R   0.452464 0.878053 0.741346 -0.080358
C22   C     C_R   0.479821 0.934920 0.625158 0.019202
C23   C     C_R   0.039818 0.304692 0.397846 0.275412
C24   C     C_R   0.495960 0.059492 0.634596 -0.019855
C25   C     C_R   0.506891 0.126839 0.508082 -0.019443
C26   C     C_R   0.515485 0.062492 0.382603 0.226751
C27   C     C_R   0.509349 0.935859 0.381080 -0.143714
C28   C     C_R   0.609101 0.495413 0.500143 0.538229
C29   C     C_R   0.492345 0.871127 0.500923 -0.049567
C30   C     C_R   0.573173 0.664058 0.142211 -0.148760
C31   C     C_R   0.607596 0.746925 0.069614 -0.174930
C32   C     C_R   0.606934 0.749604 0.924543 0.243633
C33   C     C_R   0.573451 0.664033 0.854563 -0.053508
C34   C     C_R   0.065138 0.419107 0.432904 0.028452
C35   C     C_R   0.535993 0.580773 0.924433 0.097823
C36   C     C_R   0.535850 0.580913 0.073967 0.131664
C37   C     C_R   0.466004 0.423037 0.074809 0.009954
C38   C     C_R   0.465952 0.423274 0.926825 -0.001709
C39   C     C_R   0.876500 0.569229 0.558245 0.398355
C40   C     C_R   0.885381 0.373267 0.451919 0.402165
C41   C     C_R   0.945224 0.386800 0.446843 -0.014887
C42   C     C_R   0.970364 0.497615 0.491741 -0.083192
C43   C     C_R   0.935586 0.592275 0.543451 0.027567
C44   C     C_3   0.588702 0.127967 0.243933 -0.003293
C45   C     C_R   0.030346 0.513841 0.484454 -0.083176
C46   C     C_3   0.603966 0.216667 0.125626 -0.366620
C47   C     C_3   0.102349 0.156339 0.477061 0.026471
C48   C     C_3   0.074329 0.038933 0.530404 -0.393857
C49   C     C_3   0.636980 0.950547 0.891252 -0.002182
C50   C     C_3   0.652463 0.036880 0.770913 -0.360617
C51   C     C_3   0.898491 0.855329 0.498106 0.030777
C52   C     C_3   0.927277 0.971181 0.442785 -0.394413
C53   C     C_3   0.314023 0.257174 0.646802 -0.008341
C54   C     C_3   0.341513 0.169700 0.751250 -0.358546
C55   C     C_R   0.055557 0.624273 0.530504 -0.015787
C56   C     C_R   0.020502 0.719435 0.577027 -0.095523
C57   C     C_R   0.960930 0.707035 0.577338 0.274402
C58   C     C_R   0.124350 0.441281 0.421225 0.398328
Cu1   Cu    Cu3+1 0.500000 0.499990 0.640660 0.922821
Cu2   Cu    Cu3+1 0.500000 0.500010 0.359340 0.930970
H1    H     H_    0.961731 0.206425 0.364550 0.163349
H2    H     H_    0.578256 0.669719 0.251733 0.194589
H3    H     H_    0.635542 0.807759 0.127385 0.107039
H4    H     H_    0.437996 0.360646 0.872175 0.138216
H5    H     H_    0.328635 0.638481 0.318162 0.136725
H6    H     H_    0.782378 0.435397 0.727227 0.136595
H7    H     H_    0.605278 0.035489 0.217851 0.110576
H8    H     H_    0.610230 0.161390 0.340613 0.129495
H9    H     H_    0.590090 0.310844 0.152095 0.185985
H10   H     H_    0.650976 0.217493 0.108982 0.094306
H11   H     H_    0.582511 0.188249 0.027599 0.131901
H12   H     H_    0.678100 0.456029 0.725824 0.130486
H13   H     H_    0.432188 0.888725 0.959817 0.124125
H14   H     H_    0.107003 0.221028 0.566064 0.114229
H15   H     H_    0.146316 0.133470 0.442572 0.190976
H16   H     H_    0.070177 0.972218 0.444095 0.173878
H17   H     H_    0.101121 0.997861 0.614321 0.147207
H18   H     H_    0.031680 0.059542 0.574364 0.144964
H19   H     H_    0.667185 0.967657 0.978794 0.134665
H20   H     H_    0.592704 0.972792 0.925278 0.139835
H21   H     H_    0.623285 0.020873 0.681167 0.158823
H22   H     H_    0.648333 0.133681 0.804465 0.087843
H23   H     H_    0.681336 0.497577 0.276040 0.128069
H24   H     H_    0.697234 0.020957 0.737344 0.175306
H25   H     H_    0.578793 0.668556 0.745025 0.210070
H26   H     H_    0.039068 0.804996 0.611679 0.163347
H27   H     H_    0.854824 0.880126 0.533063 0.198456
H28   H     H_    0.893036 0.789808 0.410158 0.121357
H29   H     H_    0.969821 0.948772 0.399379 0.144135
H30   H     H_    0.900781 0.011944 0.358112 0.147673
H31   H     H_    0.931787 0.038855 0.528009 0.175204
H32   H     H_    0.224008 0.661003 0.311515 0.144690
H33   H     H_    0.337056 0.248820 0.545476 0.134069
H34   H     H_    0.785786 0.478308 0.279949 0.130373
H35   H     H_    0.268506 0.228540 0.632878 0.131826
H36   H     H_    0.319300 0.174508 0.853467 0.163809
H37   H     H_    0.338846 0.074203 0.712201 0.113611
H38   H     H_    0.387122 0.194949 0.765302 0.168141
H39   H     H_    0.208107 0.425467 0.672599 0.123459
H40   H     H_    0.523722 0.193184 0.792195 0.146627
H41   H     H_    0.480794 0.089003 0.989059 0.155797
H42   H     H_    0.430731 0.790480 0.733274 0.148335
H43   H     H_    0.518418 0.888348 0.284866 0.142922
H44   H     H_    0.438163 0.359878 0.130808 0.137384
N1    N     N_R   0.852485 0.464085 0.506829 -0.399428
N2    N     N_R   0.148384 0.543811 0.478317 -0.396368
N3    N     N_R   0.500540 0.501210 0.147910 -0.242061
N4    N     N_R   0.500560 0.501290 0.852040 -0.251661
O1    O     O_R   0.500000 0.319640 0.618810 -0.529788
O2    O     O_R   0.582120 0.500020 0.618760 -0.527457
O3    O     O_R   0.582120 0.500050 0.381190 -0.528875
O4    O     O_2   0.843022 0.650760 0.623784 -0.466113
O5    O     O_3   0.528628 0.123158 0.258952 -0.553229
O6    O     O_3   0.071994 0.203932 0.359937 -0.519018
O7    O     O_3   0.641882 0.827800 0.846362 -0.547373
O8    O     O_3   0.928790 0.807797 0.615294 -0.519859
O9    O     O_3   0.317902 0.378267 0.697568 -0.550193
O10   O     O_2   0.860322 0.270013 0.403913 -0.520809
O11   O     O_2   0.158045 0.361738 0.353199 -0.472332
O12   O     O_2   0.140776 0.737432 0.582161 -0.512873
O13   O     O_R   0.500000 0.319660 0.381240 -0.444201
O14   O     O_R   0.417880 0.499950 0.618810 -0.455062
O15   O     O_R   0.417880 0.499980 0.381240 -0.509866
O16   O     O_R   0.500000 0.680340 0.618760 -0.529944
O17   O     O_R   0.500000 0.680360 0.381190 -0.524823

loop_
_geom_bond_atom_site_label_1
_geom_bond_atom_site_label_2
_ccdc_geom_bond_type
C47   O6    S    
C40   O10   S    
C55   C56   A    
C22   C29   A    
C53   H35   S    
C11   C13   A    
C41   C42   A    
C48   H16   S    
C52   H30   S    
C19   C20   A    
C15   H34   S    
C50   H24   S    
C7    C8    A    
C53   C54   S    
C12   C23   A    
C26   C27   A    
C37   C38   A    
C18   C24   A    
Cu2   O17   S    
C8    H39   S    
C37   N3    A    
C2    C55   A    
C30   C31   A    
C53   O9    S    
C27   C29   A    
C10   C17   A    
Cu1   O2    S    
C56   C57   A    
C15   C17   A    
C18   C19   A    
C48   H18   S    
C7    O9    S    
C46   H9    S    
C33   H25   S    
C35   N4    A    
C1    O1    A    
C31   C32   A    
C8    C9    A    
C13   C28   S    
C13   C14   A    
C16   O17   A    
C54   H36   S    
Cu1   O14   S    
Cu1   Cu2   S    
C21   C22   A    
C36   N3    A    
C1    C25   S    
C52   H29   S    
C18   H40   S    
C14   H23   S    
Cu1   O1    S    
C44   C46   S    
C57   O8    S    
C38   H4    S    
C10   H6    S    
C28   O3    A    
C44   H7    S    
C53   H33   S    
C51   C52   S    
C31   H3    S    
C24   C25   A    
C4    C6    S    
C51   H27   S    
C2    O12   S    
C11   H12   S    
C39   C43   A    
C28   O2    A    
C9    N2    S    
C2    N2    A    
C49   H19   S    
C4    O15   A    
C3    H32   S    
C58   N2    A    
C42   C45   A    
C48   H17   S    
Cu2   O15   S    
C12   C41   A    
C3    C9    A    
C17   N1    S    
C56   H26   S    
C47   C48   S    
C23   C34   A    
C4    O14   A    
C54   H37   S    
C34   C45   A    
C45   C55   A    
C46   H11   S    
Cu2   N3    S    
C21   H42   S    
C5    H5    S    
C39   O4    S    
C49   O7    S    
C44   O5    S    
C30   H2    S    
C22   C24   A    
C44   H8    S    
C42   C43   A    
C50   H22   S    
Cu1   O16   S    
C39   N1    A    
C40   C41   A    
C51   O8    S    
C47   H14   S    
C3    C5    A    
C51   H28   S    
C37   H44   S    
C6    C7    A    
Cu1   N4    S    
C49   H20   S    
C30   C36   A    
C32   C33   A    
C25   C26   A    
C26   O5    S    
C47   H15   S    
Cu2   O3    S    
C23   O6    S    
C12   H1    S    
C19   H41   S    
C5    C6    A    
C27   H43   S    
C58   O11   S    
C33   C35   A    
C20   H13   S    
C32   O7    S    
C38   N4    A    
Cu2   O13   S    
C1    O13   A    
C46   H10   S    
C10   C11   A    
C43   C57   A    
C20   C21   A    
C16   C29   S    
C49   C50   S    
C34   C58   A    
C14   C15   A    
C54   H38   S    
C52   H31   S    
C35   C36   A    
C16   O16   A    
C50   H21   S    
C40   N1    A    
