data_mof_unit_5352.cif
_audit_creation_date              2013-03-05T15:43:39-0500
_audit_creation_method            fapswitch 2.2
_symmetry_space_group_name_H-M    P1
_symmetry_Int_Tables_number       1
_space_group_crystal_system       triclinic
_cell_length_a                    15.886987
_cell_length_b                    10.929818
_cell_length_c                    9.671946
_cell_angle_alpha                 90.580779
_cell_angle_beta                  90.255785
_cell_angle_gamma                 90.140113
_cell_volume                      1679.34662807

loop_
_atom_site_label
_atom_site_type_symbol
_atom_site_description
_atom_site_fract_x
_atom_site_fract_y
_atom_site_fract_z
_atom_type_partial_charge
O1    O     O_R   0.500010 0.321960 0.617040 -0.587839
O2    O     O_R   0.499990 0.321920 0.382900 -0.564071
C1    C     C_R   0.502309 0.265202 0.498950 0.826778
O3    O     O_R   0.379450 0.500030 0.617120 -0.569979
O4    O     O_R   0.379420 0.499980 0.382980 -0.563072
C2    C     C_R   0.340191 0.499984 0.499762 0.832045
Cu1   Cu    Cu3+1 0.500020 0.500020 0.638630 0.955899
Cu2   Cu    Cu3+1 0.499980 0.499980 0.361370 0.963260
O5    O     O_R   0.500010 0.678080 0.617100 -0.572514
O6    O     O_R   0.499990 0.678040 0.382960 -0.575071
O7    O     O_R   0.620580 0.500020 0.617020 -0.570095
O8    O     O_R   0.620550 0.499970 0.382880 -0.582019
C3    C     C_R   0.502255 0.734730 0.500816 0.887068
C4    C     C_R   0.659735 0.500189 0.500301 0.819910
C5    C     C_3   0.051976 0.505834 0.654691 -0.433831
C6    C     C_3   0.046418 0.403615 0.419875 -0.460823
C7    C     C_3   0.949566 0.415132 0.408987 -0.527324
H1    H     H_    0.950449 0.378919 0.667008 0.146868
H2    H     H_    0.085417 0.431482 0.710316 0.162559
H3    H     H_    0.073678 0.399285 0.314092 0.189162
H4    H     H_    0.062988 0.316641 0.472312 0.217250
H5    H     H_    0.920510 0.324317 0.429670 0.208902
H6    H     H_    0.931742 0.439935 0.301339 0.184504
C8    C     C_1   0.749142 0.503628 0.502141 -0.150701
C9    C     C_3   0.083001 0.513960 0.502656 0.118019
C10   C     C_3   0.955172 0.480457 0.658726 -0.133388
C11   C     C_3   0.916645 0.513921 0.512965 0.113849
C12   C     C_3   0.949454 0.642048 0.462245 0.239419
C13   C     C_3   0.047538 0.633533 0.434971 0.248144
C14   C     C_1   0.824512 0.507917 0.507180 -0.005841
C15   C     C_1   0.175171 0.507538 0.499649 0.048237
C16   C     C_1   0.250621 0.503096 0.499197 -0.116168
H7    H     H_    0.053658 0.619640 0.321109 0.061635
H8    H     H_    0.069772 0.592373 0.705951 0.236830
H9    H     H_    0.919624 0.658020 0.359518 0.062149
C17   C     C_2   0.517229 0.930589 0.387760 -0.173555
C18   C     C_2   0.510917 0.866451 0.504461 -0.315115
H10   H     H_    0.517477 0.883254 0.288386 0.171670
H11   H     H_    0.516702 0.908961 0.605753 0.149453
C19   C     C_2   0.528333 0.064178 0.387598 0.028945
C20   C     C_2   0.502040 0.132571 0.496687 -0.361486
H12   H     H_    0.474135 0.091194 0.586862 0.141867
C21   C     C_2   0.453028 0.427061 0.920919 -0.063418
N1    N     N_2   0.499090 0.498660 0.846910 -0.281556
H13   H     H_    0.410525 0.364043 0.868365 0.151821
H14   H     H_    0.541833 0.555445 0.894917 0.194918
C22   C     C_2   0.455091 0.424339 0.076741 -0.034512
N2    N     N_2   0.499070 0.498630 0.153040 -0.279749
H15   H     H_    0.416556 0.356165 0.127242 0.154265
H16   H     H_    0.534013 0.565713 0.106977 0.191581
C23   C     C_R   0.907774 0.525359 0.788462 0.168716
C24   C     C_R   0.941172 0.610047 0.886276 -0.031374
C25   C     C_R   0.896057 0.642246 0.005042 -0.133204
C26   C     C_R   0.817593 0.590059 0.030206 -0.125617
C27   C     C_R   0.784424 0.504136 0.937536 -0.122563
C28   C     C_R   0.829583 0.470411 0.819496 -0.127298
H17   H     H_    0.001718 0.652761 0.874948 0.152699
H18   H     H_    0.922371 0.707602 0.078281 0.152596
H19   H     H_    0.782950 0.615164 0.122325 0.141743
H20   H     H_    0.723911 0.462705 0.957929 0.124425
H21   H     H_    0.803660 0.399404 0.753061 0.114727
C29   C     C_R   0.567841 0.117629 0.262687 0.161496
C30   C     C_R   0.644035 0.182908 0.273395 -0.082230
C31   C     C_R   0.681150 0.232123 0.155377 -0.125571
C32   C     C_R   0.643056 0.215425 0.025941 -0.101092
C33   C     C_R   0.567626 0.150079 0.014337 -0.131072
C34   C     C_R   0.530095 0.101203 0.132092 -0.176578
H22   H     H_    0.674385 0.195847 0.373007 0.101408
H23   H     H_    0.739573 0.282851 0.164233 0.126560
H24   H     H_    0.671988 0.252728 0.934450 0.123240
H25   H     H_    0.538119 0.137556 0.914063 0.135246
H26   H     H_    0.471365 0.051373 0.121670 0.132050
S1    S     S_3+6 0.111641 0.769555 0.463158 0.038920
O9    O     O_2   0.189964 0.757819 0.377422 -0.309540
O10   O     O_2   0.065554 0.881966 0.417324 -0.218030
O11   O     O_3   0.140431 0.785103 0.629951 -0.516906
H27   H     H_    0.171974 0.863414 0.634791 0.374590
S2    S     S_3+6 0.912308 0.770305 0.567003 0.041357
O12   O     O_2   0.829358 0.741295 0.633309 -0.302053
O13   O     O_2   0.974057 0.805003 0.678510 -0.245779
O14   O     O_3   0.897448 0.890779 0.462949 -0.494193
H28   H     H_    0.879114 0.958092 0.525122 0.368446

loop_
_geom_bond_atom_site_label_1
_geom_bond_atom_site_label_2
_geom_bond_distance
_ccdc_geom_bond_type
C9    C15   1.466568 S    
C2    C16   1.423470 S    
C27   C28   1.397892 A    
C6    H4    1.113545 S    
S1    O9    1.503409 D    
H1    C10   1.115847 S    
O14   H28   0.990642 S    
Cu1   Cu2   2.681636 S    
C22   H15   1.084624 S    
C25   C26   1.393022 A    
C5    H2    1.113803 S    
C10   C11   1.581069 S    
C7    H6    1.114079 S    
C29   C34   1.405485 A    
C12   C13   1.584404 S    
C23   C28   1.413229 A    
O4    C2    1.292477 A    
O7    C4    1.291384 A    
S2    O13   1.499933 D    
C5    C9    1.556285 S    
C13   S1    1.817589 S    
C32   H24   1.081940 S    
C13   H7    1.114877 S    
C19   C29   1.487996 S    
C34   H26   1.083013 S    
C20   H12   1.082681 S    
C4    C8    1.420840 S    
O5    C3    1.289939 A    
C30   H22   1.083266 S    
C1    C20   1.449569 S    
C33   H25   1.082602 S    
C12   H9    1.114428 S    
C6    C7    1.547341 S    
C12   S2    1.822238 S    
C5    H8    1.099227 S    
C3    C18   1.445976 S    
Cu2   O8    1.925836 S    
N2    H16   1.025226 S    
C33   C34   1.398167 A    
C27   H20   1.081461 S    
C11   C14   1.465825 S    
S1    O10   1.501571 D    
O3    Cu1   1.925834 S    
N1    H14   1.025278 S    
C26   H19   1.082686 S    
C9    C13   1.572150 S    
C23   C24   1.417282 A    
C7    C11   1.560836 S    
C17   C19   1.470308 S    
O11   H27   0.991360 S    
O3    C2    1.292704 A    
S2    O12   1.502699 D    
C5    C10   1.562789 S    
Cu1   N1    2.014798 S    
O1    C1    1.294921 A    
Cu1   O7    1.927633 S    
C21   N1    1.293648 D    
Cu2   N2    2.014849 S    
C29   C30   1.406500 A    
C22   N2    1.293271 D    
C6    H3    1.113399 S    
C31   H23   1.082602 S    
C21   H13   1.084570 S    
C19   C20   1.354987 D    
O8    C4    1.292665 A    
S1    O11   1.681670 S    
C24   C25   1.399090 A    
C6    C9    1.551198 S    
Cu1   O5    1.959369 S    
C26   C27   1.392591 A    
C17   C18   1.338731 D    
O1    Cu1   1.955228 S    
C15   C16   1.199801 T    
O2    Cu2   1.959371 S    
O6    C3    1.292207 A    
O4    Cu2   1.927634 S    
C25   H18   1.082798 S    
C7    H5    1.113981 S    
C31   C32   1.398180 A    
C17   H10   1.086939 S    
O2    C1    1.288163 A    
C18   H11   1.083452 S    
C10   C23   1.542775 S    
S2    O14   1.681874 S    
C8    C14   1.198951 T    
C24   H17   1.074699 S    
C30   C31   1.398886 A    
Cu2   O6    1.955227 S    
C32   C33   1.397040 A    
C11   C12   1.576744 S    
C28   H21   1.082026 S    
C21   C22   1.507907 S    
