data_mof_unit_47188.cif
_audit_creation_date              2012-12-10T19:43:23-0500
_audit_creation_method            fapswitch 2.2
_symmetry_space_group_name_H-M    P1
_symmetry_Int_Tables_number       1
_space_group_crystal_system       triclinic
_cell_length_a                    10.820903
_cell_length_b                    10.791036
_cell_length_c                    9.623977
_cell_angle_alpha                 89.473695
_cell_angle_beta                  89.558025
_cell_angle_gamma                 94.570963
_cell_volume                      1120.11802939

loop_
_atom_site_label
_atom_site_type_symbol
_atom_type_description
_atom_site_fract_x
_atom_site_fract_y
_atom_site_fract_z
_atom_type_partial_charge
C1    C     C_R   0.493374 0.262636 0.500677 0.915825
C2    C     C_R   0.262260 0.741019 0.044069 -0.191042
C3    C     C_R   0.937894 0.544617 0.385676 -0.170749
C4    C     C_R   0.871016 0.492414 0.499803 -0.100304
C5    C     C_R   0.933497 0.443935 0.614208 -0.037978
C6    C     C_R   0.062105 0.452064 0.612782 -0.105913
C7    C     C_R   0.128915 0.505748 0.499462 -0.086330
C8    C     C_R   0.066423 0.553970 0.384848 0.007278
C9    C     C_R   0.879111 0.432115 0.867514 -0.117886
C10   C     C_R   0.813963 0.374873 0.979942 -0.156893
C11   C     C_R   0.737465 0.265977 0.960081 -0.081532
C12   C     C_R   0.262808 0.503151 0.500004 0.842671
C13   C     C_R   0.726740 0.213598 0.827933 -0.097555
C14   C     C_R   0.792054 0.270362 0.715316 -0.108885
C15   C     C_R   0.867932 0.380680 0.734223 0.128948
C16   C     C_R   0.283629 0.107660 0.631327 0.596830
C17   C     C_R   0.190658 0.031947 0.698377 -0.170501
C18   C     C_R   0.196461 0.903933 0.703092 -0.213221
C19   C     C_R   0.294658 0.850165 0.639418 -0.178103
C20   C     C_R   0.390844 0.924269 0.570953 -0.066809
C21   C     C_R   0.386905 0.055385 0.569193 -0.006134
C22   C     C_R   0.484873 0.128492 0.501761 -0.176964
C23   C     C_R   0.497815 0.737295 0.499923 0.864170
C24   C     C_R   0.580487 0.073444 0.434551 -0.321792
C25   C     C_R   0.583428 0.946191 0.434779 0.640746
C26   C     C_R   0.489478 0.870851 0.501306 -0.227030
C27   C     C_R   0.675211 0.669545 0.133247 0.555673
C28   C     C_R   0.758483 0.746263 0.054285 0.597980
C29   C     C_R   0.754467 0.744173 0.912377 -0.438749
C30   C     C_R   0.667760 0.664715 0.847560 -0.205234
C31   C     C_R   0.582958 0.581707 0.922047 0.131694
C32   C     C_R   0.584432 0.582526 0.071683 -0.137177
C33   C     C_R   0.421114 0.421992 0.075281 0.665033
C34   C     C_R   0.737156 0.496231 0.499882 0.826750
C35   C     C_R   0.421426 0.422017 0.927687 -0.063327
C36   C     C_R   0.269293 0.791914 0.176987 -0.170009
C37   C     C_R   0.203673 0.732030 0.287401 -0.102604
C38   C     C_R   0.131791 0.619797 0.266139 0.063961
C39   C     C_R   0.123483 0.570136 0.131806 -0.175576
C40   C     C_R   0.188712 0.630768 0.021222 0.606523
Cu1   Cu    Cu3+1 0.499990 0.499990 0.640660 1.003137
Cu2   Cu    Cu3+1 0.500010 0.500010 0.359340 1.062547
H1    H     H_    0.782510 0.229394 0.613263 0.109876
H2    H     H_    0.123381 0.845700 0.754364 0.191960
H3    H     H_    0.292262 0.750018 0.642243 0.182931
H4    H     H_    0.325778 0.877611 0.194629 0.170321
H5    H     H_    0.068415 0.483676 0.113558 0.154125
H6    H     H_    0.935985 0.517823 0.883591 0.170306
N1    N     N_R   0.501190 0.501210 0.147910 -0.225922
N2    N     N_R   0.501230 0.501290 0.852040 -0.201148
O1    O     O_R   0.499990 0.319640 0.618810 -0.560999
O2    O     O_R   0.500000 0.319660 0.381240 -0.548587
O3    O     O_R   0.319640 0.500000 0.618780 -0.534173
O4    O     O_R   0.319650 0.500020 0.381210 -0.541645
O5    O     O_R   0.500000 0.680340 0.618760 -0.621232
O6    O     O_R   0.500010 0.680360 0.381190 -0.500840
O7    O     O_R   0.680350 0.499980 0.618790 -0.606610
O8    O     O_R   0.680360 0.500000 0.381220 -0.540705
H7    H     H_    0.313740 0.787101 0.958854 0.164708
H8    H     H_    0.686345 0.222355 0.047024 0.145293
H9    H     H_    0.667382 0.129334 0.812566 0.137871
H10   H     H_    0.655611 0.130067 0.384341 0.170195
F1    F     F_    0.268040 0.230814 0.623795 -0.703028
H11   H     H_    0.112526 0.072877 0.745493 0.173033
F2    F     F_    0.682550 0.897478 0.376105 -0.586925
F3    F     F_    0.339556 0.341831 0.145007 -0.647888
F4    F     F_    0.690320 0.688279 0.268397 -0.579625
F5    F     F_    0.843897 0.825350 0.117399 -0.594094
H12   H     H_    0.818799 0.805171 0.851553 0.209985
H13   H     H_    0.672709 0.672775 0.738114 0.246663
H14   H     H_    0.356690 0.358124 0.873797 0.194623
H15   H     H_    0.209139 0.772513 0.389494 0.131357
F6    F     F_    0.181944 0.581978 0.892050 -0.713595
H16   H     H_    0.890298 0.582804 0.298540 0.200502
H17   H     H_    0.110091 0.412362 0.698940 0.225115
H18   H     H_    0.821764 0.415659 0.082170 0.126683

loop_
_geom_bond_atom_site_label_1
_geom_bond_atom_site_label_2
_ccdc_geom_bond_type
C16   C21   A    
Cu1   Cu2   S    
C19   C20   A    
Cu2   O8    S    
C7    C8    A    
C37   C38   A    
C36   C37   A    
C28   F5    S    
C17   H11   S    
C5    C6    A    
C33   N1    A    
C40   F6    S    
C18   C19   A    
C23   C26   S    
C3    H16   S    
Cu1   O5    S    
Cu2   O6    S    
C10   H18   S    
C16   C17   A    
C34   O7    A    
C36   H4    S    
C16   F1    S    
C9    C10   A    
C12   O3    A    
C35   H14   S    
C1    C22   S    
C21   C22   A    
C8    C38   S    
C30   H13   S    
C33   F3    S    
C29   H12   S    
C7    C12   S    
C4    C34   S    
C23   O6    A    
C25   F2    S    
C24   C25   A    
C3    C8    A    
C39   C40   A    
C2    H7    S    
C25   C26   A    
C38   C39   A    
C29   C30   A    
C18   H2    S    
C31   C32   A    
C35   N2    A    
C17   C18   A    
C1    O1    A    
Cu1   O3    S    
C22   C24   A    
C31   N2    A    
C11   H8    S    
Cu1   N2    S    
C39   H5    S    
C2    C36   A    
C28   C29   A    
C24   H10   S    
C27   C32   A    
C4    C5    A    
C19   H3    S    
C23   O5    A    
C6    C7    A    
C9    C15   A    
Cu1   O7    S    
Cu2   O4    S    
C11   C13   A    
C30   C31   A    
C20   C26   A    
C33   C35   A    
C1    O2    A    
C32   N1    A    
C5    C15   S    
C27   F4    S    
C10   C11   A    
Cu2   N1    S    
C2    C40   A    
C13   H9    S    
C20   C21   A    
C9    H6    S    
C37   H15   S    
C27   C28   A    
C34   O8    A    
C14   C15   A    
C13   C14   A    
Cu1   O1    S    
C12   O4    A    
C3    C4    A    
Cu2   O2    S    
C14   H1    S    
C6    H17   S    
