data_mof_unit_20130.cif
_audit_creation_date              2012-12-10T19:45:48-0500
_audit_creation_method            fapswitch 2.2
_symmetry_space_group_name_H-M    P1
_symmetry_Int_Tables_number       1
_space_group_crystal_system       triclinic
_cell_length_a                    10.7703
_cell_length_b                    14.797669
_cell_length_c                    14.629804
_cell_angle_alpha                 64.514482
_cell_angle_beta                  105.387755
_cell_angle_gamma                 102.501292
_cell_volume                      2015.23457448

loop_
_atom_site_label
_atom_site_type_symbol
_atom_type_description
_atom_site_fract_x
_atom_site_fract_y
_atom_site_fract_z
_atom_type_partial_charge
C1    C     C_R   0.472243 0.119136 0.311422 0.779635
C2    C     C_R   0.525146 0.880722 0.688988 0.782153
C3    C     C_R   0.870664 0.002563 0.495539 -0.069192
C4    C     C_R   0.129959 0.996609 0.506195 -0.072233
C5    C     C_R   0.904568 0.973136 0.426478 0.014527
C6    C     C_R   0.096225 0.026324 0.575247 0.000612
C7    C     C_R   0.439634 0.185891 0.201504 -0.100538
C8    C     C_R   0.546792 0.813818 0.800102 -0.085262
C9    C     C_R   0.314517 0.229884 0.026760 -0.241281
C10   C     C_R   0.651037 0.769761 0.980340 -0.239731
C11   C     C_R   0.341184 0.158355 0.128410 0.152704
C12   C     C_R   0.632715 0.841843 0.878630 0.150512
C13   C     C_R   0.500655 0.284800 0.172485 -0.272939
C14   C     C_R   0.483267 0.715512 0.826619 -0.311819
C15   C     C_R   0.459371 0.360121 0.075747 0.077751
C16   C     C_R   0.513237 0.640162 0.925945 0.089148
C17   C     C_R   0.371207 0.330065 0.000512 0.124234
C18   C     C_R   0.595339 0.669834 0.003811 0.131927
C19   C     C_R   0.502396 0.464200 0.052282 0.071639
C20   C     C_R   0.466163 0.536275 0.949773 0.074762
C21   C     C_R   0.386280 0.501544 0.874559 -0.227737
C22   C     C_R   0.576311 0.498710 0.129111 -0.211245
C23   C     C_R   0.263534 0.997856 0.503926 0.762908
C24   C     C_R   0.736829 0.001388 0.497357 0.777306
C25   C     C_R   0.337633 0.400725 0.900353 -0.221167
C26   C     C_R   0.622894 0.599414 0.104792 -0.225022
C27   C     C_R   0.758739 0.306705 0.622837 -0.323564
C28   C     C_R   0.238455 0.683960 0.394945 -0.327451
C29   C     C_R   0.703319 0.213611 0.619980 -0.015565
C30   C     C_R   0.290677 0.779227 0.392789 -0.020553
C31   C     C_R   0.509369 0.283870 0.510079 0.564697
C32   C     C_R   0.497325 0.721333 0.479916 0.579634
C33   C     C_R   0.552437 0.372440 0.532297 -0.095988
C34   C     C_R   0.453273 0.627347 0.468734 -0.134503
C35   C     C_R   0.685144 0.387848 0.574650 0.129436
C36   C     C_R   0.317944 0.606658 0.437603 0.125648
C37   C     C_R   0.474483 0.450556 0.505703 0.105764
C38   C     C_R   0.533755 0.549765 0.495729 0.079485
C39   C     C_R   0.670490 0.566433 0.514468 -0.234080
C40   C     C_R   0.340362 0.429801 0.501149 -0.263425
C41   C     C_R   0.743940 0.485397 0.562258 -0.211357
C42   C     C_R   0.262272 0.507244 0.458125 -0.188325
C43   C     C_R   0.359585 0.995492 0.814149 -0.135058
C44   C     C_R   0.652303 0.011681 0.181019 -0.137882
C45   C     C_R   0.272104 0.975583 0.733467 -0.090527
C46   C     C_R   0.736905 0.029075 0.264118 -0.123160
C47   C     C_R   0.192144 0.048229 0.659261 0.126342
C48   C     C_R   0.809001 0.952845 0.341743 0.134869
C49   C     C_R   0.199815 0.140253 0.668202 -0.193477
C50   C     C_R   0.794954 0.859079 0.335153 -0.112236
C51   C     C_R   0.288348 0.160226 0.748403 -0.143459
C52   C     C_R   0.708850 0.841513 0.252646 -0.148339
C53   C     C_R   0.368233 0.087906 0.821302 -0.125686
C54   C     C_R   0.637970 0.917894 0.175403 -0.140004
C55   C     C_R   0.966220 0.030478 0.567618 -0.248297
C56   C     C_R   0.034534 0.969761 0.433349 -0.250781
Cu1   Cu    Cu3+1 0.466270 0.918260 0.475690 0.960843
Cu2   Cu    Cu3+1 0.533730 0.081740 0.524310 0.962428
H1    H     H_    0.436161 0.103173 0.883738 0.120247
H2    H     H_    0.572048 0.904481 0.111160 0.126716
H3    H     H_    0.242847 0.208759 0.969298 0.138167
H4    H     H_    0.715159 0.790287 0.041200 0.130163
H5    H     H_    0.357567 0.550100 0.794785 0.133919
H6    H     H_    0.598471 0.449966 0.209699 0.166166
H7    H     H_    0.848006 0.499731 0.585750 0.140690
H8    H     H_    0.157819 0.488638 0.446202 0.135731
H9    H     H_    0.227742 0.837646 0.362457 0.149133
H10   H     H_    0.761112 0.151611 0.655245 0.150785
H11   H     H_    0.859258 0.315836 0.660102 0.144043
H12   H     H_    0.135391 0.669756 0.367152 0.146571
H13   H     H_    0.722351 0.640909 0.498293 0.190858
H14   H     H_    0.294782 0.353221 0.530306 0.115789
H15   H     H_    0.420195 0.939060 0.871513 0.125931
H16   H     H_    0.597628 0.070895 0.121032 0.137205
H17   H     H_    0.265765 0.903315 0.729375 0.096734
H18   H     H_    0.747667 0.102253 0.267236 0.099382
H19   H     H_    0.137832 0.196700 0.612649 0.114206
H20   H     H_    0.850762 0.799858 0.393807 0.117130
H21   H     H_    0.294558 0.231587 0.754316 0.126298
H22   H     H_    0.697819 0.768963 0.248185 0.123671
H23   H     H_    0.939182 0.052454 0.620760 0.150041
H24   H     H_    0.061791 0.949884 0.378644 0.137156
H25   H     H_    0.272906 0.377953 0.841260 0.135331
H26   H     H_    0.681941 0.622200 0.165671 0.139405
H27   H     H_    0.411848 0.699485 0.766876 0.148300
H28   H     H_    0.579249 0.301632 0.228233 0.167240
N1    N     N_R   0.584450 0.204570 0.560790 -0.198514
N2    N     N_R   0.415550 0.795430 0.439210 -0.201222
O1    O     O_R   0.455540 0.022090 0.338120 -0.578538
O2    O     O_R   0.544460 0.977910 0.661880 -0.578818
O3    O     O_R   0.512510 0.160150 0.379180 -0.514738
O4    O     O_R   0.487490 0.839850 0.620820 -0.571362
O5    O     O_R   0.291160 0.930970 0.479480 -0.601619
O6    O     O_R   0.708840 0.069030 0.520520 -0.601380
O7    O     O_R   0.348130 0.069020 0.520540 -0.566379
O8    O     O_R   0.651870 0.930980 0.479460 -0.507575
O9    O     O_3   0.617339 0.736681 0.538992 -0.576785
C57   C     C_3   0.619864 0.673364 0.644812 0.071367
H29   H     H_    0.627911 0.594169 0.661905 0.141300
H30   H     H_    0.530797 0.671856 0.669999 0.149065
C58   C     C_3   0.737886 0.709640 0.710063 -0.744369
H31   H     H_    0.737529 0.790120 0.693368 0.243782
H32   H     H_    0.737215 0.664226 0.793321 0.203735
H33   H     H_    0.827917 0.701391 0.692385 0.231093
O10   O     O_3   0.441398 0.296845 0.410314 -0.562623
C59   C     C_3   0.304996 0.285161 0.398366 0.080649
H34   H     H_    0.269763 0.232390 0.470090 0.140655
H35   H     H_    0.272023 0.360002 0.369574 0.158544
C60   C     C_3   0.239597 0.249353 0.311777 -0.752951
H36   H     H_    0.273399 0.301600 0.239255 0.248758
H37   H     H_    0.259655 0.172468 0.331347 0.229876
H38   H     H_    0.132883 0.248051 0.298362 0.186556
C61   C     C_3   0.712948 0.943818 0.858575 -0.398282
C62   C     C_3   0.826977 0.952652 0.810504 -0.826043
H39   H     H_    0.888569 0.891479 0.861860 0.254212
H40   H     H_    0.792219 0.947329 0.734418 0.243469
H41   H     H_    0.887285 0.026154 0.800076 0.226885
H42   H     H_    0.652980 0.006418 0.810815 0.220363
H43   H     H_    0.753666 0.954279 0.932110 0.189589
C63   C     C_3   0.252791 0.059567 0.156217 -0.391570
C64   C     C_3   0.301987 0.980567 0.138109 -0.812651
H44   H     H_    0.319783 0.010991 0.058212 0.241932
H45   H     H_    0.392584 0.956311 0.193979 0.278980
H46   H     H_    0.228285 0.913377 0.149197 0.232338
H47   H     H_    0.238278 0.030165 0.236779 0.197468
H48   H     H_    0.154232 0.072437 0.107778 0.190714

loop_
_geom_bond_atom_site_label_1
_geom_bond_atom_site_label_2
_ccdc_geom_bond_type
C43   H15   S    
C58   H31   S    
C1    O1    A    
Cu1   O4    S    
C27   C29   A    
C5    C56   A    
C36   C42   A    
C19   C20   A    
C18   C26   A    
C6    C55   A    
Cu2   N1    S    
C46   H18   S    
O9    C57   S    
C53   H1    S    
C39   C41   A    
C54   H2    S    
C29   N1    A    
C7    C11   A    
Cu1   O1    S    
C23   O7    A    
C9    H3    S    
C12   C61   S    
C37   C40   A    
C24   O8    A    
C38   C39   A    
C63   H48   S    
C59   H34   S    
C32   N2    A    
C32   O9    S    
C2    O2    A    
C64   H46   S    
C61   H43   S    
C3    C55   A    
C43   C53   A    
C44   C46   A    
C49   C51   A    
Cu1   O8    S    
C13   H28   S    
C50   C52   A    
C31   C33   A    
C55   H23   S    
Cu2   O3    S    
C34   C36   A    
C30   H9    S    
C27   H11   S    
C8    C12   A    
C40   C42   A    
C1    O3    A    
C1    C7    S    
C4    C56   A    
C31   O10   S    
C3    C24   S    
C10   H4    S    
C11   C63   S    
C50   H20   S    
C52   C54   A    
C62   H39   S    
C45   C47   A    
C5    C48   S    
C46   C48   A    
C31   N1    A    
C6    C47   S    
C44   H16   S    
C19   C22   A    
C4    C6    A    
C60   H38   S    
C4    C23   S    
C63   H47   S    
C41   H7    S    
C27   C35   A    
C33   C37   A    
C23   O5    A    
C51   C53   A    
C32   C34   A    
C15   C19   A    
Cu2   O7    S    
C37   C38   A    
C24   O6    A    
C29   H10   S    
C9    C11   A    
C16   C20   A    
C16   C18   A    
C2    O4    A    
C48   C50   A    
C43   C45   A    
C64   H44   S    
C10   C12   A    
Cu2   O2    S    
C9    C17   A    
C58   H33   S    
C57   H30   S    
C13   C15   A    
C8    C14   A    
C30   N2    A    
C64   H45   S    
C63   C64   S    
C25   H25   S    
C61   C62   S    
C15   C17   A    
C21   C25   A    
C26   H26   S    
C40   H14   S    
C34   C38   A    
C28   H12   S    
C14   H27   S    
C3    C5    A    
C62   H40   S    
C56   H24   S    
C47   C49   A    
C57   C58   S    
O10   C59   S    
Cu1   N2    S    
C45   H17   S    
C17   C25   A    
C60   H37   S    
Cu2   O6    S    
C60   H36   S    
Cu1   Cu2   S    
C59   H35   S    
C10   C18   A    
C28   C30   A    
C33   C35   A    
C49   H19   S    
C14   C16   A    
C35   C41   A    
C51   H21   S    
C21   H5    S    
C62   H41   S    
C22   H6    S    
C61   H42   S    
C44   C54   A    
C7    C13   A    
C20   C21   A    
C28   C36   A    
C58   H32   S    
C57   H29   S    
C22   C26   A    
C2    C8    S    
C42   H8    S    
C39   H13   S    
Cu1   O5    S    
C52   H22   S    
C59   C60   S    
