data_mof_unit_29084.cif
_audit_creation_date              2012-12-11T14:36:28-0500
_audit_creation_method            fapswitch 2.2
_symmetry_space_group_name_H-M    P1
_symmetry_Int_Tables_number       1
_space_group_crystal_system       triclinic
_cell_length_a                    13.477074
_cell_length_b                    13.510847
_cell_length_c                    27.469456
_cell_angle_alpha                 90.647544
_cell_angle_beta                  90.665416
_cell_angle_gamma                 60.157197
_cell_volume                      4338.1697492

loop_
_atom_site_label
_atom_site_type_symbol
_atom_type_description
_atom_site_fract_x
_atom_site_fract_y
_atom_site_fract_z
_atom_type_partial_charge
C1    C     C_R   0.620741 0.100984 0.570156 0.544575
C2    C     C_1   0.650625 0.706096 0.658684 -0.066103
C3    C     C_3   0.052044 0.571192 0.676179 -0.448145
C4    C     C_3   0.969183 0.658320 0.228965 -0.245960
C5    C     C_3   0.085286 0.556442 0.243808 -0.274917
C6    C     C_3   0.183972 0.566550 0.222438 -0.464280
C7    C     C_3   0.479239 0.772344 0.115251 -0.245847
C8    C     C_3   0.426655 0.902351 0.119320 -0.306464
C9    C     C_3   0.342181 0.962745 0.077738 -0.444116
C10   C     C_2   0.231051 0.329168 0.372007 0.591934
C11   C     C_3   0.836161 0.996697 0.129212 -0.238411
C12   C     C_3   0.905968 0.875066 0.148169 -0.337663
C13   C     C_3   0.082226 0.147875 0.737324 -0.101805
C14   C     C_3   0.019238 0.809924 0.120617 -0.435664
C15   C     C_2   0.826658 0.944851 0.368614 0.603923
C16   C     C_R   0.600138 0.779242 0.568716 0.544909
C17   C     C_3   0.168011 0.065096 0.775655 -0.099599
C18   C     C_1   0.096383 0.201717 0.901868 -0.017637
C19   C     C_1   0.231267 0.137008 0.617800 -0.015778
C20   C     C_3   0.061839 0.250820 0.769730 -0.104081
C21   C     C_3   0.148026 0.167941 0.807245 0.053859
C22   C     C_3   0.160782 0.256118 0.744127 -0.103644
C23   C     C_3   0.180813 0.153428 0.712448 0.053205
C24   C     C_1   0.632145 0.732476 0.616504 -0.020305
C25   C     C_3   0.246560 0.173458 0.782308 -0.102648
C26   C     C_3   0.267091 0.070410 0.749916 -0.101933
C27   C     C_1   0.124516 0.182091 0.859721 -0.059859
C28   C     C_R   0.278447 0.121415 0.569812 0.548645
C29   C     C_1   0.203718 0.145678 0.659977 -0.060378
C30   C     C_3   0.632055 0.275485 0.739568 -0.100278
C31   C     C_3   0.555366 0.260093 0.776891 -0.100501
C32   C     C_1   0.689661 0.208646 0.903065 -0.016372
C33   C     C_1   0.637002 0.132361 0.618297 -0.014507
C34   C     C_3   0.738566 0.201821 0.771723 -0.100265
C35   C     C_3   0.721873 0.560678 0.768909 -0.100978
C36   C     C_3   0.661721 0.186157 0.808210 0.053221
C37   C     C_3   0.757988 0.092659 0.744556 -0.100721
C38   C     C_3   0.651720 0.166495 0.713182 0.052256
C39   C     C_3   0.681390 0.077207 0.781772 -0.102266
C40   C     C_R   0.622705 0.100011 0.431254 0.547760
C41   C     C_3   0.574845 0.150812 0.749632 -0.103365
C42   C     C_1   0.672648 0.197453 0.860770 -0.058885
C43   C     C_1   0.645418 0.151219 0.660635 -0.059536
C44   C     C_R   0.735370 0.683359 0.362356 -0.106410
C45   C     C_R   0.750090 0.667085 0.312114 0.007063
C46   C     C_3   0.677612 0.659060 0.806305 0.043354
C47   C     C_R   0.776468 0.656951 0.209836 -0.021685
C48   C     C_R   0.867544 0.644184 0.242244 0.011696
C49   C     C_R   0.854255 0.640412 0.292396 -0.095906
C50   C     C_R   0.787933 0.635348 0.158736 0.023593
C51   C     C_R   0.692113 0.647554 0.130652 -0.024162
C52   C     C_R   0.600262 0.776666 0.430226 0.544806
C53   C     C_R   0.536188 0.737367 0.352057 -0.126257
C54   C     C_R   0.549020 0.725190 0.301985 0.013135
C55   C     C_R   0.656270 0.691968 0.281415 0.054567
C56   C     C_R   0.453918 0.754181 0.272358 -0.135409
C57   C     C_3   0.609224 0.628480 0.739451 -0.108028
C58   C     C_R   0.463735 0.753109 0.222216 -0.126419
C59   C     C_R   0.570197 0.719148 0.200505 0.024955
C60   C     C_R   0.668377 0.687409 0.230477 0.009574
C61   C     C_R   0.581619 0.711064 0.149646 -0.029198
C62   C     C_R   0.627282 0.724557 0.381947 -0.001602
C63   C     C_R   0.216222 0.058502 0.355606 -0.152047
C64   C     C_R   0.281405 0.119835 0.429486 0.552446
C65   C     C_R   0.199822 0.061691 0.305164 0.010851
C66   C     C_R   0.151871 0.082673 0.204996 0.005956
C67   C     C_R   0.133443 0.006870 0.232801 -0.138369
C68   C     C_3   0.664539 0.685813 0.711117 0.059118
C69   C     C_R   0.159378 0.994856 0.282537 -0.127395
C70   C     C_R   0.109897 0.109868 0.157555 -0.139243
C71   C     C_R   0.119994 0.193970 0.131615 0.004353
C72   C     C_R   0.248656 0.220664 0.349840 0.057291
C73   C     C_R   0.256187 0.207816 0.299031 -0.015118
C74   C     C_R   0.223289 0.134085 0.276786 0.046199
C75   C     C_R   0.290351 0.270337 0.269610 -0.136237
C76   C     C_3   0.775886 0.619402 0.740181 0.032186
C77   C     C_R   0.280253 0.269065 0.219248 -0.148050
C78   C     C_R   0.227958 0.212557 0.197902 0.022305
C79   C     C_3   0.565216 0.726325 0.777609 -0.106048
C80   C     C_R   0.203960 0.140594 0.226335 0.067287
C81   C     C_R   0.189093 0.235691 0.149931 -0.116443
C82   C     C_R   0.240292 0.137657 0.378453 -0.012827
C83   C     C_R   0.571008 0.239246 0.362850 -0.120926
C84   C     C_R   0.570211 0.257030 0.312529 0.018627
C85   C     C_R   0.579430 0.286672 0.211639 0.004181
C86   C     C_R   0.516769 0.381526 0.242281 -0.145533
C87   C     C_R   0.511276 0.366701 0.292409 -0.121974
C88   C     C_3   0.733212 0.716616 0.778382 -0.091609
C89   C     C_R   0.597300 0.300470 0.162879 -0.150355
C90   C     C_3   0.620489 0.784117 0.748692 -0.113080
C91   C     C_R   0.677501 0.206931 0.135087 -0.012776
C92   C     C_R   0.714668 0.039260 0.350720 0.045929
C93   C     C_R   0.691055 0.051575 0.300869 -0.013510
C94   C     C_R   0.628281 0.161831 0.281427 0.039823
C95   C     C_R   0.726366 0.957732 0.269702 -0.134337
C96   C     C_R   0.719490 0.973053 0.219823 -0.148435
C97   C     C_R   0.691980 0.079436 0.200653 0.037148
C98   C     C_R   0.630935 0.176262 0.230923 0.055824
C99   C     C_R   0.728617 0.092804 0.154339 -0.019891
C100  C     C_1   0.694921 0.610749 0.900694 -0.015614
C101  C     C_1   0.685590 0.637987 0.858636 -0.059415
C102  C     C_R   0.642041 0.129788 0.382139 -0.020818
C103  C     C_R   0.048757 0.236557 0.949719 0.537305
C104  C     C_R   0.710915 0.563725 0.948405 0.540895
C105  C     C_R   0.721578 0.225688 0.950995 0.544752
C106  C     C_R   0.050094 0.243086 0.087850 0.552823
C107  C     C_R   0.709411 0.576000 0.086396 0.541940
C108  C     C_R   0.719206 0.233074 0.089728 0.540160
C109  C     C_2   0.899985 0.591370 0.134903 0.578113
C110  C     C_3   0.897193 0.555223 0.719918 -0.262042
C111  C     C_3   0.929018 0.635663 0.694298 -0.293711
Cr1   Cr    Cr6+3 0.417550 0.169090 0.500530 1.059614
Cr2   Cr    Cr6+3 0.669180 0.913420 0.499920 1.055287
Cr3   Cr    Cr6+3 0.413260 0.917540 0.499520 1.031224
Cr4   Cr    Cr6+3 0.909170 0.177380 0.020380 1.002069
Cr5   Cr    Cr6+3 0.912710 0.429210 0.018220 1.075778
Cr6   Cr    Cr6+3 0.657170 0.432570 0.019030 1.015932
H1    H     H_    0.783781 0.752975 0.794891 0.096595
H2    H     H_    0.806230 0.222861 0.781404 0.101433
H3    H     H_    0.805499 0.672622 0.385692 0.150293
H4    H     H_    0.922499 0.628928 0.316998 0.142879
H5    H     H_    0.387415 0.776280 0.200952 0.109542
H6    H     H_    0.371095 0.779952 0.288042 0.108771
H7    H     H_    0.451486 0.768456 0.366957 0.136622
H8    H     H_    0.061619 0.072098 0.142477 0.121583
H9    H     H_    0.207992 0.996277 0.377172 0.134183
H10   H     H_    0.095340 0.960098 0.216492 0.105227
H11   H     H_    0.578828 0.876285 0.739824 0.097787
H12   H     H_    0.314267 0.183683 0.801158 0.102225
H13   H     H_    0.142390 0.937761 0.303693 0.121180
H14   H     H_    0.204811 0.292913 0.128295 0.109950
H15   H     H_    0.303678 0.320562 0.197482 0.114651
H16   H     H_    0.323107 0.322210 0.284973 0.167272
H17   H     H_    0.559274 0.386201 0.148461 0.133819
H18   H     H_    0.518363 0.309784 0.386953 0.164640
H19   H     H_    0.475167 0.467272 0.227754 0.111925
H20   H     H_    0.464158 0.440955 0.315520 0.131433
H21   H     H_    0.478253 0.771002 0.793590 0.106151
H22   H     H_    0.737000 0.901079 0.197133 0.115217
H23   H     H_    0.157835 0.334606 0.730625 0.101582
H24   H     H_    0.755312 0.873425 0.283424 0.180417
H25   H     H_    0.558682 0.591911 0.723109 0.103432
H26   H     H_    0.763613 0.468480 0.777710 0.093211
H27   H     H_    0.171370 0.986365 0.789176 0.103553
H28   H     H_    0.014459 0.137813 0.718440 0.103434
H29   H     H_    0.351809 0.995825 0.741178 0.100366
H30   H     H_    0.067097 0.477573 0.134794 0.323350
H31   H     H_    0.112412 0.534290 0.707353 0.144666
H32   H     H_    0.064028 0.501618 0.650745 0.163118
H33   H     H_    0.071797 0.630786 0.656665 0.151222
H34   H     H_    0.977010 0.324990 0.778574 0.094395
H35   H     H_    0.871072 0.676296 0.662699 0.177336
H36   H     H_    0.919823 0.703996 0.719898 0.157904
H37   H     H_    0.957433 0.512781 0.750685 0.138093
H38   H     H_    0.903585 0.488559 0.694003 0.145291
H39   H     H_    0.187161 0.553820 0.182379 0.143560
H40   H     H_    0.174039 0.651615 0.230920 0.151258
H41   H     H_    0.266086 0.500515 0.238409 0.144395
H42   H     H_    0.095415 0.552782 0.284017 0.163888
H43   H     H_    0.090662 0.475618 0.231539 0.223349
H44   H     H_    0.970444 0.677878 0.190736 0.166183
H45   H     H_    0.471965 0.328565 0.790797 0.103453
H46   H     H_    0.959862 0.734900 0.248626 0.137119
H47   H     H_    0.312913 0.055255 0.079174 0.147832
H48   H     H_    0.383666 0.929754 0.041927 0.150989
H49   H     H_    0.267172 0.950010 0.080742 0.154094
H50   H     H_    0.381909 0.934032 0.154592 0.176474
H51   H     H_    0.495636 0.924658 0.117555 0.171047
H52   H     H_    0.505865 0.750170 0.076818 0.171495
H53   H     H_    0.414338 0.746303 0.121744 0.134848
H54   H     H_    0.125237 0.472105 0.409407 0.330059
H55   H     H_    0.003066 0.810690 0.080835 0.179095
H56   H     H_    0.612315 0.356657 0.721722 0.101299
H57   H     H_    0.073764 0.848892 0.127759 0.126442
H58   H     H_    0.066995 0.719915 0.132589 0.159123
H59   H     H_    0.926703 0.875992 0.187329 0.161670
H60   H     H_    0.857699 0.829887 0.141138 0.192736
H61   H     H_    0.813052 0.989093 0.090876 0.175946
H62   H     H_    0.899984 0.025808 0.131402 0.185958
H63   H     H_    0.941616 0.776719 0.370764 0.326701
H64   H     H_    0.507260 0.129714 0.739888 0.100901
H65   H     H_    0.701196 0.995947 0.799558 0.100627
H66   H     H_    0.841424 0.024118 0.730696 0.102527
O1    O     O_R   0.301710 0.195650 0.554160 -0.505967
O2    O     O_R   0.635520 0.542770 0.964420 -0.513870
O3    O     O_R   0.665950 0.325030 0.970100 -0.494078
O4    O     O_R   0.522390 0.158990 0.550460 -0.498013
O5    O     O_R   0.816620 0.158530 0.074540 -0.542245
O6    O     O_R   0.004460 0.188870 0.069750 -0.515957
O7    O     O_R   0.025800 0.341780 0.072300 -0.481683
O8    O     O_R   0.807650 0.528950 0.067500 -0.448736
O9    O     O_R   0.633420 0.550490 0.071810 -0.531478
O10   O     O_R   0.664000 0.332180 0.069640 -0.496277
O11   O     O_3   0.826350 0.346390 0.019210 -0.247419
O12   O     O_R   0.658900 0.818120 0.449760 -0.490329
O13   O     O_R   0.694390 0.003530 0.554040 -0.504587
O14   O     O_R   0.657700 0.819660 0.549320 -0.498965
O15   O     O_R   0.501930 0.803280 0.552920 -0.504470
O16   O     O_R   0.318170 0.023580 0.549580 -0.492427
O17   O     O_R   0.303010 0.193990 0.446760 -0.471936
O18   O     O_R   0.523600 0.157450 0.450900 -0.491939
O19   O     O_R   0.695690 0.001860 0.446640 -0.474432
O20   O     O_2   0.909141 0.642012 0.100135 -0.552035
O21   O     O_R   0.994663 0.492061 0.151702 -0.693897
O22   O     O_2   0.306592 0.354049 0.371061 -0.563596
O23   O     O_R   0.503220 0.801620 0.445520 -0.524486
O24   O     O_R   0.127896 0.401046 0.395443 -0.694497
O25   O     O_2   0.886279 0.967758 0.395030 -0.506088
O26   O     O_R   0.864233 0.831420 0.356007 -0.752402
O27   O     O_R   0.319370 0.022040 0.450020 -0.506053
O28   O     O_3   0.499990 0.000010 0.499990 -0.262078
O29   O     O_R   0.818720 0.150820 0.967160 -0.507796
O30   O     O_R   0.006410 0.181720 0.970200 -0.498070
O31   O     O_R   0.027890 0.334070 0.964920 -0.510119
O32   O     O_R   0.809600 0.521790 0.967960 -0.490547

loop_
_geom_bond_atom_site_label_1
_geom_bond_atom_site_label_2
_ccdc_geom_bond_type
Cr3   O28   S    
C77   C78   A    
C63   C65   A    
C93   C94   A    
C83   C102  A    
C34   C37   S    
Cr2   O12   S    
C73   C74   A    
C57   C79   S    
C36   C42   S    
C95   C96   A    
C51   C61   A    
C84   C87   A    
C13   H28   S    
C25   H12   S    
C111  H35   S    
Cr1   O4    S    
C97   C98   A    
C1    C33   S    
C7    C8    S    
C39   C41   S    
C53   C54   A    
C104  O2    A    
C30   C38   S    
C14   H58   S    
C105  O29   A    
C57   H25   S    
C17   H27   S    
C52   O23   A    
C17   C26   S    
C23   C29   S    
C9    H49   S    
C8    H50   S    
C10   O22   D    
C28   O1    A    
C2    C68   S    
Cr6   O3    S    
C5    C6    S    
C78   C80   A    
C81   H14   S    
C94   C98   A    
C37   H66   S    
C22   H23   S    
C100  C104  S    
Cr4   O30   S    
C11   C99   S    
C23   C26   S    
C26   H29   S    
C44   H3    S    
C110  C111  S    
C7    C61   S    
C79   C90   S    
Cr5   O7    S    
Cr6   O11   S    
C8    H51   S    
C97   C99   A    
C47   C60   A    
C46   C79   S    
C83   C84   A    
C3    C111  S    
C8    C9    S    
C5    H42   S    
C22   C25   S    
C107  O9    A    
C68   C90   S    
C70   C71   A    
C110  H38   S    
C96   H22   S    
C89   C91   A    
C103  O30   A    
C30   H56   S    
C83   H18   S    
C15   O25   D    
C92   C102  A    
C12   H59   S    
Cr5   O11   S    
C66   C67   A    
C15   C92   S    
C31   H45   S    
Cr4   O11   S    
C59   C60   A    
C16   C24   S    
C74   C80   A    
C55   C60   A    
C73   C75   A    
C41   H64   S    
C52   O12   A    
Cr1   O18   S    
C87   H20   S    
Cr5   O32   S    
C6    H41   S    
C13   C23   S    
C47   C50   A    
C46   C88   S    
C1    O4    A    
C93   C95   A    
C46   C101  S    
C54   C56   A    
C35   C76   S    
C3    H32   S    
C28   O16   A    
C58   H5    S    
C30   C34   S    
C63   C82   A    
C33   C43   T    
Cr1   O28   S    
Cr2   O14   S    
C109  O20   D    
C1    O13   A    
C39   H65   S    
Cr2   O28   S    
C38   C41   S    
Cr1   O1    S    
C85   C89   A    
C86   C87   A    
C69   H13   S    
C44   C62   A    
C25   C26   S    
C85   C86   A    
C36   C39   S    
C50   C109  S    
C17   C21   S    
C76   C88   S    
Cr3   O23   S    
C67   C69   A    
C77   H15   S    
C105  O3    A    
C9    H47   S    
C10   O24   S    
C56   H6    S    
C37   C38   S    
C110  H37   S    
Cr6   O9    S    
C67   H10   S    
C64   O27   A    
C75   C77   A    
C53   C62   A    
C47   C48   A    
C45   C49   A    
C30   C31   S    
C5    H43   S    
C49   H4    S    
C96   C97   A    
Cr5   O31   S    
C50   C51   A    
C85   C98   A    
C4    H46   S    
C11   H61   S    
C84   C94   A    
Cr2   O19   S    
C20   C21   S    
C19   C28   S    
C111  H36   S    
C103  O31   A    
C64   C82   S    
Cr4   O29   S    
C70   H8    S    
C14   H55   S    
C59   C61   A    
Cr5   O8    S    
C20   C22   S    
C95   H24   S    
Cr3   O16   S    
C7    H52   S    
C2    C24   T    
Cr2   O13   S    
C7    H53   S    
C11   H62   S    
C106  O7    A    
C57   C68   S    
C88   H1    S    
C19   C29   T    
C15   O26   S    
C6    H40   S    
C16   O15   A    
C44   C45   A    
C4    C48   S    
C86   H19   S    
C34   H2    S    
C21   C25   S    
C54   C55   A    
C48   C49   A    
C3    H33   S    
C32   C42   T    
C89   H17   S    
C31   C41   S    
C13   C20   S    
C31   C36   S    
C91   C108  S    
C108  O5    A    
C109  O21   S    
C18   C27   T    
C104  O32   A    
C12   C14   S    
C4    C5    S    
C53   H7    S    
H30   O21   S    
C11   C12   S    
C75   H16   S    
C14   H57   S    
C68   C76   S    
C66   C80   A    
C20   H34   S    
C13   C17   S    
C32   C105  S    
Cr3   O27   S    
C64   O17   A    
C88   C90   S    
C58   C59   A    
C38   C43   S    
C37   C39   S    
Cr6   O2    S    
Cr4   O5    S    
C78   C81   A    
C66   C70   A    
C72   C73   A    
C65   C69   A    
C9    H48   S    
C92   C93   A    
C56   C58   A    
C12   H60   S    
C34   C36   S    
C18   C103  S    
C4    H44   S    
C21   C27   S    
H63   O26   S    
C76   C110  S    
C6    H39   S    
C63   H9    S    
Cr6   O10   S    
C65   C74   A    
C40   C102  S    
Cr4   O6    S    
C3    H31   S    
C79   H21   S    
C40   O18   A    
C45   C55   A    
C51   C107  S    
C35   C57   S    
Cr3   O15   S    
C71   C106  S    
C107  O8    A    
C52   C62   S    
C90   H11   S    
C22   C23   S    
C100  C101  T    
C106  O6    A    
C91   C99   A    
C108  O10   A    
C40   O19   A    
C35   C46   S    
H54   O24   S    
Cr1   O17   S    
C72   C82   A    
C16   O14   A    
C35   H26   S    
C71   C81   A    
C10   C72   S    
