data_mof_unit_65143.cif
_audit_creation_date              2012-10-26T20:09:02-0400
_audit_creation_method            fapswitch 2.2
_symmetry_space_group_name_H-M    P1
_symmetry_Int_Tables_number       1
_space_group_crystal_system       triclinic
_cell_length_a                    12.757719
_cell_length_b                    13.909479
_cell_length_c                    15.934831
_cell_angle_alpha                 90.174509
_cell_angle_beta                  92.707919
_cell_angle_gamma                 98.027168
_cell_volume                      2796.72185617

loop_
_atom_site_label
_atom_site_type_symbol
_atom_type_description
_atom_site_fract_x
_atom_site_fract_y
_atom_site_fract_z
_atom_type_partial_charge
Br1   Br    Br    0.266103 0.465429 0.105809 -0.276377
Br2   Br    Br    0.275995 0.545518 0.917287 -0.349734
Br3   Br    Br    0.038372 0.586797 0.626108 -0.463028
Br4   Br    Br    0.961538 0.413276 0.373792 -0.442471
Br5   Br    Br    0.379021 0.303488 0.079059 -0.293860
Br6   Br    Br    0.626465 0.331171 0.108246 -0.338021
Br7   Br    Br    0.545336 0.302914 0.917583 -0.346931
Br8   Br    Br    0.390354 0.676097 0.085663 -0.282599
Br9   Br    Br    0.621679 0.702938 0.108320 -0.473662
C1    C     C_R   0.483541 0.315886 0.499217 0.552611
C2    C     C_2   0.551319 0.978939 0.496351 0.162397
C3    C     C_2   0.463477 0.022167 0.496539 -0.070873
C4    C     C_R   0.500704 0.500008 0.340118 0.560417
C5    C     C_1   0.468156 0.125801 0.497694 -0.015683
C6    C     C_1   0.537513 0.874420 0.498442 -0.010077
C7    C     C_1   0.474521 0.212671 0.498496 0.018547
C8    C     C_2   0.029329 0.479355 0.472006 0.125161
C9    C     C_2   0.970648 0.520644 0.527928 0.116942
C10   C     C_1   0.854195 0.517173 0.518525 0.240277
C11   C     C_1   0.145798 0.482820 0.481433 0.257176
C12   C     C_3   0.380792 0.456840 0.947358 0.280857
C13   C     C_R   0.516526 0.684118 0.500806 0.546884
C14   C     C_R   0.499286 0.500031 0.659861 0.529776
C15   C     C_3   0.393038 0.441555 0.046942 0.279846
C16   C     C_3   0.602953 0.454921 0.051579 0.267371
C17   C     C_3   0.586905 0.440468 0.951201 0.269231
C18   C     C_1   0.497448 0.500960 0.748894 -0.030713
C19   C     C_3   0.502510 0.501319 0.083874 -0.002497
C20   C     C_3   0.313333 0.351141 0.817661 -0.221698
C21   C     C_3   0.743048 0.983894 0.476749 -0.252225
C22   C     C_3   0.763087 0.519858 0.150992 -0.178259
C23   C     C_3   0.496170 0.502425 0.916224 0.027142
C24   C     C_3   0.737411 0.543921 0.865955 -0.285222
C25   C     C_3   0.498964 0.715197 0.827374 -0.258707
C26   C     C_3   0.525493 0.610879 0.954007 0.006166
C27   C     C_3   0.509402 0.610484 0.051805 0.252907
C28   C     C_1   0.495571 0.502126 0.824177 0.029358
C29   C     C_1   0.503308 0.500700 0.175867 0.105097
C30   C     C_1   0.502385 0.500320 0.251045 0.078172
C31   C     C_1   0.526623 0.787366 0.499796 -0.009284
Cu1   Cu    Cu3+1 0.395330 0.493960 0.494700 1.079261
Cu2   Cu    Cu3+1 0.604670 0.506040 0.505300 1.051939
H1    H     H_    0.610840 0.633450 0.947147 0.138560
H2    H     H_    0.750570 0.923802 0.521414 0.169550
H3    H     H_    0.728219 0.575714 0.032119 0.273946
H4    H     H_    0.810658 0.592138 0.163011 0.181660
H5    H     H_    0.818779 0.465530 0.147771 0.215576
H6    H     H_    0.711329 0.503376 0.204394 0.184035
H7    H     H_    0.746065 0.418167 0.935317 0.316204
H8    H     H_    0.789942 0.519600 0.819008 0.195819
H9    H     H_    0.787800 0.596324 0.908305 0.152422
H10   H     H_    0.679834 0.581551 0.830679 0.139795
H11   H     H_    0.479355 0.749131 0.948706 0.322657
H12   H     H_    0.385651 0.978851 0.496706 0.128358
H13   H     H_    0.489327 0.792639 0.817409 0.163292
H14   H     H_    0.442466 0.673013 0.781602 0.186680
H15   H     H_    0.582103 0.707387 0.814882 0.122675
H16   H     H_    0.266454 0.334297 0.937578 0.312634
H17   H     H_    0.384040 0.331247 0.787850 0.183563
H18   H     H_    0.287613 0.416479 0.787994 0.187806
H19   H     H_    0.249136 0.289518 0.804522 0.156582
H20   H     H_    0.660536 0.103525 0.474057 0.275589
H21   H     H_    0.818040 0.035240 0.481761 0.169127
H22   H     H_    0.731212 0.954839 0.411436 0.175428
N1    N     N_1   0.238030 0.484880 0.486720 -0.167764
N2    N     N_1   0.761970 0.515120 0.513270 -0.174853
N3    N     N_2   0.333690 0.363493 0.907975 -0.430132
N4    N     N_2   0.655367 0.034041 0.497370 -0.495053
N5    N     N_2   0.701926 0.520736 0.071708 -0.509869
N6    N     N_2   0.690429 0.459477 0.911691 -0.486957
N7    N     N_2   0.473117 0.686971 0.912363 -0.426704
O1    O     O_R   0.399110 0.356330 0.494870 -0.488893
O2    O     O_R   0.575900 0.366540 0.503830 -0.484758
O3    O     O_R   0.411570 0.494900 0.374960 -0.465203
O4    O     O_R   0.588350 0.505100 0.383910 -0.494978
O5    O     O_R   0.424100 0.633460 0.496170 -0.481949
O6    O     O_R   0.600890 0.643670 0.505130 -0.495128
O7    O     O_R   0.411650 0.494900 0.616090 -0.496076
O8    O     O_R   0.588430 0.505100 0.625040 -0.489253

loop_
_geom_bond_atom_site_label_1
_geom_bond_atom_site_label_2
_ccdc_geom_bond_type
C17   C23   S    
C21   H22   S    
Cu1   Cu2   S    
C26   C27   S    
C13   O5    A    
C24   H10   S    
C25   H14   S    
Cu2   O4    S    
Br7   C17   S    
Br3   C9    S    
C29   C30   T    
C1    O2    A    
Br6   C16   S    
C8    C11   S    
C10   N2    T    
C9    C10   S    
Br8   C27   S    
Cu1   O3    S    
C20   N3    S    
C2    C6    S    
C20   H17   S    
C22   H4    S    
Br9   C27   S    
C14   C18   S    
C26   H1    S    
C26   N7    S    
C25   H13   S    
C22   H5    S    
C21   H21   S    
C12   N3    S    
C21   H2    S    
Cu2   O8    S    
C12   C23   S    
C20   H19   S    
H3    N5    S    
C23   C26   S    
C4    O4    A    
C11   N1    T    
Cu1   O7    S    
Cu1   N1    S    
C24   H8    S    
C16   C19   S    
C25   H15   S    
C20   H18   S    
C19   C29   S    
C13   C31   S    
Br2   C12   S    
C8    C9    D    
C23   C28   S    
C24   N6    S    
Cu2   O6    S    
Cu1   O1    S    
Br4   C8    S    
C3    C5    S    
H7    N6    S    
C17   N6    S    
C5    C7    T    
C16   N5    S    
H11   N7    S    
C2    N4    S    
Cu2   O2    S    
C15   C19   S    
C13   O6    A    
C2    C3    D    
C24   H9    S    
H20   N4    S    
C22   H6    S    
C16   C17   S    
C1    C7    S    
Cu1   O5    S    
Br5   C15   S    
C18   C28   T    
C14   O7    A    
C21   N4    S    
C6    C31   T    
C4    C30   S    
H16   N3    S    
C22   N5    S    
C4    O3    A    
C19   C27   S    
Br1   C15   S    
C12   C15   S    
Cu2   N2    S    
C14   O8    A    
C25   N7    S    
C3    H12   S    
C1    O1    A    
