data_mof_unit_53376.cif
_audit_creation_date              2012-10-26T18:50:23-0400
_audit_creation_method            fapswitch 2.2
_symmetry_space_group_name_H-M    P1
_symmetry_Int_Tables_number       1
_space_group_crystal_system       triclinic
_cell_length_a                    9.605055
_cell_length_b                    10.855132
_cell_length_c                    15.568729
_cell_angle_alpha                 85.92438
_cell_angle_beta                  73.570345
_cell_angle_gamma                 90.498227
_cell_volume                      1552.33760942

loop_
_atom_site_label
_atom_site_type_symbol
_atom_type_description
_atom_site_fract_x
_atom_site_fract_y
_atom_site_fract_z
_atom_type_partial_charge
C1    C     C_R   0.003232 0.263537 0.492867 0.562564
C2    C     C_R   0.232961 0.393872 0.059340 0.008370
C3    C     C_R   0.326794 0.457756 0.097725 0.060898
C4    C     C_R   0.916551 0.502248 0.672206 0.591914
C5    C     C_R   0.088162 0.367700 0.109065 -0.152371
C6    C     C_R   0.037272 0.403546 0.196580 -0.166630
C7    C     C_R   0.266047 0.512249 0.178643 0.210064
C8    C     C_R   0.278811 0.127170 0.434057 -0.027618
C9    C     C_R   0.404793 0.070462 0.441612 0.267419
C10   C     C_R   0.394808 0.954454 0.487167 -0.066008
C11   C     C_R   0.261647 0.889664 0.515608 -0.129680
C12   C     C_R   0.671944 0.474368 0.912279 0.049943
C13   C     C_R   0.135354 0.940679 0.498944 0.012783
C14   C     C_R   0.140992 0.067500 0.471748 -0.000105
C15   C     C_R   0.008563 0.130144 0.484951 -0.002876
C16   C     C_R   0.999602 0.737427 0.504646 0.537227
C17   C     C_R   0.877411 0.062598 0.503355 -0.120879
C18   C     C_R   0.876106 0.934989 0.510521 -0.132595
C19   C     C_R   0.003649 0.872095 0.508370 0.006460
C20   C     C_R   0.700936 0.668897 0.381432 -0.083408
C21   C     C_R   0.655293 0.756831 0.327051 -0.157718
C22   C     C_R   0.511062 0.759552 0.328977 -0.113529
C23   C     C_R   0.775976 0.485512 0.960210 0.016226
C24   C     C_R   0.412105 0.672694 0.383897 -0.058783
C25   C     C_R   0.452869 0.583977 0.442247 0.099044
C26   C     C_R   0.602445 0.583212 0.441808 0.138265
C27   C     C_R   0.550561 0.421298 0.555198 0.106658
C28   C     C_R   0.082203 0.497683 0.328127 0.555057
C29   C     C_R   0.402582 0.419940 0.557073 0.373950
C30   C     C_R   0.866909 0.500239 0.771381 0.007348
C31   C     C_R   0.126671 0.475250 0.232232 0.028253
C32   C     C_R   0.924067 0.495009 0.913938 -0.137826
C33   C     C_R   0.969123 0.497025 0.820519 -0.144460
C34   C     C_R   0.525182 0.445798 0.960833 0.046948
C35   C     C_R   0.716878 0.498900 0.818176 0.204207
C36   C     C_R   0.477358 0.467336 0.052751 0.057690
C37   C     C_R   0.582237 0.485601 0.098839 -0.076090
C38   C     C_R   0.729993 0.489289 0.053538 -0.121668
C39   C     C_R   0.428769 0.385836 0.922526 -0.063229
C40   C     C_R   0.285561 0.357157 0.972097 -0.113720
Cl1   Cl    Cl    0.573909 0.147985 0.398067 -0.655930
Cl2   Cl    Cl    0.340271 0.653703 0.196678 -0.669054
Cl3   Cl    Cl    0.588781 0.561762 0.765037 -0.572765
Cu1   Cu    Cu3+1 0.140660 0.499990 0.500010 1.027054
Cu2   Cu    Cu3+1 0.859340 0.500010 0.499990 1.003467
H1    H     H_    0.808083 0.498744 0.091263 0.124459
H2    H     H_    0.732689 0.822899 0.282778 0.153983
H3    H     H_    0.475663 0.828543 0.286625 0.188231
H4    H     H_    0.305067 0.678708 0.377841 0.222119
H5    H     H_    0.928506 0.374848 0.236419 0.162028
H6    H     H_    0.215408 0.307939 0.941639 0.148063
H7    H     H_    0.005054 0.500037 0.950001 0.139664
H8    H     H_    0.084292 0.501176 0.786602 0.203380
H9    H     H_    0.551373 0.488736 0.171075 0.173038
H10   H     H_    0.466091 0.353625 0.855920 0.200120
H11   H     H_    0.089658 0.223572 0.710977 0.353669
H12   H     H_    0.016096 0.315970 0.081485 0.129030
H13   H     H_    0.775052 0.108308 0.512579 0.199505
H14   H     H_    0.290564 0.216964 0.397556 0.157698
H15   H     H_    0.490721 0.912783 0.498556 0.145148
H16   H     H_    0.259773 0.802213 0.553405 0.164474
H17   H     H_    0.773805 0.885591 0.519676 0.158632
H18   H     H_    0.588332 0.358688 0.600542 0.180578
H19   H     H_    0.814442 0.672249 0.373567 0.188733
N1    N     N_R   0.648320 0.501210 0.499140 -0.275174
N2    N     N_R   0.352470 0.501290 0.499110 -0.276438
O1    O     O_R   0.118810 0.319640 0.500010 -0.448645
O2    O     O_2   0.309298 0.357654 0.731642 -0.330898
O3    O     O_3   0.122349 0.281742 0.656739 -0.490022
O4    O     O_R   0.881240 0.319660 0.500000 -0.502285
O5    O     O_R   0.055570 0.499980 0.629840 -0.448360
O6    O     O_R   0.818000 0.500010 0.629830 -0.447012
O7    O     O_R   0.118760 0.680340 0.500000 -0.554549
O8    O     O_R   0.881190 0.680360 0.499990 -0.519803
O9    O     O_R   0.182000 0.499990 0.370170 -0.503672
O10   O     O_R   0.944430 0.500020 0.370160 -0.531284
O11   O     O_2   0.373678 0.190894 0.633235 -0.296153
S1    S     S_3+6 0.298359 0.312017 0.644822 0.026871

loop_
_geom_bond_atom_site_label_1
_geom_bond_atom_site_label_2
_ccdc_geom_bond_type
C22   H3    S    
C27   C29   A    
Cu1   N2    S    
O11   S1    D    
C12   C23   A    
C30   C35   A    
Cu2   O10   S    
C16   O8    A    
C36   C37   A    
C3    C7    A    
C8    H14   S    
C5    C6    A    
Cu1   O5    S    
C18   C19   A    
C7    Cl2   S    
C32   H7    S    
C39   H10   S    
C29   S1    S    
C8    C9    A    
C1    C15   S    
C35   Cl3   S    
C9    C10   A    
C17   H13   S    
C6    C31   A    
C13   C14   A    
Cu2   O6    S    
C33   H8    S    
O3    S1    S    
O2    S1    D    
C7    C31   A    
C13   C19   A    
C16   O7    A    
C24   C25   A    
C39   C40   A    
C18   H17   S    
C25   C26   A    
C34   C39   A    
Cu2   O8    S    
C20   H19   S    
Cu1   O9    S    
C10   H15   S    
C37   C38   A    
C27   N1    A    
C17   C18   A    
C6    H5    S    
C12   C35   A    
C27   H18   S    
C37   H9    S    
Cu2   N1    S    
C22   C24   A    
C2    C5    A    
C12   C34   A    
C40   H6    S    
C4    O6    A    
Cu1   Cu2   S    
C24   H4    S    
C15   C17   A    
C8    C14   A    
C30   C33   A    
Cu2   O4    S    
C26   N1    A    
C28   C31   S    
C25   N2    A    
C11   H16   S    
C23   C38   A    
C9    Cl1   S    
C1    O4    A    
C5    H12   S    
C23   C32   A    
C2    C3    A    
C32   C33   A    
C11   C13   A    
C20   C26   A    
C3    C36   A    
C16   C19   S    
C1    O1    A    
C34   C36   A    
Cu1   O7    S    
C38   H1    S    
C10   C11   A    
C29   N2    A    
C2    C40   A    
C20   C21   A    
H11   O3    S    
C14   C15   A    
Cu1   O1    S    
C21   C22   A    
C28   O9    A    
C4    O5    A    
C4    C30   S    
C21   H2    S    
C28   O10   A    
