data_mof_unit_9359.cif
_audit_creation_date              2013-03-05T16:11:04-0500
_audit_creation_method            fapswitch 2.2
_symmetry_space_group_name_H-M    P1
_symmetry_Int_Tables_number       1
_space_group_crystal_system       triclinic
_cell_length_a                    11.393119
_cell_length_b                    9.926174
_cell_length_c                    10.814508
_cell_angle_alpha                 89.085866
_cell_angle_beta                  91.140015
_cell_angle_gamma                 89.060176
_cell_volume                      1222.44487118

loop_
_atom_site_label
_atom_site_type_symbol
_atom_site_description
_atom_site_fract_x
_atom_site_fract_y
_atom_site_fract_z
_atom_type_partial_charge
O1    O     O_R   0.317570 0.620260 0.500070 -0.646490
O2    O     O_R   0.317570 0.379740 0.500070 -0.617109
C1    C     C_R   0.260048 0.501354 0.503321 0.835331
O3    O     O_R   0.499850 0.620240 0.316900 -0.548748
O4    O     O_R   0.499850 0.379760 0.316900 -0.553665
C2    C     C_R   0.491595 0.500363 0.260149 0.842238
Cu1   Cu    Cu3+1 0.499860 0.642410 0.500060 1.027799
Cu2   Cu    Cu3+1 0.499860 0.357590 0.500060 1.053172
O5    O     O_R   0.682190 0.620260 0.500030 -0.547252
O6    O     O_R   0.682190 0.379740 0.500030 -0.508776
O7    O     O_R   0.499910 0.620280 0.683200 -0.571128
O8    O     O_R   0.499910 0.379720 0.683200 -0.558122
C3    C     C_R   0.738042 0.499719 0.506470 0.985527
C4    C     C_R   0.503381 0.499073 0.738426 0.948595
C5    C     C_3   0.441605 0.609923 0.028228 0.315381
C6    C     C_3   0.432064 0.393660 0.030930 0.309508
C7    C     C_3   0.387546 0.505827 0.942216 -0.226608
H1    H     H_    0.296728 0.515444 0.905928 0.283141
C8    C     C_3   0.503545 0.497450 0.874322 -0.166483
C9    C     C_3   0.557588 0.604101 0.958718 -0.072145
C10   C     C_3   0.547398 0.382382 0.960871 -0.098491
C11   C     C_3   0.600536 0.488861 0.048597 -0.112493
C12   C     C_3   0.483433 0.498614 0.120568 -0.225189
H2    H     H_    0.610888 0.692833 0.935654 0.269283
H3    H     H_    0.592535 0.287126 0.936208 0.261228
H4    H     H_    0.691132 0.475619 0.084801 0.275044
C13   C     C_3   0.065332 0.628627 0.591939 0.304766
C14   C     C_3   0.070867 0.362647 0.575228 0.321291
C15   C     C_3   0.927436 0.632201 0.574562 0.045747
C16   C     C_3   0.929579 0.375452 0.589590 0.066178
H5    H     H_    0.903276 0.706526 0.503259 0.177986
H6    H     H_    0.890572 0.285901 0.549981 0.214863
C17   C     C_3   0.063997 0.517187 0.367159 0.027164
C18   C     C_3   0.119071 0.503114 0.508649 -0.157752
C19   C     C_3   0.875648 0.500784 0.512077 -0.421686
C20   C     C_3   0.920462 0.506096 0.368957 0.418686
C21   C     C_3   0.616593 0.072874 0.541244 0.182744
C22   C     C_3   0.608116 0.914313 0.564284 0.188347
H7    H     H_    0.676058 0.077235 0.463903 0.158252
H8    H     H_    0.686769 0.867525 0.523828 0.176417
C23   C     C_3   0.406531 0.082037 0.583634 -0.040652
C24   C     C_3   0.400002 0.921530 0.573427 -0.047843
C25   C     C_3   0.476409 0.085446 0.371736 0.305346
C26   C     C_3   0.485596 0.917584 0.371869 0.300970
N1    N     N_3   0.500250 0.143650 0.502780 -0.253921
N2    N     N_3   0.500250 0.856350 0.502780 -0.275803
H9    H     H_    0.321038 0.120917 0.549331 0.168160
H10   H     H_    0.319215 0.910014 0.521471 0.139078
N3    N     N_R   0.856472 0.620581 0.302526 0.137735
O9    O     O_R   0.751126 0.600757 0.259163 -0.308682
O10   O     O_R   0.891820 0.744340 0.298237 -0.318429
N4    N     N_R   0.885733 0.385420 0.298117 0.122896
O11   O     O_R   0.849270 0.276013 0.349734 -0.338745
O12   O     O_R   0.886771 0.390003 0.177630 -0.267576
N5    N     N_R   0.690510 0.137282 0.634563 0.189645
O13   O     O_R   0.798866 0.094765 0.646397 -0.278923
O14   O     O_R   0.647602 0.205211 0.724176 -0.275691
N6    N     N_R   0.620168 0.875290 0.696492 0.164108
O15   O     O_R   0.660847 0.757284 0.725052 -0.288484
O16   O     O_R   0.613147 0.959371 0.786680 -0.271076
C27   C     C_3   0.395618 0.133852 0.716967 -0.481009
H11   H     H_    0.472286 0.123346 0.777596 0.295042
H12   H     H_    0.362489 0.236139 0.715647 0.275954
H13   H     H_    0.323810 0.086948 0.767583 0.235329
C28   C     C_3   0.363466 0.848863 0.692609 -0.563970
H14   H     H_    0.427339 0.849500 0.769517 0.295585
H15   H     H_    0.280768 0.892269 0.726963 0.221225
H16   H     H_    0.339083 0.746649 0.672415 0.286843
C29   C     C_3   0.354297 0.139051 0.320620 -0.733682
H17   H     H_    0.278299 0.096260 0.365543 0.157476
H18   H     H_    0.343730 0.247386 0.325493 0.259486
H19   H     H_    0.340658 0.114569 0.222712 0.295736
C30   C     C_3   0.370006 0.864143 0.305990 -0.643642
H20   H     H_    0.283699 0.895173 0.339496 0.144032
H21   H     H_    0.367674 0.898567 0.209149 0.300645
H22   H     H_    0.357200 0.757817 0.309382 0.252157
N7    N     N_R   0.559621 0.134189 0.276564 0.169871
O17   O     O_R   0.546163 0.098468 0.162008 -0.240809
O18   O     O_R   0.649025 0.208128 0.301633 -0.241581
N8    N     N_R   0.586954 0.872281 0.294814 0.204351
O19   O     O_R   0.569533 0.819874 0.186703 -0.235224
O20   O     O_R   0.694029 0.907789 0.319354 -0.294837
N9    N     N_R   0.373104 0.732403 0.045629 0.136061
O21   O     O_R   0.408573 0.844783 0.996748 -0.283396
O22   O     O_R   0.263528 0.722765 0.075196 -0.358671
N10   N     N_R   0.355971 0.279294 0.049380 0.138919
O23   O     O_R   0.383095 0.165490 0.998576 -0.289779
O24   O     O_R   0.246873 0.301666 0.075313 -0.350050
C31   C     C_3   0.102293 0.776631 0.556102 -0.797986
H23   H     H_    0.038999 0.837454 0.498592 0.225022
H24   H     H_    0.109074 0.842883 0.637079 0.287049
H25   H     H_    0.182738 0.780063 0.506182 0.223940
C32   C     C_3   0.092319 0.231887 0.499926 -0.843811
H26   H     H_    0.024348 0.207755 0.432012 0.260322
H27   H     H_    0.174535 0.235771 0.453333 0.233086
H28   H     H_    0.094624 0.138104 0.556920 0.265366
N11   N     N_R   0.096857 0.611483 0.726897 0.203003
O25   O     O_R   0.177625 0.682591 0.779394 -0.354540
O26   O     O_R   0.040408 0.532661 0.800880 -0.207120
N12   N     N_R   0.135884 0.332179 0.694479 0.198496
O27   O     O_R   0.125847 0.216376 0.751464 -0.271373
O28   O     O_R   0.225315 0.402783 0.728522 -0.403791
N13   N     N_R   0.872217 0.696503 0.681176 0.200001
O29   O     O_R   0.880633 0.826848 0.688996 -0.254938
O30   O     O_R   0.845375 0.631706 0.781516 -0.183977
N14   N     N_R   0.884249 0.366948 0.717418 0.224339
O31   O     O_R   0.777827 0.408447 0.737778 -0.305527
O32   O     O_R   0.924202 0.275054 0.794597 -0.139102
C33   C     C_3   0.107964 0.646577 0.298692 -0.626025
H29   H     H_    0.204073 0.642122 0.291230 0.208619
H30   H     H_    0.072143 0.653546 0.202267 0.303064
H31   H     H_    0.087445 0.744496 0.335516 0.243462
C34   C     C_3   0.119508 0.411152 0.277335 -0.611758
H32   H     H_    0.216262 0.409885 0.284979 0.192268
H33   H     H_    0.088932 0.307463 0.280303 0.258871
H34   H     H_    0.098642 0.438372 0.179151 0.302317

loop_
_geom_bond_atom_site_label_1
_geom_bond_atom_site_label_2
_geom_bond_distance
_ccdc_geom_bond_type
C22   H8    1.103881 S    
N5    O13   1.301306 A    
C23   C24   1.601639 S    
C32   H26   1.088833 S    
C13   C15   1.578292 S    
C30   H20   1.095845 S    
C8    C9    1.537101 S    
C23   C27   1.545262 S    
N11   O25   1.296381 A    
Cu1   Cu2   2.827172 S    
N7    O17   1.300874 A    
Cu1   O7    1.989216 S    
C6    C10   1.533195 S    
C16   C19   1.596585 S    
C25   N7    1.493381 S    
C15   H5    1.086917 S    
C8    C10   1.535855 S    
C3    C19   1.567936 S    
C33   H30   1.112920 S    
O4    C2    1.337607 A    
O7    C4    1.334293 A    
N10   O24   1.296041 A    
N14   O31   1.298230 A    
N6    O16   1.296584 A    
C17   C20   1.641298 S    
C15   N13   1.473677 S    
C27   H12   1.077171 S    
C24   N2    1.527425 S    
C29   H18   1.082339 S    
O5    C3    1.346105 A    
Cu2   N1    2.123271 S    
C22   N6    1.478471 S    
C9    H2    1.106018 S    
C26   N2    1.536695 S    
C6    C7    1.531454 S    
N3    O10   1.299457 A    
C24   C28   1.535039 S    
C31   H24   1.105755 S    
C27   H11   1.084343 S    
C20   N4    1.486969 S    
C34   H34   1.111602 S    
C14   N12   1.498517 S    
C5    C12   1.540669 S    
C14   C18   1.665207 S    
C25   C29   1.568444 S    
C10   C11   1.553640 S    
C16   N14   1.486935 S    
C6    N10   1.453290 S    
C30   H21   1.096113 S    
C26   C30   1.587741 S    
O3    Cu1   1.996457 S    
N11   O26   1.297270 A    
N4    O12   1.303369 A    
C17   C18   1.645197 S    
N7    O18   1.292113 A    
C13   C18   1.664660 S    
C5    C9    1.533928 S    
Cu1   N2    2.124355 S    
C26   N8    1.504455 S    
N8    O20   1.298869 A    
C33   H31   1.080075 S    
N10   O23   1.299442 A    
C5    N9    1.450725 S    
C1    C18   1.608163 S    
C28   H15   1.103222 S    
N6    O15   1.283436 A    
C14   C32   1.561672 S    
O1    C1    1.359691 A    
C19   C20   1.639757 S    
C27   H13   1.099036 S    
C25   C26   1.667767 S    
C21   C22   1.594371 S    
N9    O21   1.300592 A    
Cu2   O8    1.996184 S    
C28   H16   1.080813 S    
N12   O28   1.296758 A    
C7    H1    1.101418 S    
C23   H9    1.097281 S    
N13   O30   1.296957 A    
C24   H10   1.077441 S    
C31   H25   1.073658 S    
C25   N1    1.559455 S    
O3    C2    1.351327 A    
N9    O22   1.299519 A    
C9    C11   1.555616 S    
N3    O9    1.299026 A    
C6    C12   1.548294 S    
N5    O14   1.289075 A    
C30   H22   1.067966 S    
C17   C33   1.566596 S    
C21   N1    1.536806 S    
C29   H19   1.098727 S    
N4    O11   1.291606 A    
C34   H32   1.103629 S    
Cu1   O5    2.085328 S    
C10   H3    1.107768 S    
C13   N11   1.502444 S    
O1    Cu1   2.092041 S    
C4    C8    1.469443 S    
O2    Cu2   2.084869 S    
O8    C4    1.336040 A    
N8    O19   1.300191 A    
O6    C3    1.361561 A    
O4    Cu2   1.989477 S    
C5    C7    1.530026 S    
C32   H28   1.107891 S    
C15   C19   1.594964 S    
C17   C34   1.576911 S    
C14   C16   1.623369 S    
O2    C1    1.365391 A    
C21   H7    1.087562 S    
C33   H29   1.099766 S    
C16   H6    1.090256 S    
C32   H27   1.073364 S    
N14   O32   1.297242 A    
C2    C12   1.510911 S    
N12   O27   1.303330 A    
C7    C8    1.526296 S    
C13   C31   1.579378 S    
C29   H17   1.090112 S    
C22   N2    1.512144 S    
C21   N5    1.463168 S    
Cu2   O6    2.092499 S    
C28   H14   1.094349 S    
C11   H4    1.101720 S    
N13   O29   1.302915 A    
C23   N1    1.523221 S    
C11   C12   1.560340 S    
C31   H23   1.107797 S    
C20   N3    1.504980 S    
C34   H33   1.092178 S    
