data_mof_unit_18128.cif
_audit_creation_date              2012-12-10T18:16:19-0500
_audit_creation_method            fapswitch 2.2
_symmetry_space_group_name_H-M    P1
_symmetry_Int_Tables_number       1
_space_group_crystal_system       triclinic
_cell_length_a                    15.899072
_cell_length_b                    14.665666
_cell_length_c                    10.643933
_cell_angle_alpha                 89.73331
_cell_angle_beta                  90.008457
_cell_angle_gamma                 90.094899
_cell_volume                      2481.82064939

loop_
_atom_site_label
_atom_site_type_symbol
_atom_type_description
_atom_site_fract_x
_atom_site_fract_y
_atom_site_fract_z
_atom_type_partial_charge
C1    C     C_R   0.339768 0.499966 0.500322 0.835672
C2    C     C_3   0.499016 0.500841 0.122195 0.013308
C3    C     C_3   0.049571 0.587157 0.561552 -0.450885
C4    C     C_3   0.049300 0.414146 0.565009 -0.447103
C5    C     C_3   0.951360 0.415011 0.570998 -0.159797
C6    C     C_3   0.951657 0.586489 0.567588 -0.158807
C7    C     C_1   0.749326 0.500220 0.499109 -0.171171
C8    C     C_3   0.082686 0.500170 0.494418 0.179660
C9    C     C_3   0.916824 0.500268 0.497921 0.115501
C10   C     C_3   0.950031 0.499313 0.360447 -0.288877
C11   C     C_3   0.048216 0.499236 0.355933 0.734645
C12   C     C_1   0.824644 0.500285 0.498539 -0.064744
C13   C     C_1   0.174883 0.500120 0.497630 -0.108079
C14   C     C_R   0.499533 0.500252 0.258635 0.787886
C15   C     C_1   0.250291 0.499986 0.499408 -0.172537
C16   C     C_3   0.592879 0.053344 0.510812 -0.394645
C17   C     C_3   0.592811 0.946870 0.511831 -0.395143
C18   C     C_3   0.461225 0.053646 0.383370 -0.446061
C19   C     C_3   0.461759 0.946926 0.382931 -0.442344
C20   C     C_3   0.501805 0.091999 0.505360 0.098475
C21   C     C_3   0.501736 0.907898 0.505348 0.106604
C22   C     C_3   0.448784 0.945698 0.617686 0.233869
C23   C     C_3   0.449574 0.053215 0.618459 0.251287
C24   C     C_1   0.501734 0.804843 0.503816 0.137136
C25   C     C_1   0.501778 0.195124 0.503822 0.150370
C26   C     C_R   0.660018 0.500069 0.499725 0.822632
C27   C     C_R   0.499878 0.499810 0.741060 0.791254
C28   C     C_3   0.498125 0.587334 0.040277 -0.171243
C29   C     C_3   0.430182 0.455907 0.042440 -0.201900
C30   C     C_3   0.430228 0.541882 0.958333 0.039301
C31   C     C_3   0.499267 0.499662 0.877586 -0.019548
C32   C     C_3   0.567778 0.544469 0.957909 -0.193689
C33   C     C_3   0.500067 0.413434 0.960069 -0.137541
C34   C     C_3   0.568699 0.458274 0.042300 -0.159172
Cu1   Cu    Cu3+1 0.499910 0.589920 0.499840 0.970136
Cu2   Cu    Cu3+1 0.499910 0.410080 0.499840 0.976996
H1    H     H_    0.924520 0.558741 0.307918 0.161000
H2    H     H_    0.924281 0.439222 0.310215 0.160504
H3    H     H_    0.629399 0.922101 0.429684 0.172733
H4    H     H_    0.628725 0.077937 0.427448 0.173315
H5    H     H_    0.395347 0.078389 0.374675 0.163437
H6    H     H_    0.396215 0.921275 0.372748 0.163113
H7    H     H_    0.495977 0.079493 0.299692 0.196023
H8    H     H_    0.497483 0.922519 0.299738 0.194545
H9    H     H_    0.383416 0.076060 0.604906 0.102996
H10   H     H_    0.382471 0.923997 0.601926 0.093514
H11   H     H_    0.627262 0.079325 0.594077 0.147195
H12   H     H_    0.626423 0.921338 0.596290 0.145269
H13   H     H_    0.496959 0.658428 0.075647 0.145062
H14   H     H_    0.374916 0.419243 0.081658 0.127044
H15   H     H_    0.623989 0.580375 0.920340 0.133704
H16   H     H_    0.501100 0.342348 0.924706 0.160736
H17   H     H_    0.625583 0.423992 0.080145 0.130912
H18   H     H_    0.936200 0.577092 0.668993 0.126765
H19   H     H_    0.935965 0.425832 0.672006 0.128221
H20   H     H_    0.074928 0.589190 0.658865 0.164490
H21   H     H_    0.074941 0.413151 0.662422 0.170392
H22   H     H_    0.073471 0.351461 0.519433 0.196500
H23   H     H_    0.074124 0.649250 0.513889 0.194653
N1    N     N_1   0.501390 0.724970 0.502570 -0.156238
N2    N     N_1   0.501390 0.275030 0.502570 -0.152440
O1    O     O_R   0.379360 0.575970 0.499860 -0.568624
O2    O     O_R   0.379360 0.424030 0.499860 -0.572859
O3    O     O_R   0.499910 0.575920 0.316720 -0.583656
O4    O     O_R   0.499910 0.424080 0.316720 -0.579870
O5    O     O_R   0.620490 0.575900 0.499870 -0.569815
O6    O     O_R   0.620490 0.424100 0.499870 -0.570336
O7    O     O_R   0.499950 0.575950 0.683010 -0.582937
O8    O     O_R   0.499950 0.424050 0.683010 -0.574354
C35   C     C_R   0.354833 0.590847 0.905608 0.064775
C36   C     C_R   0.273820 0.553303 0.916415 -0.145955
C37   C     C_R   0.204697 0.598636 0.864374 -0.123027
C38   C     C_R   0.215946 0.681486 0.801079 -0.133185
C39   C     C_R   0.296326 0.719324 0.790114 -0.099193
C40   C     C_R   0.365515 0.674410 0.842497 -0.095311
H24   H     H_    0.263873 0.488861 0.964002 0.125049
H25   H     H_    0.142414 0.569365 0.872943 0.130329
H26   H     H_    0.162411 0.716431 0.760675 0.124470
H27   H     H_    0.305050 0.783476 0.741091 0.146685
H28   H     H_    0.427444 0.704612 0.833501 0.161722
O9    O     O_3   0.475177 0.089542 0.734692 -0.707515
H29   H     H_    0.534858 0.073542 0.748833 0.324674
O10   O     O_3   0.472148 0.907338 0.734170 -0.724881
H30   H     H_    0.532551 0.919652 0.748593 0.324955
C41   C     C_R   0.909554 0.324291 0.536371 0.145616
C42   C     C_R   0.844815 0.289681 0.613765 -0.137891
C43   C     C_R   0.803924 0.208111 0.584190 -0.118564
C44   C     C_R   0.827073 0.159550 0.477289 -0.115345
C45   C     C_R   0.891103 0.192608 0.399734 -0.143268
C46   C     C_R   0.932077 0.274319 0.428721 -0.156437
H31   H     H_    0.825133 0.326397 0.696738 0.110359
H32   H     H_    0.754168 0.182648 0.644274 0.118085
H33   H     H_    0.795480 0.096292 0.454612 0.111899
H34   H     H_    0.909124 0.154809 0.316915 0.130962
H35   H     H_    0.981469 0.297342 0.367032 0.183097
C47   C     C_R   0.910242 0.676759 0.529462 0.144617
C48   C     C_R   0.845671 0.712514 0.605519 -0.139947
C49   C     C_R   0.805216 0.793788 0.572904 -0.119044
C50   C     C_R   0.828634 0.840903 0.464233 -0.114164
C51   C     C_R   0.892508 0.806696 0.387957 -0.143507
C52   C     C_R   0.933054 0.725277 0.419998 -0.157659
H36   H     H_    0.825795 0.676936 0.689846 0.108688
H37   H     H_    0.755598 0.820144 0.632015 0.116666
H38   H     H_    0.797364 0.903929 0.439192 0.111278
H39   H     H_    0.910745 0.843376 0.303764 0.131114
H40   H     H_    0.982354 0.701349 0.359231 0.183643
O11   O     O_3   0.074811 0.577279 0.288623 -0.775681
H41   H     H_    0.136815 0.574838 0.279039 0.314937
O12   O     O_3   0.074504 0.420270 0.291674 -0.777510
H42   H     H_    0.136520 0.422510 0.282045 0.312027

loop_
_geom_bond_atom_site_label_1
_geom_bond_atom_site_label_2
_ccdc_geom_bond_type
C43   C44   A    
C8    C13   S    
C23   H9    S    
C11   O12   S    
C38   C39   A    
Cu1   Cu2   S    
C17   H12   S    
C4    C8    S    
C3    C6    S    
C1    O1    A    
C6    C9    S    
C48   C49   A    
Cu2   O6    S    
C46   H35   S    
C41   C42   A    
Cu2   O8    S    
C33   H16   S    
C51   H39   S    
C29   C30   S    
C7    C26   S    
C10   H1    S    
C26   O6    A    
C19   C21   S    
C42   H31   S    
C36   H24   S    
C20   C25   S    
C49   H37   S    
C29   C33   S    
C18   C19   S    
C17   H3    S    
C45   H34   S    
C27   O7    A    
C31   C32   S    
C16   C17   S    
C4    H21   S    
O11   H41   S    
C31   C33   S    
Cu1   O3    S    
C1    C15   S    
Cu2   O2    S    
C40   H28   S    
C48   H36   S    
C27   O8    A    
C19   H6    S    
C24   N1    T    
C5    C41   S    
C2    C34   S    
C50   H38   S    
C47   C52   A    
C6    H18   S    
C1    O2    A    
C16   H11   S    
C30   C35   S    
O9    H29   S    
C29   H14   S    
C7    C12   T    
C39   C40   A    
C27   C31   S    
C26   O5    A    
C28   C32   S    
C3    C8    S    
O12   H42   S    
C18   H5    S    
C42   C43   A    
C4    C5    S    
Cu1   O5    S    
C38   H26   S    
C17   C21   S    
Cu1   N1    S    
C28   H13   S    
C32   C34   S    
C32   H15   S    
C5    C9    S    
C37   H25   S    
C3    H20   S    
C50   C51   A    
C20   C23   S    
C16   C20   S    
C14   O3    A    
C47   C48   A    
C33   C34   S    
C25   N2    T    
C35   C36   A    
C16   H4    S    
C22   H10   S    
C6    C47   S    
C39   H27   S    
C13   C15   T    
C11   O11   S    
O10   H30   S    
Cu2   N2    S    
C43   H32   S    
C19   H8    S    
C9    C10   S    
C52   H40   S    
C44   H33   S    
C23   O9    S    
Cu2   O4    S    
C5    H19   S    
C37   C38   A    
C41   C46   A    
C10   H2    S    
C22   O10   S    
C28   C30   S    
C36   C37   A    
C18   H7    S    
C30   C31   S    
Cu1   O7    S    
C8    C11   S    
C51   C52   A    
C14   O4    A    
Cu1   O1    S    
C18   C20   S    
C2    C14   S    
C9    C12   S    
C10   C11   S    
C2    C29   S    
C44   C45   A    
C34   H17   S    
C49   C50   A    
C21   C24   S    
C4    H22   S    
C35   C40   A    
C22   C23   S    
C2    C28   S    
C45   C46   A    
C21   C22   S    
C3    H23   S    
