data_mof_unit_53297.cif
_audit_creation_date              2012-12-10T16:59:17-0500
_audit_creation_method            fapswitch 2.2
_symmetry_space_group_name_H-M    P1
_symmetry_Int_Tables_number       1
_space_group_crystal_system       triclinic
_cell_length_a                    7.829785
_cell_length_b                    8.55198
_cell_length_c                    27.5619
_cell_angle_alpha                 93.902594
_cell_angle_beta                  87.107915
_cell_angle_gamma                 93.621493
_cell_volume                      1835.61765119

loop_
_atom_site_label
_atom_site_type_symbol
_atom_type_description
_atom_site_fract_x
_atom_site_fract_y
_atom_site_fract_z
_atom_type_partial_charge
C1    C     C_R   0.545277 0.794346 0.499046 0.958692
C2    C     C_R   0.454766 0.205701 0.501312 0.963096
C3    C     C_R   0.517806 0.614796 0.897825 -0.098360
C4    C     C_R   0.452389 0.597197 0.101129 -0.101968
C5    C     C_R   0.604231 0.743869 0.875613 -0.143963
C6    C     C_R   0.336865 0.486309 0.122522 -0.125738
C7    C     C_R   0.653875 0.879534 0.905483 0.232102
C8    C     C_R   0.206475 0.410445 0.094177 0.266720
C9    C     C_R   0.451469 0.485774 0.868954 -0.048299
C10   C     C_R   0.553456 0.701085 0.130714 -0.049706
C11   C     C_R   0.523532 0.534176 0.646030 -0.183764
C12   C     C_R   0.488431 0.509344 0.352560 -0.210183
C13   C     C_R   0.584672 0.715672 0.028934 0.031959
C14   C     C_R   0.392645 0.491727 0.970288 0.033606
C15   C     C_R   0.356088 0.505795 0.021120 -0.015119
C16   C     C_R   0.577768 0.735632 0.978355 -0.038041
C17   C     C_R   0.465157 0.605717 0.050271 -0.028254
C18   C     C_R   0.496751 0.613766 0.948864 -0.029891
C19   C     C_R   0.708760 0.796697 0.058849 0.548161
C20   C     C_R   0.335109 0.357559 0.940714 0.552603
C21   C     C_R   0.676586 0.803543 0.109674 -0.263302
C22   C     C_R   0.368239 0.357492 0.890343 -0.211640
C23   C     C_R   0.505087 0.505519 0.593747 0.937161
C24   C     C_R   0.496466 0.500491 0.405816 0.914478
C25   C     C_R   0.635803 0.876390 0.956646 0.263559
C26   C     C_R   0.209819 0.431460 0.043974 0.246564
C27   C     C_2   0.569067 0.957919 0.498710 -0.292958
C28   C     C_2   0.430964 0.042227 0.502342 -0.296169
C29   C     C_R   0.629210 0.732949 0.824121 0.592191
C30   C     C_R   0.354355 0.460979 0.171933 0.601806
C31   C     C_R   0.471259 0.485113 0.818596 0.574017
C32   C     C_R   0.536515 0.693775 0.181124 0.572290
C33   C     C_R   0.651457 0.471917 0.719948 -0.086914
C34   C     C_R   0.621243 0.573311 0.274178 -0.101591
C35   C     C_R   0.624790 0.437688 0.670778 0.236042
C36   C     C_R   0.631991 0.566889 0.324293 0.240847
C37   C     C_R   0.456129 0.668320 0.670852 0.228198
C38   C     C_R   0.334231 0.466838 0.328909 0.249680
C39   C     C_R   0.480271 0.698234 0.720391 -0.109287
C40   C     C_R   0.320107 0.495462 0.280348 -0.103080
C41   C     C_R   0.574342 0.598484 0.745238 0.166228
C42   C     C_R   0.463714 0.544675 0.251987 0.154013
H1    H     H_    0.420292 0.795760 0.740099 0.194696
H2    H     H_    0.196453 0.474842 0.264444 0.213404
H3    H     H_    0.735520 0.607811 0.252808 0.202181
H4    H     H_    0.722301 0.393621 0.739528 0.198519
H5    H     H_    0.756173 0.880045 0.133166 0.202742
H6    H     H_    0.331687 0.255475 0.867255 0.205323
H7    H     H_    0.699763 0.008304 0.495312 0.222271
H8    H     H_    0.300212 0.991762 0.505887 0.219805
N1    N     N_R   0.561317 0.605659 0.797281 -0.349487
N2    N     N_R   0.449852 0.567189 0.200861 -0.339923
N3    N     N_2   0.950320 0.457960 0.486880 0.098583
N4    N     N_2   0.049680 0.542040 0.513120 0.082430
O1    O     O_R   0.389250 0.738570 0.503220 -0.602778
O2    O     O_R   0.610750 0.261430 0.496780 -0.597330
O3    O     O_R   0.678390 0.711630 0.494810 -0.590483
O4    O     O_R   0.321610 0.288370 0.505190 -0.587370
O5    O     O_R   0.355440 0.513440 0.575450 -0.572635
O6    O     O_R   0.644560 0.486560 0.424550 -0.563692
O7    O     O_R   0.644590 0.486500 0.567040 -0.582491
O8    O     O_R   0.355410 0.513500 0.432960 -0.585273
O9    O     O_2   0.722557 0.844940 0.800811 -0.468326
O10   O     O_2   0.284776 0.327754 0.190038 -0.486932
O11   O     O_2   0.608214 0.811154 0.210039 -0.521405
O12   O     O_2   0.398601 0.365180 0.790734 -0.521991
Zn1   Zn    Zn3+2 0.306940 0.517990 0.505620 1.124368
Zn2   Zn    Zn3+2 0.693060 0.482010 0.494380 1.128855
Br1   Br    Br    0.336050 0.818306 0.638943 -0.360623
Br2   Br    Br    0.140784 0.355201 0.357824 -0.339242
Br3   Br    Br    0.001528 0.250578 0.468352 -0.286270
Br4   Br    Br    0.969565 0.713661 0.551797 -0.277128
Br5   Br    Br    0.727469 0.077358 0.878457 -0.414651
Br6   Br    Br    0.007815 0.301983 0.123761 -0.383833
Br7   Br    Br    0.841692 0.654809 0.351128 -0.377791
Br8   Br    Br    0.718718 0.250963 0.640305 -0.359342
O13   O     O_3   0.860612 0.861722 0.037537 -0.581831
C43   C     C_3   0.002192 0.853317 0.067284 0.124263
H9    H     H_    0.003777 0.735962 0.082564 0.152963
H10   H     H_    0.000337 0.947132 0.097163 0.198670
C44   C     C_3   0.168690 0.880552 0.037928 -0.740014
H11   H     H_    0.177994 0.000719 0.025181 0.301006
H12   H     H_    0.176133 0.791879 0.006721 0.248686
H13   H     H_    0.277645 0.870755 0.061489 0.219937
O14   O     O_3   0.274052 0.220562 0.962438 -0.599363
C45   C     C_3   0.145582 0.131246 0.936004 0.158136
H14   H     H_    0.082815 0.198071 0.909287 0.176149
H15   H     H_    0.040598 0.095894 0.962280 0.245555
C46   C     C_3   0.214914 0.980604 0.911720 -0.803035
H16   H     H_    0.308609 0.005190 0.881367 0.261851
H17   H     H_    0.107524 0.903452 0.897075 0.247826
H18   H     H_    0.279549 0.916825 0.938439 0.255765
Br9   Br    Br    0.639743 0.075230 0.995139 -0.364838
Br10  Br    Br    0.995647 0.412433 0.011392 -0.451695

loop_
_geom_bond_atom_site_label_1
_geom_bond_atom_site_label_2
_ccdc_geom_bond_type
C26   Br10  S    
C31   O12   S    
C22   H6    S    
C29   O9    S    
C25   Br9   S    
C37   Br1   S    
C8    C26   A    
C14   C18   A    
C34   C42   A    
C38   Br2   S    
C44   H11   S    
C7    Br5   S    
N3    N4    D    
C23   O5    A    
O8    Zn1   S    
C19   C21   A    
C30   O10   S    
O14   C45   S    
C43   H10   S    
C9    C22   A    
C3    C18   A    
C11   C37   A    
C19   O13   S    
N3    Zn2   S    
C32   N2    A    
O5    Zn1   S    
O7    Zn2   S    
C28   H8    S    
C12   C36   A    
C34   C36   A    
O13   C43   S    
C40   C42   A    
C33   H4    S    
C44   H12   S    
C5    C29   A    
C10   C21   A    
C39   H1    S    
C35   Br8   S    
C13   C19   A    
C14   C20   A    
C4    C6    A    
C5    C7    A    
C43   H9    S    
C15   C26   A    
C6    C8    A    
N4    Zn1   S    
O2    Zn2   S    
C3    C9    A    
C36   Br7   S    
C1    O3    A    
C40   H2    S    
C24   O6    A    
C20   O14   S    
C8    Br6   S    
C34   H3    S    
C46   H18   S    
O6    Zn2   S    
C4    C17   A    
C6    C30   A    
C20   C22   A    
C46   H17   S    
O3    Zn2   S    
C4    C10   A    
N3    Br3   S    
C44   H13   S    
C29   N1    A    
C16   C25   A    
C15   C17   A    
C30   N2    A    
C24   O8    A    
C45   H14   S    
C31   N1    A    
C3    C5    A    
C45   C46   S    
O1    Zn1   S    
C2    O4    A    
C12   C24   S    
C7    C25   A    
C13   C17   A    
C33   C41   A    
C11   C35   A    
C1    O1    A    
C37   C39   A    
C2    O2    A    
C38   C40   A    
C43   C44   S    
C11   C23   S    
C33   C35   A    
C45   H15   S    
C12   C38   A    
C9    C31   A    
C10   C32   A    
O4    Zn1   S    
C23   O7    A    
N4    Br4   S    
C39   C41   A    
C16   C18   A    
C13   C16   A    
C27   C28   D    
C1    C27   S    
C14   C15   A    
C2    C28   S    
C46   H16   S    
C41   N1    S    
C27   H7    S    
C42   N2    S    
C32   O11   S    
C21   H5    S    
