data_mof_unit_18778.cif
_audit_creation_date              2012-10-26T18:33:52-0400
_audit_creation_method            fapswitch 2.2
_symmetry_space_group_name_H-M    P1
_symmetry_Int_Tables_number       1
_space_group_crystal_system       triclinic
_cell_length_a                    11.182535
_cell_length_b                    10.845322
_cell_length_c                    9.552391
_cell_angle_alpha                 90.283844
_cell_angle_beta                  101.433887
_cell_angle_gamma                 91.578618
_cell_volume                      1135.01021272

loop_
_atom_site_label
_atom_site_type_symbol
_atom_type_description
_atom_site_fract_x
_atom_site_fract_y
_atom_site_fract_z
_atom_type_partial_charge
C1    C     C_R   0.490752 0.262689 0.497731 0.606432
C2    C     C_2   0.869133 0.502422 0.583887 -0.060835
C3    C     C_2   0.068423 0.532122 0.520128 -0.061416
C4    C     C_2   0.934949 0.531501 0.483359 -0.026736
C5    C     C_R   0.386573 0.057172 0.509745 0.213670
C6    C     C_R   0.609546 0.943297 0.491639 0.218555
C7    C     C_R   0.392071 0.928137 0.502732 -0.074065
C8    C     C_R   0.601365 0.072148 0.484167 -0.076643
C9    C     C_R   0.503555 0.871894 0.500581 -0.052861
C10   C     C_R   0.492100 0.128623 0.497964 -0.054040
C11   C     C_1   0.880946 0.566708 0.338513 0.310102
C12   C     C_R   0.505433 0.737572 0.501290 0.603407
C13   C     C_1   0.126639 0.572069 0.663969 0.266237
C14   C     C_1   0.349814 0.328375 0.107092 0.255638
C15   C     C_1   0.647945 0.674201 0.893882 0.278727
C16   C     C_1   0.281187 0.852457 0.486781 0.311731
C17   C     C_1   0.704217 0.148127 0.460070 0.320066
C18   C     C_R   0.264160 0.501930 0.444123 0.594948
C19   C     C_R   0.736151 0.499215 0.556079 0.602213
C20   C     C_R   0.429140 0.416455 0.056200 0.090468
C21   C     C_R   0.569557 0.584626 0.943851 0.091689
C22   C     C_R   0.429684 0.416775 0.908121 0.020285
C23   C     C_R   0.567104 0.585672 0.091449 0.026900
C24   C     C_2   0.131821 0.503040 0.417859 -0.080167
Cu1   Cu    Cu3+1 0.500000 0.500020 0.640660 1.058115
Cu2   Cu    Cu3+1 0.500000 0.499980 0.359340 1.054537
H1    H     H_    0.914975 0.480229 0.691661 0.112575
H2    H     H_    0.084658 0.477969 0.310414 0.130601
H3    H     H_    0.373542 0.350344 0.838276 0.169100
H4    H     H_    0.618565 0.655501 0.161109 0.181916
H5    H     H_    0.182386 0.281868 0.623965 0.361211
H6    H     H_    0.942046 0.920282 0.516027 0.405797
N1    N     N_R   0.500030 0.500030 0.852080 -0.257887
N2    N     N_R   0.499970 0.499970 0.147920 -0.262079
N3    N     N_1   0.841572 0.594449 0.222153 -0.262609
N4    N     N_1   0.172460 0.603965 0.778327 -0.248863
N5    N     N_1   0.285400 0.257112 0.146585 -0.204021
N6    N     N_1   0.711773 0.747098 0.856146 -0.182507
N7    N     N_1   0.192050 0.793092 0.472757 -0.250994
N8    N     N_1   0.785625 0.209281 0.440315 -0.220834
O1    O     O_R   0.499990 0.319660 0.618740 -0.471504
O2    O     O_2   0.171752 0.042883 0.601115 -0.256871
O3    O     O_3   0.264270 0.261547 0.607171 -0.535177
O4    O     O_2   0.764864 0.760058 0.575270 -0.287901
O5    O     O_2   0.745883 0.833483 0.330251 -0.286057
O6    O     O_3   0.872175 0.965889 0.537592 -0.457115
O7    O     O_R   0.500010 0.680340 0.381260 -0.491418
O8    O     O_R   0.499990 0.319630 0.381170 -0.508888
O9    O     O_R   0.500010 0.680370 0.618830 -0.497617
O10   O     O_R   0.320690 0.500020 0.575130 -0.479375
O11   O     O_R   0.679310 0.499980 0.424870 -0.488374
O12   O     O_R   0.320680 0.499990 0.337560 -0.495997
O13   O     O_R   0.679320 0.500010 0.662440 -0.494674
O14   O     O_2   0.172628 0.143685 0.372968 -0.234686
S1    S     S_3+6 0.244628 0.125568 0.521382 0.036434
S2    S     S_3+6 0.749733 0.871612 0.482492 0.040860

loop_
_geom_bond_atom_site_label_1
_geom_bond_atom_site_label_2
_ccdc_geom_bond_type
C2    C4    D    
C1    O8    A    
C2    H1    S    
C22   H3    S    
Cu2   O12   S    
O2    S1    D    
O4    S2    D    
C8    C17   S    
C3    C13   S    
Cu2   O8    S    
C23   N2    A    
C20   N2    A    
C19   O13   A    
C6    C9    A    
C11   N3    T    
C12   O9    A    
C2    C19   S    
C18   O12   A    
C5    C10   A    
C15   N6    T    
Cu1   O1    S    
Cu2   O11   S    
C4    C11   S    
C6    S2    S    
C3    C24   D    
H5    O3    S    
Cu2   O7    S    
C12   O7    A    
C18   C24   S    
C1    O1    A    
C7    C16   S    
Cu1   O13   S    
C19   O11   A    
C5    C7    A    
C21   C23   A    
C9    C12   S    
Cu1   O9    S    
Cu1   N1    S    
C16   N7    T    
O6    S2    S    
C3    C4    S    
C23   H4    S    
C14   C20   S    
C15   C21   S    
C21   N1    A    
C18   O10   A    
C13   N4    T    
C8    C10   A    
O3    S1    S    
C7    C9    A    
C22   N1    A    
Cu1   O10   S    
C6    C8    A    
Cu2   N2    S    
Cu1   Cu2   S    
O14   S1    D    
H6    O6    S    
C5    S1    S    
C1    C10   S    
C24   H2    S    
O5    S2    D    
C20   C22   A    
C14   N5    T    
C17   N8    T    
