data_mof_unit_38371.cif
_audit_creation_date              2012-12-11T15:41:31-0500
_audit_creation_method            fapswitch 2.2
_symmetry_space_group_name_H-M    P1
_symmetry_Int_Tables_number       1
_space_group_crystal_system       triclinic
_cell_length_a                    14.834756
_cell_length_b                    14.973185
_cell_length_c                    14.895633
_cell_angle_alpha                 108.937433
_cell_angle_beta                  109.388157
_cell_angle_gamma                 109.338762
_cell_volume                      2570.26369795

loop_
_atom_site_label
_atom_site_type_symbol
_atom_type_description
_atom_site_fract_x
_atom_site_fract_y
_atom_site_fract_z
_atom_type_partial_charge
C1    C     C_R   0.252129 0.066507 0.974444 -0.123307
C2    C     C_R   0.805515 0.006206 0.096986 -0.148696
C3    C     C_R   0.784827 0.322471 0.325217 -0.026408
C4    C     C_R   0.143837 0.693999 0.691599 -0.010542
C5    C     C_R   0.500923 0.934507 0.302663 0.048997
C6    C     C_R   0.502026 0.951746 0.675454 0.037296
C7    C     C_R   0.499744 0.295656 0.923623 0.054795
C8    C     C_R   0.508087 0.678084 0.959762 0.041237
C9    C     C_R   0.218367 0.097979 0.582626 -0.121689
C10   C     C_R   0.829330 0.812977 0.261515 -0.147829
C11   C     C_R   0.315044 0.194511 0.664613 -0.143523
C12   C     C_R   0.729780 0.721871 0.175702 -0.143340
C13   C     C_R   0.311030 0.279196 0.737057 0.114660
C14   C     C_R   0.718322 0.671308 0.071781 0.107142
C15   C     C_R   0.208477 0.266100 0.724719 -0.178637
C16   C     C_R   0.809086 0.709302 0.056391 -0.154217
C17   C     C_R   0.112069 0.169552 0.642429 -0.110532
C18   C     C_R   0.909057 0.798969 0.143002 -0.131302
C19   C     C_R   0.117027 0.085463 0.571713 -0.097553
C20   C     C_R   0.919016 0.851143 0.245267 -0.136668
C21   C     C_R   0.420084 0.480570 0.841288 -0.236675
C22   C     C_R   0.607531 0.477551 0.958032 -0.233942
C23   C     C_R   0.752637 0.220533 0.314364 -0.144327
C24   C     C_R   0.202242 0.788426 0.695306 -0.163845
C25   C     C_R   0.515521 0.578422 0.925139 0.072150
C26   C     C_R   0.506533 0.381499 0.894244 0.050651
C27   C     C_R   0.612711 0.576218 0.979902 0.020073
C28   C     C_R   0.413795 0.380835 0.825264 0.032117
C29   C     C_R   0.857812 0.475490 0.502511 -0.196994
C30   C     C_R   0.065408 0.542454 0.518022 -0.199632
C31   C     C_R   0.946820 0.570868 0.592097 -0.162624
C32   C     C_R   0.977969 0.446784 0.430841 -0.154435
C33   C     C_R   0.049116 0.603268 0.597702 0.142301
C34   C     C_R   0.874683 0.415232 0.422671 0.144850
C35   C     C_R   0.602288 0.946253 0.571946 -0.169787
C36   C     C_R   0.403186 0.842562 0.379967 -0.172548
C37   C     C_R   0.601926 0.943278 0.478057 -0.177365
C38   C     C_R   0.403661 0.845233 0.473850 -0.175416
C39   C     C_R   0.502079 0.901534 0.384974 0.143691
C40   C     C_R   0.502872 0.908128 0.572850 0.145751
C41   C     C_R   0.131329 0.062338 0.160820 -0.173401
C42   C     C_R   0.037054 0.160149 0.059234 -0.174376
C43   C     C_R   0.039814 0.065216 0.163337 -0.174783
C44   C     C_R   0.129135 0.158253 0.057629 -0.169366
C45   C     C_R   0.409384 0.905191 0.209788 -0.141490
C46   C     C_R   0.593156 0.027520 0.777899 -0.128677
C47   C     C_R   0.985181 0.102945 0.101717 0.141218
C48   C     C_R   0.168127 0.097689 0.096932 0.145415
C49   C     C_R   0.589774 0.292645 0.986005 -0.125599
C50   C     C_R   0.413103 0.685848 0.942441 -0.127253
C51   C     C_R   0.591703 0.996508 0.300185 -0.132285
C52   C     C_R   0.409414 0.936734 0.686119 -0.126296
C53   C     C_R   0.408671 0.207716 0.901891 -0.142439
C54   C     C_R   0.595362 0.781902 0.026168 -0.127438
C55   C     C_R   0.758240 0.314294 0.223212 0.033614
C56   C     C_R   0.200161 0.696487 0.787248 0.021344
C57   C     C_R   0.252046 0.974866 0.066897 -0.144317
C58   C     C_R   0.803819 0.094172 0.002630 -0.151323
C59   C     C_R   0.226687 0.052403 0.052290 0.047046
C60   C     C_R   0.869181 0.067597 0.067005 0.052676
H1    H     H_    0.242497 0.119576 0.942149 0.093600
H2    H     H_    0.833734 0.984209 0.158909 0.107223
H3    H     H_    0.222041 0.032781 0.527691 0.105296
H4    H     H_    0.837372 0.853060 0.340906 0.108520
H5    H     H_    0.393003 0.202999 0.672164 0.116219
H6    H     H_    0.661014 0.692189 0.189224 0.119420
H7    H     H_    0.203227 0.329788 0.779827 0.115456
H8    H     H_    0.802071 0.669868 0.977331 0.117512
H9    H     H_    0.033505 0.159717 0.633867 0.099049
H10   H     H_    0.978798 0.828095 0.130787 0.111003
H11   H     H_    0.348573 0.481634 0.791444 0.125481
H12   H     H_    0.682024 0.479848 0.005834 0.141880
H13   H     H_    0.776852 0.449419 0.494545 0.126996
H14   H     H_    0.146086 0.567827 0.525137 0.129423
H15   H     H_    0.936815 0.618683 0.656498 0.125061
H16   H     H_    0.989754 0.398436 0.368319 0.127689
H17   H     H_    0.680629 0.988596 0.645432 0.106740
H18   H     H_    0.324698 0.803321 0.307446 0.104135
H19   H     H_    0.164929 0.022247 0.199265 0.105000
H20   H     H_    0.001547 0.197074 0.017552 0.103527
H21   H     H_    0.770460 0.199686 0.378762 0.109708
H22   H     H_    0.174185 0.815672 0.638060 0.106947
H23   H     H_    0.670691 0.333139 0.997394 0.112116
H24   H     H_    0.330664 0.619443 0.895243 0.117938
H25   H     H_    0.676106 0.020456 0.350895 0.082255
H26   H     H_    0.324886 0.886231 0.622853 0.090762
H27   H     H_    0.323814 0.177854 0.846824 0.116902
H28   H     H_    0.679802 0.809520 0.048208 0.132401
H29   H     H_    0.242021 0.943059 0.120417 0.091999
H30   H     H_    0.829804 0.151588 0.975357 0.077200
H31   H     H_    0.042319 0.010561 0.508640 0.092481
H32   H     H_    0.996426 0.920813 0.311961 0.105217
N1    N     N_R   0.293810 0.002730 0.945950 -0.039059
N2    N     N_R   0.706190 0.997270 0.054050 -0.039440
N3    N     N_R   0.706160 0.152130 0.208910 -0.046631
N4    N     N_R   0.293840 0.847870 0.791090 -0.042786
N5    N     N_R   0.443140 0.945920 0.152090 -0.038727
N6    N     N_R   0.556860 0.054080 0.847910 -0.040853
N7    N     N_R   0.556830 0.208940 0.002760 -0.043511
N8    N     N_R   0.443170 0.791060 0.997240 -0.041229
N9    N     N_R   0.556790 0.002750 0.208910 -0.035653
N10   N     N_R   0.443210 0.997250 0.791090 -0.037425
N11   N     N_R   0.443180 0.152110 0.945950 -0.041111
N12   N     N_R   0.556820 0.847890 0.054050 -0.042172
N13   N     N_R   0.706170 0.208950 0.152090 -0.061317
N14   N     N_R   0.293830 0.791050 0.847910 -0.058671
N15   N     N_R   0.293800 0.945910 0.002760 -0.047354
N16   N     N_R   0.706200 0.054090 0.997240 -0.036947
Ni1   Ni    Ni4+2 0.369690 0.999990 0.869700 0.213027
Ni2   Ni    Ni4+2 0.630310 0.000010 0.130300 0.209282
Ni3   Ni    Ni4+2 0.369670 0.869670 0.000000 0.210947
Ni4   Ni    Ni4+2 0.630330 0.130330 0.000000 0.205033
H33   H     H_    0.680163 0.983462 0.482984 0.103825
H34   H     H_    0.325487 0.807545 0.469975 0.108649
H35   H     H_    0.006741 0.028297 0.204523 0.115678
H36   H     H_    0.160957 0.193911 0.014858 0.108408
H37   H     H_    0.325767 0.845507 0.178313 0.079803
H38   H     H_    0.678512 0.059795 0.799844 0.093768
C61   C     C_R   0.812169 0.402700 0.203473 0.115352
C62   C     C_R   0.821296 0.504430 0.256076 -0.142574
C63   C     C_R   0.883625 0.591574 0.247931 -0.101557
C64   C     C_R   0.935161 0.577511 0.185304 -0.087309
C65   C     C_R   0.925913 0.476423 0.132098 -0.134849
C66   C     C_R   0.865923 0.389705 0.142319 -0.186649
H39   H     H_    0.782508 0.516925 0.305560 0.115353
H40   H     H_    0.893429 0.670384 0.291822 0.131240
H41   H     H_    0.983404 0.645186 0.179152 0.107714
H42   H     H_    0.966919 0.465782 0.084648 0.106596
H43   H     H_    0.862959 0.313266 0.104270 0.113533
C67   C     C_R   0.153916 0.623480 0.826663 0.096356
C68   C     C_R   0.163948 0.666327 0.930639 -0.146497
C69   C     C_R   0.121933 0.597480 0.968524 -0.126225
C70   C     C_R   0.069862 0.485153 0.903047 -0.079859
C71   C     C_R   0.059871 0.441569 0.799660 -0.120230
C72   C     C_R   0.101739 0.510211 0.761533 -0.165169
H44   H     H_    0.203170 0.752684 0.982036 0.112159
H45   H     H_    0.129715 0.631268 0.048667 0.096727
H46   H     H_    0.037522 0.431922 0.932509 0.090497
H47   H     H_    0.020254 0.354548 0.749251 0.102071
H48   H     H_    0.095427 0.474808 0.682300 0.126486

loop_
_geom_bond_atom_site_label_1
_geom_bond_atom_site_label_2
_ccdc_geom_bond_type
C18   H10   S    
N7    N11   A    
C42   H20   S    
C3    C23   A    
C67   C72   A    
C38   H34   S    
C51   H25   S    
C50   H24   S    
C65   C66   A    
C55   C61   S    
C61   C66   A    
C17   H9    S    
C20   H32   S    
N2    N16   A    
C7    C26   S    
C57   H29   S    
C21   H11   S    
C54   N12   A    
C35   C37   A    
C1    C59   A    
C30   H14   S    
C2    C60   A    
C57   C59   A    
C37   H33   S    
C58   C60   A    
N8    N12   A    
C46   H38   S    
C64   H41   S    
C24   H22   S    
C21   C25   A    
N3    N13   A    
C43   H35   S    
C47   C60   S    
C3    C55   A    
C9    C19   A    
C10   C20   A    
C69   C70   A    
C31   C33   A    
C13   C28   S    
C16   H8    S    
C14   C27   S    
C6    C46   A    
C58   N16   A    
C46   N6    A    
C70   H46   S    
C38   C40   A    
C4    C56   A    
C8    C25   S    
C41   C43   A    
C42   C44   A    
C22   H12   S    
C26   C28   A    
N14   Ni3   S    
C72   H48   S    
N6    Ni4   S    
C2    N2    A    
C6    C40   S    
C7    C49   A    
C68   H44   S    
C8    C54   A    
C71   H47   S    
C62   H39   S    
C17   C19   A    
C3    C34   S    
C69   H45   S    
N6    N10   A    
C5    C45   A    
C29   C34   A    
C35   H17   S    
N16   Ni4   S    
C32   C34   A    
C32   H16   S    
C49   N7    A    
C58   H30   S    
C31   H15   S    
C29   C31   A    
C15   H7    S    
C53   H27   S    
C9    C11   A    
C56   N14   A    
C63   C64   A    
C10   C12   A    
C16   C18   A    
C57   N15   A    
C21   C28   A    
C12   C14   A    
C22   C27   A    
C13   C15   A    
C70   C71   A    
C14   C16   A    
C51   N9    A    
C7    C53   A    
C68   C69   A    
C8    C50   A    
C62   C63   A    
N12   Ni2   S    
C48   C59   S    
C45   H37   S    
C15   C17   A    
C5    C39   S    
N4    N14   A    
C4    C33   S    
C23   H21   S    
C30   C33   A    
C9    H3    S    
N15   Ni3   S    
N13   Ni4   S    
C36   C39   A    
C10   H4    S    
N3    Ni2   S    
C1    H1    S    
C41   H19   S    
C61   C62   A    
C71   C72   A    
C25   C27   A    
N4    Ni1   S    
C50   N8    A    
C52   N10   A    
N11   Ni1   S    
C54   H28   S    
C24   N4    A    
C67   C68   A    
N9    Ni2   S    
C63   H40   S    
C37   C39   A    
C44   C48   A    
C45   N5    A    
N1    N15   A    
C36   C38   A    
C30   C32   A    
C11   C13   A    
C49   H23   S    
C65   H42   S    
C12   H6    S    
C53   N11   A    
C4    C24   A    
N5    Ni3   S    
N7    Ni4   S    
C52   H26   S    
C55   N13   A    
C41   C48   A    
N2    Ni2   S    
C66   H43   S    
C35   C40   A    
C18   C20   A    
C42   C47   A    
C56   C67   S    
C19   H31   S    
C2    H2    S    
C29   H13   S    
C44   H36   S    
N8    Ni3   S    
C1    N1    A    
C22   C26   A    
C23   N3    A    
C5    C51   A    
N10   Ni1   S    
C36   H18   S    
C6    C52   A    
C64   C65   A    
C43   C47   A    
N5    N9    A    
C11   H5    S    
N1    Ni1   S    
