data_mof_unit_54477.cif
_audit_creation_date              2013-03-05T16:16:18-0500
_audit_creation_method            fapswitch 2.2
_symmetry_space_group_name_H-M    P1
_symmetry_Int_Tables_number       1
_space_group_crystal_system       triclinic
_cell_length_a                    8.382968
_cell_length_b                    19.12711
_cell_length_c                    27.17594
_cell_angle_alpha                 98.062808
_cell_angle_beta                  92.433025
_cell_angle_gamma                 85.054573
_cell_volume                      4296.27191214

loop_
_atom_site_label
_atom_site_type_symbol
_atom_site_description
_atom_site_fract_x
_atom_site_fract_y
_atom_site_fract_z
_atom_type_partial_charge
P1    P     P_3+3 0.084800 0.558370 0.611580 0.500937
O1    O     O_2   0.914730 0.537460 0.618690 -0.361127
O2    O     O_3   0.146720 0.537410 0.558510 -0.373309
O3    O     O_3   0.666360 0.409390 0.586570 -0.323294
O4    O     O_2   0.755169 0.485139 0.673244 -0.384297
O5    O     O_3   0.067845 0.650407 0.627957 -0.549850
O6    O     O_3   0.770458 0.348250 0.672707 -0.489403
H1    H     H_    0.675652 0.273827 0.619227 0.122887
C1    C     C_3   0.757416 0.226769 0.684383 -0.138826
P2    P     P_3+3 0.628800 0.338360 0.458800 0.633148
P3    P     P_3+3 0.097174 0.280142 0.555863 0.653378
O7    O     O_2   0.806150 0.327840 0.473120 -0.257389
O8    O     O_3   0.073640 0.373350 0.561550 -0.291428
O9    O     O_2   0.938749 0.255232 0.531556 -0.288722
O10   O     O_3   0.667813 0.315123 0.395028 -0.596636
O11   O     O_3   0.084104 0.253163 0.614598 -0.502871
C2    C     C_3   0.217350 0.272071 0.644684 0.357577
H2    H     H_    0.219543 0.330650 0.651299 0.114556
C3    C     C_3   0.205174 0.247065 0.694969 -0.786723
C4    C     C_3   0.085291 0.296133 0.365954 0.921099
C5    C     C_3   0.943013 0.307868 0.330810 -0.866527
H3    H     H_    0.984031 0.314844 0.293582 0.286930
H4    H     H_    0.873302 0.260762 0.327274 0.256234
H5    H     H_    0.870156 0.356099 0.345371 0.222088
Ba1   Ba    Ba6+2 0.852670 0.466460 0.522850 1.753404
C6    C     C_3   0.009850 0.683136 0.587314 0.378982
H6    H     H_    0.889153 0.666452 0.576304 0.081439
H7    H     H_    0.091331 0.669876 0.555583 0.114839
C7    C     C_3   0.999414 0.762935 0.602959 -0.902600
H8    H     H_    0.913062 0.777927 0.633276 0.277641
H9    H     H_    0.119083 0.779794 0.616310 0.271355
C8    C     C_3   0.548307 0.339969 0.363194 0.551793
H10   H     H_    0.437023 0.346698 0.382409 0.092102
C9    C     C_3   0.535932 0.284843 0.315621 -0.134327
H11   H     H_    0.643103 0.282504 0.292984 0.161558
H12   H     H_    0.532086 0.231363 0.326582 0.198859
P4    P     P_3+3 0.104900 0.441570 0.388420 0.565841
O12   O     O_2   0.274960 0.462520 0.381280 -0.306060
O13   O     O_3   0.042980 0.462530 0.441480 -0.333021
O14   O     O_3   0.523340 0.590550 0.413420 -0.266075
O15   O     O_3   0.181075 0.352882 0.370664 -0.615914
P5    P     P_3+3 0.092803 0.718562 0.440178 0.543255
O16   O     O_3   0.635780 0.584660 0.526290 -0.394380
O17   O     O_3   0.116060 0.626590 0.438450 -0.426576
O18   O     O_2   0.237890 0.749884 0.469747 -0.318428
O19   O     O_3   0.112990 0.738267 0.379946 -0.418710
Ba2   Ba    Ba6+2 0.337150 0.533490 0.477140 1.718677
P6    P     P_3+3 0.660686 0.421400 0.652209 0.565933
C10   C     C_3   0.680223 0.289224 0.660275 0.298274
O20   O     O_3   0.553920 0.415280 0.473710 -0.311148
C11   C     C_3   0.516310 0.635843 0.629176 0.359920
H13   H     H_    0.391911 0.626568 0.615967 0.089532
C12   C     C_3   0.518476 0.653088 0.685553 -0.826960
H14   H     H_    0.436672 0.700935 0.696897 0.268718
P7    P     P_3+3 0.565175 0.673221 0.544126 0.455247
O21   O     O_2   0.383540 0.672140 0.526840 -0.360030
O22   O     O_3   0.568322 0.693109 0.609012 -0.567250
H15   H     H_    0.314873 0.258479 0.717990 0.259864
C13   C     C_3   0.043096 0.686301 0.346230 0.288183
H16   H     H_    0.106338 0.633335 0.348705 0.078195
H17   H     H_    0.914847 0.684903 0.353918 0.023333
C14   C     C_3   0.059072 0.700863 0.292851 -0.084429
H18   H     H_    0.010134 0.656787 0.267964 0.099615
H19   H     H_    0.185801 0.699910 0.283360 0.161875
P8    P     P_3+3 0.531695 0.593350 0.349258 0.567287
C15   C     C_3   0.504841 0.727981 0.326883 0.938158
O23   O     O_2   0.424844 0.534747 0.325652 -0.316915
O24   O     O_3   0.416471 0.670914 0.335890 -0.592447
H20   H     H_    0.713856 0.681564 0.284089 0.212470
C16   C     C_3   0.595827 0.709388 0.278006 -0.912033
H21   H     H_    0.620304 0.758198 0.262880 0.315932
H22   H     H_    0.524336 0.676708 0.249663 0.247575
C17   C     C_R   0.990686 0.438174 0.175771 0.645491
O25   O     O_2   0.020795 0.387008 0.197802 -0.488867
N1    N     N_R   0.931869 0.501999 0.202132 -0.176270
C18   C     C_R   0.903372 0.561021 0.177428 0.507259
C19   C     C_2   0.756367 0.540078 0.272349 -0.032862
C20   C     C_3   0.744006 0.571002 0.326446 0.022103
C21   C     C_1   0.986768 0.490997 0.341935 0.175544
C22   C     C_2   0.020972 0.484928 0.293639 -0.219296
C23   C     C_2   0.897497 0.507791 0.255376 0.088105
C24   C     C_R   0.996024 0.493504 0.099582 -0.098414
C25   C     C_R   0.016287 0.431907 0.123404 -0.238231
C26   C     C_R   0.060852 0.366468 0.093723 0.398277
C27   C     C_R   0.941133 0.558214 0.127137 -0.022090
C28   C     C_2   0.861900 0.533370 0.360266 -0.219457
C29   C     C_2   0.351186 0.487902 0.644088 -0.377930
C30   C     C_R   0.146904 0.427086 0.971072 -0.055757
C31   C     C_R   0.012647 0.547247 0.971339 -0.080077
C32   C     C_R   0.097788 0.486313 0.945798 0.071383
C33   C     C_R   0.247161 0.370652 0.945381 0.277847
C34   C     C_R   0.272273 0.368512 0.894460 -0.128453
C35   C     C_R   0.217326 0.424913 0.868703 -0.104168
C36   C     C_R   0.134548 0.484819 0.894679 -0.053302
C37   C     C_R   0.088084 0.543163 0.869414 -0.112712
C38   C     C_R   0.133816 0.542613 0.819600 0.639195
N2    N     N_R   0.216479 0.483434 0.794274 -0.156626
C39   C     C_R   0.250187 0.423582 0.817848 0.647647
C40   C     C_2   0.421320 0.459838 0.729834 0.218950
C41   C     C_3   0.449777 0.439076 0.674517 0.104092
C42   C     C_1   0.205976 0.512837 0.657944 0.256481
C43   C     C_2   0.153879 0.507134 0.703038 -0.218335
C44   C     C_2   0.268638 0.483468 0.743251 -0.013122
O26   O     O_2   0.308992 0.368827 0.794526 -0.581633
C45   C     C_R   0.094796 0.427133 0.020811 0.022319
C46   C     C_R   0.029511 0.490800 0.047992 0.110683
C47   C     C_R   0.997385 0.552078 0.023986 0.074003
C48   C     C_R   0.098266 0.365072 0.043622 -0.178229
H23   H     H_    0.346313 0.324320 0.875730 0.216483
H24   H     H_    0.121564 0.313627 0.022040 0.194212
O27   O     O_2   0.844539 0.616761 0.199220 -0.596900
C49   C     C_R   0.926743 0.619814 0.104108 -0.041170
H25   H     H_    0.661529 0.554647 0.246384 0.153227
C50   C     C_R   0.946488 0.600885 0.942947 0.284966
C51   C     C_R   0.992655 0.600101 0.893869 -0.107959
O28   O     O_2   0.101559 0.595242 0.799145 -0.561126
C52   C     C_R   0.957665 0.617000 0.053987 -0.108828
H26   H     H_    0.944746 0.642587 0.873640 0.211970
H27   H     H_    0.953787 0.666922 0.039570 0.176296
H28   H     H_    0.859613 0.553028 0.399699 0.136197
H29   H     H_    0.398112 0.499330 0.609797 0.174283
N3    N     N_R   0.572304 0.965361 0.538477 -0.044198
N4    N     N_R   0.521002 0.033562 0.539812 0.007246
C53   C     C_2   0.395425 0.291583 0.509051 0.049961
C54   C     C_3   0.267239 0.241123 0.513438 0.132197
C55   C     C_2   0.338164 0.168029 0.520550 0.159610
C56   C     C_2   0.486557 0.146138 0.502874 -0.230509
C57   C     C_2   0.580707 0.198924 0.481319 0.219953
C58   C     C_1   0.528866 0.268047 0.485373 -0.049196
N5    N     N_R   0.632445 0.035059 0.462839 0.016512
N6    N     N_R   0.685654 0.967122 0.461730 0.004471
C59   C     C_R   0.656451 0.930801 0.499486 0.170759
C60   C     C_R   0.550049 0.070111 0.502076 0.334441
C61   C     C_R   0.623808 0.808232 0.519327 -0.163822
C62   C     C_R   0.671205 0.735382 0.513910 0.316636
C63   C     C_R   0.903422 0.755359 0.468856 0.210980
C64   C     C_R   0.854174 0.827769 0.472845 -0.109529
C65   C     C_R   0.712424 0.854757 0.497461 0.039388
C66   C     C_R   0.808808 0.709381 0.487812 -0.437509
H30   H     H_    0.926468 0.862831 0.457087 0.179113
H31   H     H_    0.959026 0.791138 0.571211 0.201320
N7    N     N_R   0.589946 0.407802 0.351400 0.232736
O29   O     O_R   0.624490 0.415984 0.306388 -0.403440
O30   O     O_R   0.626559 0.455243 0.388077 -0.372959
H32   H     H_    0.875904 0.209149 0.668341 0.179584
N8    N     N_R   0.396967 0.299315 0.283138 0.276183
O31   O     O_R   0.363728 0.251369 0.246125 -0.222723
O32   O     O_R   0.330836 0.363304 0.283187 -0.339627
H33   H     H_    0.556887 0.300749 0.674476 0.054010
N9    N     N_R   0.655650 0.167830 0.676076 0.251010
O33   O     O_R   0.594228 0.145331 0.713529 -0.317790
O34   O     O_R   0.628610 0.136436 0.631228 -0.376313
H34   H     H_    0.597468 0.587321 0.619144 0.124069
H35   H     H_    0.478564 0.608086 0.702255 0.211436
H36   H     H_    0.641871 0.662954 0.699753 0.271858
H37   H     H_    0.775315 0.243531 0.724976 0.177110
N10   N     N_R   0.975478 0.768153 0.283429 0.303132
O35   O     O_R   0.000498 0.826265 0.312770 -0.189299
O36   O     O_R   0.908398 0.772788 0.239844 -0.303434
N11   N     N_R   0.615044 0.747452 0.368637 0.180677
O37   O     O_R   0.570333 0.740983 0.412783 -0.386402
O38   O     O_R   0.716715 0.793878 0.364577 -0.386817
N12   N     N_R   0.389929 0.789957 0.322821 0.251694
O39   O     O_R   0.336295 0.828784 0.362858 -0.242597
O40   O     O_R   0.343632 0.808548 0.279802 -0.326528
H38   H     H_    0.142661 0.470195 0.282243 0.217748
N13   N     N_R   0.060914 0.300042 0.112581 0.277594
O41   O     O_R   0.929591 0.281917 0.129388 -0.262138
O42   O     O_R   0.179909 0.252213 0.103504 -0.258865
N14   N     N_R   0.547597 0.452154 0.766739 0.261878
O43   O     O_R   0.644482 0.395014 0.763894 -0.348676
O44   O     O_R   0.559078 0.500463 0.805243 -0.374635
N15   N     N_R   0.343266 0.320603 0.971171 0.236761
O45   O     O_R   0.427051 0.342875 0.010821 -0.334069
O46   O     O_R   0.368548 0.255045 0.950770 -0.315863
H39   H     H_    0.892634 0.671065 0.124997 0.205486
N16   N     N_R   0.816197 0.650779 0.960402 0.233861
O47   O     O_R   0.805356 0.714758 0.948721 -0.328964
O48   O     O_R   0.695440 0.629176 0.981013 -0.347841
H40   H     H_    0.328763 0.245324 0.627695 0.116765
H41   H     H_    0.029758 0.522436 0.711788 0.214410
N17   N     N_R   0.234656 0.118345 0.534069 0.265680
O49   O     O_R   0.218740 0.112083 0.580598 -0.339794
O50   O     O_R   0.166329 0.075572 0.499683 -0.290109
N18   N     N_R   0.713229 0.172424 0.450757 0.284666
O51   O     O_R   0.693536 0.166263 0.402654 -0.302891
O52   O     O_R   0.837232 0.139047 0.469926 -0.275436
H42   H     H_    0.516653 0.828081 0.539380 0.149446
N19   N     N_R   0.397838 0.352849 0.544681 0.236083
O53   O     O_R   0.333419 0.412964 0.533548 -0.317385
O54   O     O_R   0.414495 0.343440 0.590713 -0.575107
H43   H     H_    0.099639 0.275173 0.714587 0.251216
H44   H     H_    0.845809 0.653315 0.484007 0.135871
H45   H     H_    0.193475 0.189081 0.690069 0.286034
N20   N     N_R   0.185045 0.231954 0.346134 0.232633
O55   O     O_R   0.145850 0.192829 0.304926 -0.267157
O56   O     O_R   0.302330 0.208115 0.373782 -0.403042
N21   N     N_R   0.037948 0.285876 0.414714 0.216593
O57   O     O_R   0.990173 0.224885 0.420653 -0.294022
O58   O     O_R   0.094934 0.325396 0.453091 -0.386310

loop_
_geom_bond_atom_site_label_1
_geom_bond_atom_site_label_2
_geom_bond_distance
_ccdc_geom_bond_type
O14   Ba2   2.771148 S    
C15   O24   1.424748 S    
P7    O21   1.575281 D    
C35   C36   1.403710 A    
P1    C42   1.850542 S    
O19   C13   1.403626 S    
C9    N8    1.462393 S    
C17   O25   1.220209 D    
C45   C46   1.412519 A    
C40   C44   1.367152 D    
C37   C38   1.420948 A    
C27   C49   1.403716 A    
C57   C58   1.346535 D    
Ba1   O16   2.769886 S    
C15   N11   1.459973 S    
N2    C39   1.391184 Am   
O10   C8    1.391970 S    
N13   O42   1.301186 A    
C40   N14   1.439600 S    
C15   C16   1.542493 S    
N15   O45   1.301683 A    
N21   O57   1.298540 A    
C62   C66   1.397341 A    
P4    C21   1.880877 S    
C28   H28   1.085175 S    
C6    H6    1.103758 S    
C55   C56   1.363091 D    
N4    C60   1.360648 A    
N12   O40   1.303119 A    
P4    O12   1.540897 D    
C9    H11   1.104477 S    
P2    O10   1.764944 S    
C52   H27   1.079283 S    
C49   C52   1.390078 A    
P3    O9    1.540604 D    
C39   O26   1.221830 D    
C34   H23   1.083725 S    
N18   O52   1.300917 A    
N14   O43   1.299487 A    
C59   C65   1.483529 S    
C33   N15   1.436662 S    
P5    C63   1.838936 S    
P1    O1    1.540542 D    
P5    O19   1.748599 S    
N3    C59   1.357922 A    
N19   O54   1.288707 A    
Ba1   O20   2.964078 S    
C14   H19   1.101856 S    
C2    C3    1.519952 S    
C29   C42   1.318898 D    
N10   O35   1.301010 A    
N12   O39   1.301849 A    
C1    H37   1.112317 S    
C37   C51   1.399851 A    
O11   C2    1.398627 S    
N16   O48   1.301700 A    
C15   N12   1.475176 S    
C16   H21   1.109291 S    
C11   O22   1.400401 S    
P4    Ba2   3.420148 S    
Ba1   Ba2   4.631905 S    
C4    N20   1.473792 S    
C8    N7    1.453326 S    
O17   Ba2   2.739036 S    
C19   C20   1.510065 S    
C3    H43   1.110660 S    
C50   N16   1.437364 S    
C12   H35   1.109494 S    
N10   O36   1.300493 A    
C5    H3    1.111267 S    
P1    Ba1   3.419638 S    
C17   N1    1.388347 Am   
O8    Ba1   2.738672 S    
C36   C37   1.409161 A    
P5    O17   1.747372 S    
H1    C10   1.112974 S    
C63   C66   1.396374 A    
C19   H25   1.084888 S    
C22   H38   1.081091 S    
C53   N19   1.412560 S    
C45   C48   1.411796 A    
C32   C36   1.431556 A    
Ba2   O20   2.769455 S    
N8    O32   1.299203 A    
N15   O46   1.301458 A    
C3    H15   1.110030 S    
P6    C41   1.881021 S    
O4    P6    1.540445 D    
C1    N9    1.458668 S    
C13   H17   1.107166 S    
C11   H13   1.109094 S    
C42   C43   1.340000 D    
C61   H42   1.082941 S    
O2    Ba1   2.976925 S    
P8    O24   1.772084 S    
C1    C10   1.524898 S    
C21   C22   1.342303 D    
O6    C10   1.406955 S    
N13   O41   1.301394 A    
C29   H29   1.083516 S    
N1    C23   1.474429 S    
P8    O23   1.546906 D    
C12   H14   1.110609 S    
C57   N18   1.429698 S    
P1    O2    1.541320 S    
P5    O18   1.546453 D    
C8    C9    1.555326 S    
N1    C18   1.390941 Am   
C7    H8    1.110685 S    
P3    O11   1.755472 S    
C25   C26   1.420771 A    
C30   C33   1.428620 A    
C19   C23   1.354355 D    
C51   H26   1.083596 S    
C7    H31   1.106469 S    
C38   N2    1.386325 Am   
C31   C47   1.431179 A    
C14   H18   1.101169 S    
C2    H2    1.111211 S    
C14   N10   1.461119 S    
Ba2   O21   2.852520 S    
C4    N21   1.443217 S    
O12   Ba2   2.813478 S    
N2    C44   1.471592 S    
P2    O7    1.524314 D    
C6    C7    1.521909 S    
O2    Ba2   2.770643 S    
P2    Ba1   3.445900 S    
O16   P7    1.753791 S    
C49   H39   1.083672 S    
C30   C32   1.427734 A    
C12   H36   1.110797 S    
O14   P8    1.756511 S    
P7    O22   1.750531 S    
C17   C25   1.435041 A    
C54   C55   1.506060 S    
N9    O34   1.300807 A    
C55   N17   1.434628 S    
N5    C60   1.358576 A    
C56   C57   1.525783 S    
P2    O20   1.554975 S    
O3    Ba1   2.771873 S    
C33   C34   1.402987 A    
C2    H40   1.111371 S    
O13   Ba2   2.977877 S    
N8    O31   1.300729 A    
O3    P6    1.768438 S    
N19   O53   1.296878 A    
C31   C50   1.429382 A    
C11   H34   1.111056 S    
C13   C14   1.528442 S    
P8    C20   1.903395 S    
N17   O50   1.300583 A    
P3    C54   1.906167 S    
N7    O29   1.302401 A    
C43   H41   1.083437 S    
N11   O38   1.301198 A    
C56   C60   1.502361 S    
C22   C23   1.517235 S    
C61   C65   1.413013 A    
N21   O58   1.298502 A    
C50   C51   1.402170 A    
C61   C62   1.404669 A    
C24   C27   1.405513 A    
C64   C65   1.410989 A    
C6    H7    1.110522 S    
C40   C41   1.523540 S    
C10   H33   1.112317 S    
O7    Ba1   2.852508 S    
O6    P6    1.751526 S    
C5    H4    1.106478 S    
N5    N6    1.333645 A    
C31   C32   1.421714 A    
P2    C58   1.884150 S    
P4    O13   1.541074 S    
C26   N13   1.435084 S    
N6    C59   1.358664 A    
C8    H10   1.077661 S    
C30   C45   1.437916 A    
P3    O8    1.762332 S    
C20   C28   1.524917 S    
N18   O51   1.300710 A    
O5    C6    1.394300 S    
N14   O44   1.301367 A    
C18   O27   1.219705 D    
P7    C62   1.842814 S    
C64   H30   1.083099 S    
C18   C27   1.408602 A    
C1    H32   1.108188 S    
C34   C35   1.401674 A    
C26   C48   1.406219 A    
C9    H12   1.108210 S    
C48   H24   1.079388 S    
C53   C58   1.327061 D    
O1    Ba1   2.813020 S    
N7    O30   1.295933 A    
C24   C46   1.434458 A    
P4    O15   1.768600 S    
C43   C44   1.516272 S    
N11   O37   1.297258 A    
H20   C16   1.099783 S    
N16   O47   1.301498 A    
N20   O55   1.303132 A    
C66   H44   1.082215 S    
C13   H16   1.111484 S    
C4    C5    1.517359 S    
C3    H45   1.110685 S    
C7    H9    1.110878 S    
C24   C25   1.416403 A    
C46   C47   1.420241 A    
C5    H5    1.096179 S    
P1    O5    1.749220 S    
C29   C41   1.504850 S    
N9    O33   1.300729 A    
C38   O28   1.221777 D    
C16   H22   1.110622 S    
C11   C12   1.520984 S    
N3    N4    1.333884 A    
O16   Ba2   2.963253 S    
C35   C39   1.416973 A    
C47   C52   1.409027 A    
C21   C28   1.336217 D    
Ba1   O13   2.770005 S    
C63   C64   1.401256 A    
N17   O49   1.300230 A    
C4    O15   1.393520 S    
C53   C54   1.523946 S    
N20   O56   1.302004 A    
