data_mof_unit_44809.cif
_audit_creation_date              2012-12-10T16:51:11-0500
_audit_creation_method            fapswitch 2.2
_symmetry_space_group_name_H-M    P1
_symmetry_Int_Tables_number       1
_space_group_crystal_system       triclinic
_cell_length_a                    27.76293
_cell_length_b                    8.670564
_cell_length_c                    7.42953
_cell_angle_alpha                 103.014655
_cell_angle_beta                  93.702522
_cell_angle_gamma                 92.37781
_cell_volume                      1735.9710514

loop_
_atom_site_label
_atom_site_type_symbol
_atom_type_description
_atom_site_fract_x
_atom_site_fract_y
_atom_site_fract_z
_atom_type_partial_charge
C1    C     C_R   0.498544 0.199643 0.453178 0.892547
C2    C     C_R   0.501456 0.800357 0.546822 0.892545
C3    C     C_R   0.102468 0.501401 0.532456 -0.096069
C4    C     C_R   0.897534 0.498729 0.467541 -0.096066
C5    C     C_R   0.125556 0.357014 0.494285 -0.007418
C6    C     C_R   0.874443 0.643110 0.505759 -0.007399
C7    C     C_R   0.097921 0.213737 0.451982 -0.097092
C8    C     C_R   0.902077 0.786392 0.548113 -0.097077
C9    C     C_R   0.130880 0.645926 0.583533 -0.125680
C10   C     C_R   0.869124 0.354202 0.416417 -0.125696
C11   C     C_R   0.354653 0.499475 0.511782 -0.036638
C12   C     C_R   0.645347 0.500546 0.488216 -0.036646
C13   C     C_R   0.971876 0.353563 0.446434 -0.035700
C14   C     C_R   0.028127 0.646578 0.553545 -0.035684
C15   C     C_R   0.976805 0.646191 0.532737 0.080232
C16   C     C_R   0.023196 0.353950 0.467285 0.080240
C17   C     C_R   0.948936 0.499421 0.481900 0.072364
C18   C     C_R   0.051066 0.500718 0.518099 0.072366
C19   C     C_R   0.942588 0.211646 0.385051 -0.227853
C20   C     C_R   0.057418 0.788498 0.614855 -0.227859
C21   C     C_R   0.892454 0.210825 0.364928 0.421220
C22   C     C_R   0.107552 0.789312 0.634970 0.421201
C23   C     C_R   0.407487 0.499778 0.503347 0.798653
C24   C     C_R   0.592513 0.500225 0.496652 0.798649
C25   C     C_R   0.047880 0.211833 0.440727 -0.217145
C26   C     C_R   0.952119 0.788306 0.559366 -0.217124
C27   C     C_2   0.497843 0.031698 0.426777 -0.362793
C28   C     C_2   0.502157 0.968302 0.573223 -0.362793
C29   C     C_R   0.176089 0.358879 0.498810 0.549776
C30   C     C_R   0.823911 0.641233 0.501233 0.549770
C31   C     C_R   0.181550 0.641549 0.576039 0.541332
C32   C     C_R   0.818454 0.358563 0.423915 0.541311
C33   C     C_R   0.284176 0.522436 0.691453 -0.102350
C34   C     C_R   0.715820 0.477360 0.308520 -0.102353
C35   C     C_R   0.334209 0.522574 0.683584 -0.210219
C36   C     C_R   0.665787 0.477193 0.316391 -0.210244
C37   C     C_R   0.324127 0.475736 0.348227 -0.205346
C38   C     C_R   0.675876 0.524571 0.651793 -0.205385
C39   C     C_R   0.274115 0.475023 0.356541 -0.098561
C40   C     C_R   0.725889 0.525320 0.643477 -0.098550
C41   C     C_R   0.254090 0.498538 0.528026 0.360777
C42   C     C_R   0.745911 0.501549 0.471970 0.360733
Cu1   Cu    Cu3+1 0.505380 0.517380 0.684380 0.956333
Cu2   Cu    Cu3+1 0.494620 0.482620 0.315620 0.956331
H1    H     H_    0.338811 0.457550 0.213967 0.158042
H2    H     H_    0.661194 0.542966 0.786068 0.158070
H3    H     H_    0.462189 0.378428 0.948710 0.226037
H4    H     H_    0.537810 0.621572 0.051290 0.226043
H5    H     H_    0.250862 0.456894 0.229924 0.136992
H6    H     H_    0.749144 0.543673 0.770111 0.137052
H7    H     H_    0.114903 0.101355 0.426278 0.216307
H8    H     H_    0.885094 0.898771 0.573860 0.216238
H9    H     H_    0.643190 0.458420 0.188095 0.159100
H10   H     H_    0.356802 0.541118 0.811864 0.159059
H11   H     H_    0.731258 0.458880 0.175649 0.133237
H12   H     H_    0.268736 0.540710 0.824308 0.133184
H13   H     H_    0.957367 0.097461 0.342926 0.162772
H14   H     H_    0.042642 0.902695 0.656912 0.162741
H15   H     H_    0.029832 0.095750 0.411638 0.134720
H16   H     H_    0.970163 0.904396 0.588526 0.134728
H17   H     H_    0.493779 0.959924 0.285724 0.179758
H18   H     H_    0.506220 0.040076 0.714276 0.179757
N1    N     N_R   0.202738 0.499627 0.536018 -0.474792
N2    N     N_R   0.797263 0.500478 0.463978 -0.474777
N3    N     N_2   0.486510 0.456430 0.038510 -0.218573
N4    N     N_2   0.513490 0.543570 0.961490 -0.218571
O1    O     O_R   0.503500 0.286120 0.619780 -0.583125
O2    O     O_R   0.496500 0.713880 0.380220 -0.583126
O3    O     O_R   0.494410 0.256780 0.308360 -0.583302
O4    O     O_R   0.505590 0.743220 0.691640 -0.583303
O5    O     O_R   0.434810 0.514700 0.655690 -0.592267
O6    O     O_R   0.565190 0.485300 0.344310 -0.592272
O7    O     O_R   0.425720 0.485350 0.344280 -0.583909
O8    O     O_R   0.574280 0.514650 0.655720 -0.583906
O9    O     O_2   0.198508 0.221199 0.464027 -0.498441
O10   O     O_2   0.801489 0.778908 0.536054 -0.498484
O11   O     O_2   0.790530 0.223189 0.398295 -0.491386
O12   O     O_2   0.209478 0.776913 0.601629 -0.491368
O13   O     O_3   0.867842 0.067166 0.289661 -0.691028
H19   H     H_    0.843645 0.084489 0.193199 0.359599
O14   O     O_3   0.132167 0.932975 0.710180 -0.691060
H20   H     H_    0.156361 0.915682 0.806669 0.359615

loop_
_geom_bond_atom_site_label_1
_geom_bond_atom_site_label_2
_ccdc_geom_bond_type
C29   N1    A    
C30   N2    A    
C8    C26   A    
C14   C18   A    
C34   C42   A    
O14   H20   S    
C39   C41   A    
C19   H13   S    
C3    C18   A    
C19   C21   A    
C2    O2    A    
C9    C22   A    
C14   C20   A    
C11   C37   A    
C36   H9    S    
C27   H17   S    
C1    O1    A    
C32   O11   S    
C12   C36   A    
C8    H8    S    
C33   H12   S    
C40   C42   A    
C34   H11   S    
C35   H10   S    
Cu2   N3    S    
C23   O7    A    
C5    C29   A    
C10   C21   A    
C13   C19   A    
C22   O14   S    
C31   N1    A    
C32   N2    A    
C4    C6    A    
C5    C7    A    
C15   C26   A    
C6    C8    A    
C1    O3    A    
Cu1   Cu2   S    
C3    C9    A    
C23   O5    A    
C30   O10   S    
C21   O13   S    
Cu2   O3    S    
C4    C17   A    
C16   C18   A    
C39   H5    S    
C20   C22   A    
Cu1   O4    S    
Cu2   O2    S    
C41   N1    S    
C20   H14   S    
C42   N2    S    
C24   O6    A    
C31   O12   S    
C16   C25   A    
C15   C17   A    
Cu1   O5    S    
C6    C30   A    
C4    C10   A    
C3    C5    A    
C29   O9    S    
C12   C24   S    
C7    C25   A    
C13   C17   A    
C33   C41   A    
C11   C35   A    
C7    H7    S    
C37   C39   A    
C38   C40   A    
C24   O8    A    
C26   H16   S    
Cu1   O8    S    
Cu1   N4    S    
C40   H6    S    
C11   C23   S    
C33   C35   A    
Cu2   O6    S    
C34   C36   A    
C12   C38   A    
Cu2   O7    S    
C38   H2    S    
C9    C31   A    
O13   H19   S    
C10   C32   A    
Cu1   O1    S    
N3    N4    D    
C13   C16   A    
C27   C28   D    
C1    C27   S    
C14   C15   A    
C2    C28   S    
C25   H15   S    
H4    N4    S    
C2    O4    A    
C37   H1    S    
H3    N3    S    
C28   H18   S    
