data_mof_unit_62715.cif
_audit_creation_date              2012-12-10T18:20:30-0500
_audit_creation_method            fapswitch 2.2
_symmetry_space_group_name_H-M    P1
_symmetry_Int_Tables_number       1
_space_group_crystal_system       triclinic
_cell_length_a                    21.566722
_cell_length_b                    21.567122
_cell_length_c                    21.918657
_cell_angle_alpha                 119.044325
_cell_angle_beta                  118.740464
_cell_angle_gamma                 90.723707
_cell_volume                      7401.34647547

loop_
_atom_site_label
_atom_site_type_symbol
_atom_type_description
_atom_site_fract_x
_atom_site_fract_y
_atom_site_fract_z
_atom_type_partial_charge
C1    C     C_R   0.499269 0.119862 0.497724 0.858012
C2    C     C_R   0.499826 0.878963 0.500293 0.852618
C3    C     C_3   0.708151 0.209023 0.917786 0.332870
C4    C     C_3   0.291655 0.791239 0.082233 0.337184
C5    C     C_3   0.710845 0.296742 0.049594 -0.378719
C6    C     C_3   0.280752 0.687390 0.950614 -0.390106
C7    C     C_3   0.790807 0.291246 0.082359 0.327253
C8    C     C_3   0.209011 0.708928 0.917662 0.323481
C9    C     C_3   0.785922 0.208191 0.048540 -0.383464
C10   C     C_3   0.231785 0.792913 0.951171 -0.372791
C11   C     C_3   0.737074 0.159594 0.951271 -0.387032
C12   C     C_3   0.280640 0.841571 0.048454 -0.390613
C13   C     C_1   0.836849 0.336948 0.173856 -0.108852
C14   C     C_1   0.163038 0.663133 0.826158 -0.095767
C15   C     C_1   0.662313 0.163260 0.826248 -0.106335
C16   C     C_1   0.337544 0.836991 0.173764 -0.110133
C17   C     C_1   0.624933 0.125639 0.751088 -0.166009
C18   C     C_1   0.375017 0.874525 0.248920 -0.170506
C19   C     C_3   0.427705 0.206134 0.485442 -0.364504
C20   C     C_3   0.576210 0.827281 0.577814 -0.426471
C21   C     C_3   0.423696 0.272850 0.477077 -0.198044
C22   C     C_3   0.582044 0.754692 0.575483 -0.164744
C23   C     C_R   0.580811 0.081033 0.662004 0.902598
C24   C     C_R   0.419184 0.919007 0.337998 0.896067
C25   C     C_3   0.568983 0.252602 0.582864 -0.473002
C26   C     C_3   0.492079 0.747866 0.419423 -0.447908
C27   C     C_3   0.507080 0.176564 0.426425 -0.454226
C28   C     C_3   0.435261 0.785533 0.504421 -0.411785
C29   C     C_3   0.500554 0.187608 0.497886 0.098505
C30   C     C_3   0.500367 0.811192 0.500625 0.103893
C31   C     C_3   0.501633 0.310036 0.500667 -0.076470
C32   C     C_3   0.504555 0.690617 0.501309 -0.106052
C33   C     C_3   0.567409 0.326756 0.588529 -0.181248
C34   C     C_3   0.482924 0.673900 0.413610 -0.183849
C35   C     C_3   0.516709 0.251337 0.433495 -0.213180
C36   C     C_3   0.443113 0.719957 0.515673 -0.222003
C37   C     C_3   0.760751 0.544067 0.589029 -0.405858
C38   C     C_3   0.261459 0.419724 0.449564 -0.454693
C39   C     C_3   0.761251 0.414874 0.455568 -0.201471
C40   C     C_3   0.188364 0.527355 0.441252 -0.203264
C41   C     C_3   0.687514 0.416634 0.450852 -0.434912
C42   C     C_3   0.266074 0.539206 0.455575 -0.457188
C43   C     C_3   0.688959 0.498863 0.498461 0.072084
C44   C     C_3   0.310306 0.501571 0.499561 0.102328
C45   C     C_3   0.756179 0.528201 0.442201 -0.186806
C46   C     C_3   0.257728 0.551352 0.590276 -0.198475
C47   C     C_3   0.689536 0.534423 0.451975 -0.386435
C48   C     C_3   0.329095 0.545062 0.590677 -0.381905
C49   C     C_R   0.876125 0.496701 0.493957 0.863675
C50   C     C_R   0.119029 0.498377 0.495817 0.810610
C51   C     C_R   0.919453 0.419006 0.338012 0.927142
C52   C     C_R   0.080644 0.580975 0.661984 0.971797
C53   C     C_R   0.378500 0.501126 0.500158 0.930543
C54   C     C_R   0.621607 0.499694 0.499869 0.890144
C55   C     C_R   0.502322 0.378355 0.500205 0.850883
C56   C     C_R   0.503251 0.621671 0.500140 0.876752
C57   C     C_3   0.806906 0.495780 0.492245 -0.098083
C58   C     C_3   0.188057 0.500415 0.497099 -0.079473
C59   C     C_3   0.830779 0.545930 0.586169 -0.224220
C60   C     C_3   0.193387 0.418143 0.455831 -0.207324
C61   C     C_3   0.661977 0.248132 0.952289 -0.381991
C62   C     C_3   0.329601 0.736041 0.047895 -0.384154
C63   C     C_3   0.776093 0.269801 0.950776 -0.390361
C64   C     C_3   0.214029 0.745616 0.049387 -0.390578
C65   C     C_3   0.824941 0.318397 0.048039 -0.383860
C66   C     C_3   0.165182 0.696973 0.952121 -0.382815
C67   C     C_1   0.874716 0.374480 0.248982 -0.143125
C68   C     C_1   0.125295 0.625510 0.751025 -0.091832
H1    H     H_    0.759675 0.601695 0.625655 0.240389
H2    H     H_    0.295069 0.388569 0.472407 0.206891
H3    H     H_    0.882533 0.314976 0.070794 0.174398
H4    H     H_    0.113288 0.712123 0.929252 0.186467
H5    H     H_    0.689169 0.115417 0.928373 0.179901
H6    H     H_    0.335754 0.874962 0.071237 0.177307
H7    H     H_    0.770501 0.130856 0.927301 0.175100
H8    H     H_    0.253400 0.881798 0.072319 0.178693
H9    H     H_    0.761487 0.187379 0.072391 0.180410
H10   H     H_    0.263422 0.802916 0.927199 0.181380
H11   H     H_    0.612748 0.205520 0.929409 0.180901
H12   H     H_    0.385579 0.767571 0.070670 0.176440
H13   H     H_    0.685110 0.277499 0.073487 0.190753
H14   H     H_    0.313253 0.695542 0.926636 0.179320
H15   H     H_    0.842817 0.202800 0.071304 0.175380
H16   H     H_    0.181068 0.809755 0.928289 0.183417
H17   H     H_    0.425777 0.218080 0.539937 0.221273
H18   H     H_    0.623255 0.852992 0.580686 0.227928
H19   H     H_    0.377846 0.156876 0.427850 0.181687
H20   H     H_    0.580478 0.870068 0.636320 0.183118
H21   H     H_    0.576329 0.274387 0.458497 0.128552
H22   H     H_    0.388434 0.674152 0.466397 0.119722
H23   H     H_    0.620708 0.350484 0.599446 0.118395
H24   H     H_    0.422162 0.641508 0.368252 0.157664
H25   H     H_    0.762183 0.517296 0.622001 0.168102
H26   H     H_    0.241699 0.390685 0.382271 0.183952
H27   H     H_    0.794424 0.400917 0.502042 0.159035
H28   H     H_    0.148591 0.479847 0.374473 0.135707
H29   H     H_    0.680177 0.388183 0.478999 0.152265
H30   H     H_    0.259034 0.515069 0.393867 0.167419
H31   H     H_    0.634941 0.508501 0.390873 0.219468
H32   H     H_    0.371545 0.600528 0.630157 0.226801
H33   H     H_    0.864368 0.520318 0.619116 0.131856
H34   H     H_    0.142633 0.382989 0.390326 0.125544
H35   H     H_    0.712909 0.356035 0.073137 0.177758
H36   H     H_    0.265801 0.627158 0.927318 0.175752
H37   H     H_    0.640562 0.284065 0.929060 0.179638
H38   H     H_    0.338114 0.699187 0.071343 0.174726
H39   H     H_    0.756685 0.306115 0.927516 0.175320
H40   H     H_    0.220492 0.708925 0.072856 0.172928
H41   H     H_    0.829002 0.378065 0.071523 0.179243
H42   H     H_    0.148174 0.636911 0.928852 0.173448
O1    O     O_R   0.447710 0.092600 0.500010 -0.627010
O2    O     O_R   0.552290 0.907400 0.499990 -0.621737
O3    O     O_R   0.441990 0.534630 0.569310 -0.591251
O4    O     O_R   0.558010 0.465370 0.430690 -0.616926
O5    O     O_R   0.465370 0.372730 0.430660 -0.616152
O6    O     O_R   0.534630 0.627270 0.569340 -0.586619
O7    O     O_R   0.534650 0.442080 0.569370 -0.563228
O8    O     O_R   0.465350 0.557920 0.430630 -0.611839
O9    O     O_R   0.552280 0.092600 0.499960 -0.628455
O10   O     O_R   0.447720 0.907400 0.500040 -0.627800
O11   O     O_R   0.509140 0.061430 0.622880 -0.607151
O12   O     O_R   0.490860 0.938570 0.377120 -0.613934
O13   O     O_R   0.613710 0.061430 0.622840 -0.616189
O14   O     O_R   0.386290 0.938570 0.377160 -0.614603
O15   O     O_R   0.907580 0.552300 0.500030 -0.594164
O16   O     O_R   0.092420 0.447700 0.499970 -0.613004
O17   O     O_R   0.907560 0.447760 0.500050 -0.605601
O18   O     O_R   0.092440 0.552240 0.499950 -0.582150
O19   O     O_R   0.938770 0.490850 0.377130 -0.581284
O20   O     O_R   0.061230 0.509150 0.622870 -0.633803
O21   O     O_R   0.938740 0.386300 0.377150 -0.608010
O22   O     O_R   0.061260 0.613700 0.622850 -0.569736
O23   O     O_R   0.372700 0.465280 0.430600 -0.640186
O24   O     O_R   0.627300 0.534720 0.569400 -0.608360
Zn1   Zn    Zn3+2 0.430180 0.000000 0.500030 0.981625
Zn2   Zn    Zn3+2 0.569820 0.000000 0.499970 0.973885
Zn3   Zn    Zn3+2 0.000200 0.569810 0.499990 1.074436
Zn4   Zn    Zn3+2 0.999800 0.430190 0.500010 1.048294
Zn5   Zn    Zn3+2 0.453740 0.453690 0.407380 1.029920
Zn6   Zn    Zn3+2 0.546260 0.546310 0.592620 1.056177
H43   H     H_    0.381819 0.250761 0.410145 0.171388
H44   H     H_    0.593143 0.767416 0.636083 0.159460
H45   H     H_    0.788932 0.586001 0.471392 0.185491
H46   H     H_    0.255841 0.529173 0.625914 0.155377
C69   C     C_2   0.391061 0.321806 0.523448 0.901188
O25   O     O_2   0.332123 0.292515 0.508410 -0.609729
O26   O     O_R   0.426124 0.398871 0.582153 -0.786674
H47   H     H_    0.402456 0.421926 0.614522 0.359840
C70   C     C_2   0.649519 0.734073 0.576674 0.945749
O27   O     O_2   0.668688 0.688224 0.593162 -0.653031
O28   O     O_R   0.692004 0.768911 0.563004 -0.768962
H48   H     H_    0.735743 0.750172 0.566628 0.369561
H49   H     H_    0.570073 0.254952 0.635298 0.181617
H50   H     H_    0.541931 0.763095 0.419931 0.234241
C71   C     C_2   0.569610 0.383670 0.666435 1.023865
O29   O     O_2   0.528800 0.366310 0.683464 -0.622355
O30   O     O_R   0.622270 0.455223 0.721894 -0.798957
H51   H     H_    0.619404 0.488038 0.772154 0.339276
C72   C     C_2   0.520467 0.625365 0.374209 0.922125
O31   O     O_2   0.586049 0.649817 0.401972 -0.619613
O32   O     O_R   0.478218 0.552259 0.303210 -0.787815
H52   H     H_    0.508673 0.525042 0.282108 0.352435
H53   H     H_    0.555935 0.157911 0.430016 0.186344
H54   H     H_    0.381098 0.766538 0.444777 0.172509
H55   H     H_    0.456443 0.131206 0.365090 0.185392
H56   H     H_    0.433422 0.833398 0.555351 0.215010
C73   C     C_2   0.472490 0.236304 0.346230 0.966374
O33   O     O_2   0.404849 0.205585 0.299806 -0.636396
O34   O     O_R   0.510172 0.257548 0.318882 -0.808565
H57   H     H_    0.475354 0.245167 0.260042 0.350972
C74   C     C_2   0.457463 0.742162 0.599962 0.949664
O35   O     O_2   0.493608 0.806265 0.662187 -0.637456
O36   O     O_R   0.429880 0.688486 0.606541 -0.814196
H58   H     H_    0.444625 0.709507 0.665955 0.361007
H59   H     H_    0.621298 0.241837 0.588599 0.181126
H60   H     H_    0.442501 0.741142 0.363099 0.145677
H61   H     H_    0.694959 0.594512 0.488523 0.234087
H62   H     H_    0.355824 0.515331 0.620596 0.194876
C75   C     C_2   0.749267 0.351293 0.373955 0.930059
O37   O     O_2   0.699857 0.338534 0.306147 -0.597974
O38   O     O_R   0.793745 0.304823 0.376651 -0.783470
H63   H     H_    0.780863 0.264196 0.318834 0.343818
C76   C     C_2   0.161411 0.593283 0.445878 0.967861
O39   O     O_2   0.198744 0.657183 0.507563 -0.587322
O40   O     O_R   0.093196 0.580280 0.377300 -0.813253
H64   H     H_    0.080621 0.627980 0.386896 0.342878
C77   C     C_2   0.732727 0.487467 0.351171 0.955004
O41   O     O_2   0.666868 0.456801 0.292901 -0.586526
O42   O     O_R   0.787161 0.487514 0.333898 -0.802700
H65   H     H_    0.765186 0.459445 0.271470 0.340143
C78   C     C_2   0.260111 0.632147 0.639214 0.966547
O43   O     O_2   0.218001 0.646074 0.662917 -0.637823
O44   O     O_R   0.311885 0.691133 0.660848 -0.772700
H66   H     H_    0.307844 0.741842 0.694421 0.360371
C79   C     C_2   0.879995 0.626028 0.635768 0.942617
O45   O     O_2   0.946162 0.645192 0.689918 -0.653110
O46   O     O_R   0.849888 0.678345 0.621597 -0.813525
H67   H     H_    0.888530 0.729598 0.659151 0.347738
C80   C     C_2   0.195416 0.377939 0.497605 1.023518
O47   O     O_2   0.143605 0.321796 0.459347 -0.602583
O48   O     O_R   0.257022 0.402462 0.577420 -0.824209
H68   H     H_    0.251474 0.370051 0.597052 0.360042
H69   H     H_    0.638470 0.385661 0.384539 0.250495
H70   H     H_    0.297922 0.599690 0.494907 0.246221
H71   H     H_    0.810215 0.243028 0.926799 0.174625
H72   H     H_    0.185604 0.784138 0.073265 0.176959

loop_
_geom_bond_atom_site_label_1
_geom_bond_atom_site_label_2
_ccdc_geom_bond_type
C7    C13   S    
C74   O35   D    
C63   C65   S    
C8    C66   S    
O30   H51   S    
C6    H14   S    
C12   H6    S    
C27   C29   S    
O48   H68   S    
C42   H70   S    
O26   H47   S    
C46   C78   S    
C76   O39   D    
C48   H62   S    
C69   O25   D    
C51   O19   A    
C49   C57   S    
C73   O34   S    
C20   C30   S    
O36   H58   S    
C21   C31   S    
C45   C57   S    
C17   C23   S    
C22   C32   S    
C18   C24   S    
C32   C36   S    
C62   H12   S    
C19   C21   S    
O2    Zn2   S    
C37   H1    S    
C70   O28   S    
O24   Zn6   S    
C79   O46   S    
C57   C59   S    
C31   C55   S    
C71   O30   S    
C58   C60   S    
C54   O24   A    
C4    C62   S    
C59   H33   S    
C24   O14   A    
C47   H31   S    
C15   C17   T    
C1    O9    A    
C64   C66   S    
C60   C80   S    
C27   H53   S    
O38   H63   S    
C44   C53   S    
C26   C34   S    
C66   H4    S    
C20   H18   S    
C35   C73   S    
O28   H48   S    
C72   O32   S    
C64   H40   S    
C50   O16   A    
O17   Zn4   S    
C6    H36   S    
C41   H69   S    
C61   H37   S    
C52   C68   S    
C28   H56   S    
C40   C76   S    
C34   C72   S    
C45   C47   S    
C22   C70   S    
C80   O47   D    
C46   C58   S    
C5    H35   S    
C41   C43   S    
C22   H44   S    
O46   H67   S    
C42   C44   S    
C40   H28   S    
C60   H34   S    
C24   O12   A    
C69   O26   S    
O19   Zn3   S    
C53   O3    A    
O32   H52   S    
C3    C61   S    
C25   C29   S    
C49   O17   A    
C46   C48   S    
C40   C58   S    
C31   C33   S    
C25   H49   S    
C78   O43   D    
C52   O22   A    
O34   H57   S    
C48   H32   S    
C53   O23   A    
C23   O11   A    
C11   H5    S    
C73   O33   D    
C5    C7    S    
C51   O21   A    
C45   C77   S    
C46   H46   S    
C59   C79   S    
O22   Zn3   S    
C65   H3    S    
C64   H72   S    
C66   H42   S    
C75   O37   D    
C32   C34   S    
C4    C16   S    
O18   Zn3   S    
C78   O44   S    
C38   C44   S    
C7    C65   S    
C5    H13   S    
C25   H59   S    
C43   C54   S    
C39   C75   S    
C72   O31   D    
C26   H60   S    
C2    O2    A    
C38   H26   S    
C1    C29   S    
C56   O6    A    
O3    Zn6   S    
C37   H25   S    
C51   C67   S    
O4    Zn5   S    
O11   Zn1   S    
O15   Zn3   S    
C9    C11   S    
C39   C57   S    
C39   H27   S    
C37   C59   S    
C10   C12   S    
C9    H15   S    
C38   C60   S    
C6    C8    S    
C16   C18   T    
C38   H2    S    
C27   H55   S    
O23   Zn5   S    
C12   H8    S    
C63   H71   S    
C31   C35   S    
C37   C43   S    
C26   H50   S    
O7    Zn6   S    
C4    C12   S    
O12   Zn2   S    
C63   H39   S    
O8    Zn5   S    
O20   Zn4   S    
C35   H21   S    
C3    C15   S    
C28   H54   S    
C80   O48   S    
C55   O7    A    
C36   H22   S    
C7    C9    S    
O16   Zn4   S    
C36   C74   S    
C8    C14   S    
O14   Zn1   S    
C56   O8    A    
C13   C67   T    
C20   C22   S    
C40   C42   S    
C19   H17   S    
C42   H30   S    
C23   O13   A    
C33   C71   S    
C26   C30   S    
C62   H38   S    
C3    C63   S    
C74   O36   S    
C39   C41   S    
C49   O15   A    
C4    C64   S    
C19   H19   S    
O9    Zn2   S    
O13   Zn2   S    
C2    C30   S    
O10   Zn1   S    
C27   C35   S    
C6    C62   S    
C76   O40   S    
C9    H9    S    
C52   O20   A    
C28   C30   S    
C47   H61   S    
O21   Zn4   S    
C11   H7    S    
C70   O27   D    
C1    O1    A    
C5    C61   S    
O1    Zn1   S    
O40   H64   S    
C65   H41   S    
C55   O5    A    
C61   H11   S    
C54   O4    A    
C10   H16   S    
C10   H10   S    
C41   H29   S    
O42   H65   S    
C34   H24   S    
C77   O42   S    
C3    C11   S    
C21   H43   S    
C79   O45   D    
C44   C48   S    
C77   O41   D    
C50   O18   A    
C28   C36   S    
C8    C10   S    
O44   H66   S    
C20   H20   S    
C25   C33   S    
C71   O29   D    
C45   H45   S    
C14   C68   T    
C75   O38   S    
C2    O10   A    
O5    Zn5   S    
C43   C47   S    
C32   C56   S    
C50   C58   S    
C21   C69   S    
O6    Zn6   S    
C33   H23   S    
C19   C29   S    
