data_mof_unit_46751.cif
_audit_creation_date              2012-12-10T17:48:55-0500
_audit_creation_method            fapswitch 2.2
_symmetry_space_group_name_H-M    P1
_symmetry_Int_Tables_number       1
_space_group_crystal_system       triclinic
_cell_length_a                    10.746005
_cell_length_b                    14.698967
_cell_length_c                    14.759914
_cell_angle_alpha                 65.000675
_cell_angle_beta                  103.737601
_cell_angle_gamma                 103.311834
_cell_volume                      2030.07424081

loop_
_atom_site_label
_atom_site_type_symbol
_atom_type_description
_atom_site_fract_x
_atom_site_fract_y
_atom_site_fract_z
_atom_type_partial_charge
C1    C     C_R   0.479509 0.119733 0.312323 0.793333
C2    C     C_R   0.512241 0.360845 0.080110 0.089682
C3    C     C_R   0.496736 0.321209 0.004966 0.161242
C4    C     C_R   0.260154 0.998649 0.501698 0.765247
C5    C     C_R   0.539797 0.467614 0.053698 0.063399
C6    C     C_R   0.536922 0.533619 0.949992 0.063167
C7    C     C_R   0.523869 0.491072 0.877565 -0.217333
C8    C     C_R   0.505209 0.386831 0.905018 -0.223628
C9    C     C_R   0.572857 0.510502 0.127600 -0.221616
C10   C     C_R   0.594032 0.614752 0.100293 -0.228660
C11   C     C_R   0.580238 0.680010 0.998735 0.164753
C12   C     C_3   0.878802 0.997258 0.504356 0.100530
C13   C     C_R   0.549521 0.640149 0.922487 0.087634
C14   C     C_R   0.596043 0.785057 0.972561 -0.200500
C15   C     C_R   0.578515 0.851197 0.871261 -0.205612
C16   C     C_R   0.523235 0.880269 0.687681 0.784609
C17   C     C_R   0.528021 0.708177 0.821144 -0.255889
C18   C     C_R   0.715601 0.285277 0.668749 -0.299889
C19   C     C_R   0.681689 0.203306 0.639422 0.113392
C20   C     C_R   0.519037 0.285247 0.508763 0.006594
C21   C     C_R   0.548534 0.371424 0.534984 -0.020511
C22   C     C_R   0.649312 0.369312 0.617180 0.153847
C23   C     C_3   0.960284 0.978650 0.612625 -0.121358
C24   C     C_R   0.481776 0.458337 0.483898 0.079221
C25   C     C_R   0.517862 0.541581 0.516315 0.080849
C26   C     C_R   0.618650 0.534714 0.599101 -0.233018
C27   C     C_R   0.682736 0.450446 0.648112 -0.188009
C28   C     C_R   0.740352 0.998574 0.502174 0.747964
C29   C     C_R   0.380010 0.464737 0.401832 -0.227279
C30   C     C_R   0.314767 0.548412 0.353708 -0.183922
C31   C     C_R   0.348704 0.629799 0.384255 0.158832
C32   C     C_R   0.451200 0.628534 0.465147 -0.021797
C33   C     C_R   0.280884 0.713065 0.333835 -0.298204
C34   C     C_3   0.935516 0.098460 0.424890 -0.335891
C35   C     C_R   0.315368 0.795341 0.362709 0.136515
C36   C     C_R   0.482150 0.715422 0.490239 0.016051
C37   C     C_3   0.033362 0.905254 0.479176 -0.131238
C38   C     C_3   0.890387 0.909952 0.474903 -0.466382
C39   C     C_3   0.105716 0.987147 0.608938 -0.382076
C40   C     C_3   0.077563 0.096567 0.422926 -0.406021
C41   C     C_3   0.122137 0.995802 0.503889 0.049500
C42   C     C_2   0.066806 0.801934 0.554031 0.393326
C43   C     C_2   0.941520 0.045778 0.661306 0.364476
C44   C     C_R   0.477816 0.187290 0.205256 -0.056279
C45   C     C_R   0.543033 0.812803 0.795122 -0.057215
C46   C     C_R   0.473318 0.215968 0.030734 -0.197008
C47   C     C_R   0.465140 0.149296 0.130556 -0.201241
C48   C     C_R   0.497345 0.292081 0.179051 -0.251331
Cu1   Cu    Cu3+1 0.465900 0.918260 0.475680 0.948478
Cu2   Cu    Cu3+1 0.534100 0.081740 0.524320 0.938731
H1    H     H_    0.929612 0.164034 0.441791 0.222688
H2    H     H_    0.045311 0.914360 0.402619 0.160688
H3    H     H_    0.531810 0.536369 0.799098 0.143767
H4    H     H_    0.587245 0.465687 0.207811 0.148343
H5    H     H_    0.621124 0.815975 0.030559 0.132441
H6    H     H_    0.263582 0.859865 0.323495 0.116787
H7    H     H_    0.236820 0.549511 0.291391 0.142775
H8    H     H_    0.442956 0.279558 0.448331 0.121194
H9    H     H_    0.837993 0.922592 0.396713 0.180888
H10   H     H_    0.650231 0.593256 0.628694 0.124948
H11   H     H_    0.201971 0.714729 0.272058 0.135305
H12   H     H_    0.163474 0.054588 0.622993 0.213955
H13   H     H_    0.842149 0.836364 0.525883 0.163933
H14   H     H_    0.146010 0.920107 0.670444 0.114794
H15   H     H_    0.927554 0.899343 0.663301 0.066153
H16   H     H_    0.139528 0.162809 0.436897 0.190848
H17   H     H_    0.087589 0.104828 0.346356 0.147864
H18   H     H_    0.058903 0.776117 0.633278 0.058069
H19   H     H_    0.891888 0.012563 0.726595 0.042298
H20   H     H_    0.759315 0.448666 0.711449 0.145741
H21   H     H_    0.560229 0.722139 0.549097 0.115577
H22   H     H_    0.792602 0.282628 0.731983 0.144627
H23   H     H_    0.496083 0.357432 0.847229 0.153512
H24   H     H_    0.731418 0.137855 0.680180 0.131232
H25   H     H_    0.347672 0.405855 0.372740 0.129155
H26   H     H_    0.877858 0.110385 0.348400 0.141991
H27   H     H_    0.495634 0.681153 0.760900 0.157501
H28   H     H_    0.591248 0.932026 0.852670 0.151661
H29   H     H_    0.619307 0.644406 0.159286 0.148639
H30   H     H_    0.462580 0.185262 0.973763 0.135274
H31   H     H_    0.450141 0.068340 0.149338 0.152297
H32   H     H_    0.498730 0.318241 0.237289 0.147030
N1    N     N_R   0.585360 0.204570 0.560800 -0.182867
N2    N     N_R   0.414550 0.795430 0.439160 -0.173512
O1    O     O_R   0.455060 0.022100 0.338110 -0.593992
O2    O     O_2   0.979831 0.136917 0.627906 -0.550176
O3    O     O_R   0.512640 0.160150 0.379180 -0.587582
O4    O     O_R   0.288900 0.930980 0.479450 -0.561203
O5    O     O_R   0.346480 0.069030 0.520520 -0.588271
O6    O     O_R   0.487360 0.839850 0.620820 -0.580546
O7    O     O_R   0.544940 0.977900 0.661890 -0.597338
O8    O     O_R   0.653520 0.930970 0.479480 -0.595038
O9    O     O_R   0.711100 0.069020 0.520550 -0.567916
O10   O     O_2   0.100543 0.745842 0.525557 -0.533000

loop_
_geom_bond_atom_site_label_1
_geom_bond_atom_site_label_2
_ccdc_geom_bond_type
C1    O3    A    
C16   O6    A    
Cu1   O6    S    
C7    C8    A    
C39   C41   S    
C39   H14   S    
C12   C23   S    
C26   C27   A    
C29   C30   A    
C12   C28   S    
C34   C40   S    
C32   C36   A    
Cu1   N2    S    
C17   C45   A    
C38   H13   S    
C5    C6    A    
C11   C14   A    
C15   H28   S    
C4    C41   S    
C30   H7    S    
C23   C43   S    
C18   C19   A    
C37   C42   S    
C24   C29   A    
C1    C44   S    
C18   H22   S    
C31   C33   A    
C9    C10   A    
C44   C47   A    
C25   C32   A    
C14   H5    S    
C43   H19   S    
C42   O10   D    
C21   C22   A    
C42   H18   S    
Cu1   O4    S    
C19   N1    A    
Cu2   N1    S    
C1    O1    A    
Cu1   O1    S    
C24   C25   A    
C3    C8    A    
C37   H2    S    
C2    C48   A    
C25   C26   A    
C40   H17   S    
C28   O9    A    
C5    C9    A    
C37   C38   S    
Cu2   O5    S    
C31   C32   A    
C35   N2    A    
C17   H27   S    
C34   H1    S    
C28   O8    A    
C27   H20   S    
Cu2   O3    S    
C29   H25   S    
C40   C41   S    
C22   C27   A    
C21   C24   A    
C2    C5    A    
C15   C45   A    
Cu1   O8    S    
C20   H8    S    
C12   C38   S    
C4    O5    A    
C39   H12   S    
C46   C47   A    
C35   H6    S    
C18   C22   A    
C43   O2    D    
C19   H24   S    
C16   C45   S    
C10   H29   S    
C36   H21   S    
Cu2   O9    S    
C6    C7    A    
C4    O4    A    
C3    C46   A    
C13   C17   A    
C23   H15   S    
C2    C3    A    
C6    C13   A    
C46   H30   S    
C11   C13   A    
C30   C31   A    
C26   H10   S    
C36   N2    A    
C23   C39   S    
C8    H23   S    
C33   C35   A    
C48   H32   S    
C47   H31   S    
C37   C41   S    
C10   C11   A    
C38   H9    S    
Cu2   O7    S    
C20   C21   A    
C16   O7    A    
C33   H11   S    
Cu1   Cu2   S    
C20   N1    A    
C7    H3    S    
C14   C15   A    
C40   H16   S    
C9    H4    S    
C12   C34   S    
C44   C48   A    
C34   H26   S    
