data_mof_unit_37377.cif
_audit_creation_date              2012-12-10T22:16:23-0500
_audit_creation_method            fapswitch 2.2
_symmetry_space_group_name_H-M    P1
_symmetry_Int_Tables_number       1
_space_group_crystal_system       cubic
_cell_length_a                    26.511452
_cell_length_b                    26.511452
_cell_length_c                    26.511452
_cell_angle_alpha                 90.0
_cell_angle_beta                  90.0
_cell_angle_gamma                 90.0
_cell_volume                      18633.7619288

loop_
_atom_site_label
_atom_site_type_symbol
_atom_type_description
_atom_site_fract_x
_atom_site_fract_y
_atom_site_fract_z
_atom_type_partial_charge
C1    C     C_R   0.568573 0.299463 0.299463 0.912633
C2    C     C_R   0.431426 0.299463 0.299463 0.912633
C3    C     C_R   0.171843 0.893136 0.328157 -0.188692
C4    C     C_R   0.328157 0.106864 0.828157 -0.188692
C5    C     C_R   0.671843 0.893136 0.171843 -0.188692
C6    C     C_R   0.171843 0.106864 0.328157 -0.188692
C7    C     C_R   0.828157 0.893136 0.671843 -0.188692
C8    C     C_R   0.671843 0.893136 0.828157 -0.188692
C9    C     C_R   0.328157 0.106864 0.171843 -0.188692
C10   C     C_R   0.828157 0.893136 0.328157 -0.188692
C11   C     C_R   0.171843 0.106864 0.671843 -0.188692
C12   C     C_R   0.328157 0.893136 0.171843 -0.188692
C13   C     C_R   0.700537 0.700537 0.431426 0.912633
C14   C     C_R   0.671843 0.106864 0.828157 -0.188692
C15   C     C_R   0.171843 0.893136 0.671843 -0.188692
C16   C     C_R   0.828157 0.106864 0.328157 -0.188692
C17   C     C_R   0.893136 0.828157 0.671843 -0.188692
C18   C     C_R   0.106864 0.171843 0.328157 -0.188692
C19   C     C_R   0.893136 0.328157 0.828157 -0.188692
C20   C     C_R   0.106864 0.671843 0.171843 -0.188692
C21   C     C_R   0.893136 0.171843 0.328157 -0.188692
C22   C     C_R   0.106864 0.828157 0.671843 -0.188692
C23   C     C_R   0.893136 0.671843 0.171843 -0.188692
C24   C     C_R   0.299463 0.299463 0.568573 0.912633
C25   C     C_R   0.106864 0.328157 0.828157 -0.188692
C26   C     C_R   0.106864 0.171843 0.671843 -0.188692
C27   C     C_R   0.893136 0.828157 0.328157 -0.188692
C28   C     C_R   0.106864 0.671843 0.828157 -0.188692
C29   C     C_R   0.893136 0.328157 0.171843 -0.188692
C30   C     C_R   0.106864 0.828157 0.328157 -0.188692
C31   C     C_R   0.893136 0.171843 0.671843 -0.188692
C32   C     C_R   0.106864 0.328157 0.171843 -0.188692
C33   C     C_R   0.893136 0.671843 0.828157 -0.188692
C34   C     C_R   0.171843 0.328157 0.893136 -0.188692
C35   C     C_R   0.431426 0.700537 0.299463 0.912633
C36   C     C_R   0.828157 0.671843 0.106864 -0.188692
C37   C     C_R   0.671843 0.171843 0.893136 -0.188692
C38   C     C_R   0.328157 0.828157 0.106864 -0.188692
C39   C     C_R   0.828157 0.671843 0.893136 -0.188692
C40   C     C_R   0.171843 0.328157 0.106864 -0.188692
C41   C     C_R   0.328157 0.828157 0.893136 -0.188692
C42   C     C_R   0.671843 0.171843 0.106864 -0.188692
C43   C     C_R   0.828157 0.328157 0.106864 -0.188692
C44   C     C_R   0.171843 0.671843 0.893136 -0.188692
C45   C     C_R   0.328157 0.171843 0.106864 -0.188692
C46   C     C_R   0.568574 0.299463 0.700537 0.912633
C47   C     C_R   0.671843 0.828157 0.893136 -0.188692
C48   C     C_R   0.171843 0.671843 0.106864 -0.188692
C49   C     C_R   0.828157 0.328157 0.893136 -0.188692
C50   C     C_R   0.671843 0.828157 0.106864 -0.188692
C51   C     C_R   0.328157 0.171843 0.893136 -0.188692
C52   C     C_R   0.171843 0.606864 0.171843 -0.188692
C53   C     C_R   0.828157 0.393136 0.828157 -0.188692
C54   C     C_R   0.828157 0.606864 0.171843 -0.188692
C55   C     C_R   0.171843 0.393136 0.828157 -0.188692
C56   C     C_R   0.828157 0.606864 0.828157 -0.188692
C57   C     C_R   0.299463 0.700537 0.568573 0.912633
C58   C     C_R   0.171843 0.393136 0.171843 -0.188692
C59   C     C_R   0.171843 0.606864 0.828157 -0.188692
C60   C     C_R   0.828157 0.393136 0.171843 -0.188692
C61   C     C_R   0.393136 0.828157 0.171843 -0.188692
C62   C     C_R   0.606864 0.171843 0.828157 -0.188692
C63   C     C_R   0.393136 0.828157 0.828157 -0.188692
C64   C     C_R   0.606864 0.171843 0.171843 -0.188692
C65   C     C_R   0.393136 0.171843 0.828157 -0.188692
C66   C     C_R   0.606864 0.828157 0.171843 -0.188692
C67   C     C_R   0.393136 0.171843 0.171843 -0.188692
C68   C     C_R   0.700537 0.299463 0.431426 0.912633
C69   C     C_R   0.606864 0.828157 0.828157 -0.188692
C70   C     C_R   0.171843 0.828157 0.393136 -0.188692
C71   C     C_R   0.828157 0.171843 0.606864 -0.188692
C72   C     C_R   0.171843 0.171843 0.393136 -0.188692
C73   C     C_R   0.828157 0.828157 0.606864 -0.188692
C74   C     C_R   0.828157 0.171843 0.393136 -0.188692
C75   C     C_R   0.171843 0.828157 0.606864 -0.188692
C76   C     C_R   0.828157 0.828157 0.393136 -0.188692
C77   C     C_R   0.171843 0.171843 0.606864 -0.188692
C78   C     C_R   0.671843 0.606864 0.671843 -0.188692
C79   C     C_R   0.700537 0.431426 0.700537 0.912633
C80   C     C_R   0.328157 0.393136 0.328157 -0.188692
C81   C     C_R   0.328157 0.606864 0.671843 -0.188692
C82   C     C_R   0.671843 0.393136 0.328157 -0.188692
C83   C     C_R   0.328157 0.606864 0.328157 -0.188692
C84   C     C_R   0.671843 0.393136 0.671843 -0.188692
C85   C     C_R   0.671843 0.606864 0.328157 -0.188692
C86   C     C_R   0.328157 0.393136 0.671843 -0.188692
C87   C     C_R   0.393136 0.328157 0.671843 -0.188692
C88   C     C_R   0.606864 0.671843 0.328157 -0.188692
C89   C     C_R   0.393136 0.328157 0.328157 -0.188692
C90   C     C_R   0.299463 0.568573 0.299463 0.912633
C91   C     C_R   0.606864 0.671843 0.671843 -0.188692
C92   C     C_R   0.393136 0.671843 0.328157 -0.188692
C93   C     C_R   0.606864 0.328157 0.671843 -0.188692
C94   C     C_R   0.393136 0.671843 0.671843 -0.188692
C95   C     C_R   0.606864 0.328157 0.328157 -0.188692
C96   C     C_R   0.671843 0.328157 0.393136 -0.188692
C97   C     C_R   0.328157 0.671843 0.606864 -0.188692
C98   C     C_R   0.671843 0.671843 0.393136 -0.188692
C99   C     C_R   0.328157 0.328157 0.606864 -0.188692
C100  C     C_R   0.328157 0.671843 0.393136 -0.188692
C101  C     C_R   0.700537 0.568573 0.299463 0.912633
C102  C     C_R   0.671843 0.328157 0.606864 -0.188692
C103  C     C_R   0.328157 0.328157 0.393136 -0.188692
C104  C     C_R   0.671843 0.671843 0.606864 -0.188692
C105  C     C_R   0.691206 0.126305 0.126305 0.101892
C106  C     C_R   0.308794 0.873695 0.873695 0.101892
C107  C     C_R   0.873695 0.126305 0.691206 0.101892
C108  C     C_R   0.126305 0.873695 0.308794 0.101892
C109  C     C_R   0.308794 0.126305 0.873695 0.101892
C110  C     C_R   0.691206 0.873695 0.126305 0.101892
C111  C     C_R   0.126305 0.126305 0.308794 0.101892
C112  C     C_R   0.431426 0.700537 0.700537 0.912633
C113  C     C_R   0.299463 0.431426 0.700537 0.912633
C114  C     C_R   0.873695 0.873695 0.691206 0.101892
C115  C     C_R   0.691206 0.873695 0.873695 0.101892
C116  C     C_R   0.308794 0.126305 0.126305 0.101892
C117  C     C_R   0.873695 0.873695 0.308794 0.101892
C118  C     C_R   0.126305 0.126305 0.691206 0.101892
C119  C     C_R   0.308794 0.873695 0.126305 0.101892
C120  C     C_R   0.691206 0.126305 0.873695 0.101892
C121  C     C_R   0.126305 0.873695 0.691206 0.101892
C122  C     C_R   0.873695 0.126305 0.308794 0.101892
C123  C     C_R   0.873695 0.308794 0.873695 0.101892
C124  C     C_R   0.299463 0.568574 0.700537 0.912633
C125  C     C_R   0.126305 0.691206 0.126305 0.101892
C126  C     C_R   0.873695 0.691206 0.126305 0.101892
C127  C     C_R   0.126305 0.308794 0.873695 0.101892
C128  C     C_R   0.126305 0.691206 0.873695 0.101892
C129  C     C_R   0.873695 0.308794 0.126305 0.101892
C130  C     C_R   0.126305 0.308794 0.126305 0.101892
C131  C     C_R   0.873695 0.691206 0.873695 0.101892
C132  C     C_R   0.191206 0.626305 0.126305 0.101892
C133  C     C_R   0.808794 0.373695 0.873695 0.101892
C134  C     C_R   0.873695 0.626305 0.191205 0.101892
C135  C     C_R   0.700537 0.431426 0.299463 0.912633
C136  C     C_R   0.126305 0.373695 0.808794 0.101892
C137  C     C_R   0.808794 0.626305 0.873695 0.101892
C138  C     C_R   0.191206 0.373695 0.126305 0.101892
C139  C     C_R   0.126305 0.626305 0.808794 0.101892
C140  C     C_R   0.873695 0.373695 0.191206 0.101892
C141  C     C_R   0.191206 0.373695 0.873695 0.101892
C142  C     C_R   0.808794 0.626305 0.126305 0.101892
C143  C     C_R   0.873695 0.373695 0.808794 0.101892
C144  C     C_R   0.126305 0.626305 0.191206 0.101892
C145  C     C_R   0.808794 0.373695 0.126305 0.101892
C146  C     C_R   0.299463 0.431426 0.299463 0.912633
C147  C     C_R   0.191206 0.626305 0.873695 0.101892
C148  C     C_R   0.126305 0.373695 0.191205 0.101892
C149  C     C_R   0.873695 0.626305 0.808794 0.101892
C150  C     C_R   0.373695 0.873695 0.191206 0.101892
C151  C     C_R   0.626305 0.126305 0.808794 0.101892
C152  C     C_R   0.373695 0.808794 0.873695 0.101892
C153  C     C_R   0.626305 0.191206 0.126305 0.101892
C154  C     C_R   0.373695 0.126305 0.808794 0.101892
C155  C     C_R   0.626305 0.873695 0.191205 0.101892
C156  C     C_R   0.373695 0.191206 0.126305 0.101892
C157  C     C_R   0.700537 0.568574 0.700537 0.912633
C158  C     C_R   0.626305 0.808794 0.873695 0.101892
C159  C     C_R   0.626305 0.126305 0.191206 0.101892
C160  C     C_R   0.373695 0.873695 0.808794 0.101892
C161  C     C_R   0.626305 0.191206 0.873695 0.101892
C162  C     C_R   0.373695 0.808794 0.126305 0.101892
C163  C     C_R   0.626305 0.873695 0.808794 0.101892
C164  C     C_R   0.373695 0.126305 0.191205 0.101892
C165  C     C_R   0.626305 0.808794 0.126305 0.101892
C166  C     C_R   0.373695 0.191206 0.873695 0.101892
C167  C     C_R   0.126305 0.808794 0.373695 0.101892
C168  C     C_R   0.068573 0.799463 0.299463 0.912633
C169  C     C_R   0.873695 0.191206 0.626305 0.101892
C170  C     C_R   0.191206 0.126305 0.373695 0.101892
C171  C     C_R   0.808794 0.873695 0.626305 0.101892
C172  C     C_R   0.873695 0.191206 0.373695 0.101892
C173  C     C_R   0.126305 0.808794 0.626305 0.101892
C174  C     C_R   0.808794 0.873695 0.373695 0.101892
C175  C     C_R   0.191206 0.126305 0.626305 0.101892
C176  C     C_R   0.873695 0.808794 0.626305 0.101892
C177  C     C_R   0.126305 0.191206 0.373695 0.101892
C178  C     C_R   0.808794 0.126305 0.626305 0.101892
C179  C     C_R   0.931426 0.200537 0.700537 0.912633
C180  C     C_R   0.191206 0.873695 0.373695 0.101892
C181  C     C_R   0.126305 0.191206 0.626305 0.101892
C182  C     C_R   0.873695 0.808794 0.373695 0.101892
C183  C     C_R   0.191206 0.873695 0.626305 0.101892
C184  C     C_R   0.808794 0.126305 0.373695 0.101892
C185  C     C_R   0.691206 0.626305 0.626305 0.101892
C186  C     C_R   0.308794 0.373695 0.373695 0.101892
C187  C     C_R   0.373695 0.626305 0.691206 0.101892
C188  C     C_R   0.626305 0.373695 0.308794 0.101892
C189  C     C_R   0.308794 0.626305 0.373695 0.101892
C190  C     C_R   0.700537 0.799463 0.068573 0.912633
C191  C     C_R   0.691206 0.373695 0.626305 0.101892
C192  C     C_R   0.626305 0.626305 0.308794 0.101892
C193  C     C_R   0.373695 0.373695 0.691206 0.101892
C194  C     C_R   0.691206 0.373695 0.373695 0.101892
C195  C     C_R   0.308794 0.626305 0.626305 0.101892
C196  C     C_R   0.373695 0.373695 0.308794 0.101892
C197  C     C_R   0.626305 0.626305 0.691206 0.101892
C198  C     C_R   0.308794 0.373695 0.626305 0.101892
C199  C     C_R   0.691206 0.626305 0.373695 0.101892
C200  C     C_R   0.626305 0.373695 0.691206 0.101892
C201  C     C_R   0.299463 0.200537 0.931426 0.912633
C202  C     C_R   0.373695 0.626305 0.308794 0.101892
C203  C     C_R   0.373695 0.308794 0.373695 0.101892
C204  C     C_R   0.626305 0.691206 0.626305 0.101892
C205  C     C_R   0.373695 0.691206 0.626305 0.101892
C206  C     C_R   0.626305 0.308794 0.373695 0.101892
C207  C     C_R   0.626305 0.691206 0.373695 0.101892
C208  C     C_R   0.373695 0.308794 0.626305 0.101892
C209  C     C_R   0.626305 0.308794 0.626305 0.101892
C210  C     C_R   0.373695 0.691206 0.373695 0.101892
C211  C     C_R   0.931426 0.799463 0.700537 0.912633
C212  C     C_R   0.700537 0.299463 0.568573 0.912633
C213  C     C_R   0.068573 0.200537 0.299463 0.912633
C214  C     C_R   0.299463 0.799463 0.931426 0.912633
C215  C     C_R   0.700537 0.200537 0.068573 0.912633
C216  C     C_R   0.068573 0.200537 0.700537 0.912633
C217  C     C_R   0.931426 0.799463 0.299463 0.912633
C218  C     C_R   0.700537 0.200537 0.931426 0.912633
C219  C     C_R   0.299463 0.799463 0.068573 0.912633
C220  C     C_R   0.931426 0.200537 0.299463 0.912633
C221  C     C_R   0.068573 0.799463 0.700537 0.912633
C222  C     C_R   0.299463 0.200537 0.068573 0.912633
C223  C     C_R   0.299463 0.700537 0.431426 0.912633
C224  C     C_R   0.700537 0.799463 0.931426 0.912633
C225  C     C_R   0.200537 0.700537 0.068573 0.912633
C226  C     C_R   0.799463 0.299463 0.931426 0.912633
C227  C     C_R   0.200537 0.931426 0.700537 0.912633
C228  C     C_R   0.799463 0.068573 0.299463 0.912633
C229  C     C_R   0.200537 0.299463 0.931426 0.912633
C230  C     C_R   0.799463 0.700537 0.068573 0.912633
C231  C     C_R   0.200537 0.068573 0.299463 0.912633
C232  C     C_R   0.799463 0.931426 0.700537 0.912633
C233  C     C_R   0.799463 0.299463 0.068573 0.912633
C234  C     C_R   0.431426 0.299463 0.700537 0.912633
C235  C     C_R   0.200537 0.700537 0.931426 0.912633
C236  C     C_R   0.799463 0.068573 0.700537 0.912633
C237  C     C_R   0.200537 0.931426 0.299463 0.912633
C238  C     C_R   0.799463 0.700537 0.931426 0.912633
C239  C     C_R   0.200537 0.299463 0.068573 0.912633
C240  C     C_R   0.799463 0.931426 0.299463 0.912633
C241  C     C_R   0.200537 0.068573 0.700537 0.912633
C242  C     C_R   0.299463 0.931426 0.200537 0.912633
C243  C     C_R   0.700537 0.068573 0.799463 0.912633
C244  C     C_R   0.068573 0.299463 0.200537 0.912633
C245  C     C_R   0.568574 0.700537 0.299463 0.912633
C246  C     C_R   0.931426 0.700537 0.799463 0.912633
C247  C     C_R   0.700537 0.068573 0.200537 0.912633
C248  C     C_R   0.299463 0.931426 0.799463 0.912633
C249  C     C_R   0.931426 0.700537 0.200537 0.912633
C250  C     C_R   0.068573 0.299463 0.799463 0.912633
C251  C     C_R   0.700537 0.931426 0.799463 0.912633
C252  C     C_R   0.299463 0.068573 0.200537 0.912633
C253  C     C_R   0.931426 0.299463 0.799463 0.912633
C254  C     C_R   0.068573 0.700537 0.200537 0.912633
C255  C     C_R   0.299463 0.068573 0.799463 0.912633
C256  C     C_R   0.299463 0.299463 0.431426 0.912633
C257  C     C_R   0.700537 0.931426 0.200537 0.912633
C258  C     C_R   0.068573 0.700537 0.799463 0.912633
C259  C     C_R   0.931426 0.299463 0.200537 0.912633
C260  C     C_R   0.568574 0.799463 0.799463 0.912633
C261  C     C_R   0.431426 0.200537 0.200537 0.912633
C262  C     C_R   0.200537 0.799463 0.568573 0.912633
C263  C     C_R   0.799463 0.200537 0.431426 0.912633
C264  C     C_R   0.431426 0.799463 0.200537 0.912633
C265  C     C_R   0.568574 0.200537 0.799463 0.912633
C266  C     C_R   0.799463 0.799463 0.431426 0.912633
C267  C     C_R   0.700537 0.700537 0.568573 0.912633
C268  C     C_R   0.200537 0.200537 0.568573 0.912633
C269  C     C_R   0.568573 0.200537 0.200537 0.912633
C270  C     C_R   0.431426 0.799463 0.799463 0.912633
C271  C     C_R   0.200537 0.200537 0.431426 0.912633
C272  C     C_R   0.799463 0.799463 0.568573 0.912633
C273  C     C_R   0.431426 0.200537 0.799463 0.912633
C274  C     C_R   0.568574 0.799463 0.200537 0.912633
C275  C     C_R   0.799463 0.200537 0.568573 0.912633
C276  C     C_R   0.200537 0.799463 0.431426 0.912633
C277  C     C_R   0.200537 0.431426 0.200537 0.912633
C278  C     C_R   0.568574 0.700537 0.700537 0.912633
C279  C     C_R   0.799463 0.568574 0.799463 0.912633
C280  C     C_R   0.200537 0.568574 0.799463 0.912633
C281  C     C_R   0.799463 0.431426 0.200537 0.912633
C282  C     C_R   0.799463 0.568573 0.200537 0.912633
C283  C     C_R   0.200537 0.431426 0.799463 0.912633
C284  C     C_R   0.799463 0.431426 0.799463 0.912633
C285  C     C_R   0.200537 0.568573 0.200537 0.912633
C286  C     C_R   0.671843 0.106864 0.171843 -0.188692
C287  C     C_R   0.328157 0.893136 0.828157 -0.188692
C288  C     C_R   0.828157 0.106864 0.671843 -0.188692
I1    I     I_    0.735257 0.077787 0.077787 -0.191157
I2    I     I_    0.264743 0.077787 0.077787 -0.191157
I3    I     I_    0.922213 0.922213 0.264743 -0.191158
I4    I     I_    0.077787 0.077787 0.735257 -0.191157
I5    I     I_    0.264743 0.922213 0.077787 -0.191157
I6    I     I_    0.735257 0.077787 0.922213 -0.191157
I7    I     I_    0.077787 0.922213 0.735257 -0.191157
I8    I     I_    0.922213 0.077787 0.264743 -0.191157
I9    I     I_    0.922213 0.264743 0.922213 -0.191158
I10   I     I_    0.077787 0.735257 0.077787 -0.191157
I11   I     I_    0.922213 0.735257 0.077787 -0.191157
I12   I     I_    0.264743 0.922213 0.922213 -0.191158
I13   I     I_    0.077787 0.264743 0.922213 -0.191157
I14   I     I_    0.077787 0.735257 0.922213 -0.191157
I15   I     I_    0.922213 0.264743 0.077787 -0.191157
I16   I     I_    0.077787 0.264743 0.077787 -0.191157
I17   I     I_    0.922213 0.735257 0.922213 -0.191158
I18   I     I_    0.235257 0.577787 0.077787 -0.191158
I19   I     I_    0.764743 0.422213 0.922213 -0.191158
I20   I     I_    0.922213 0.577787 0.235257 -0.191157
I21   I     I_    0.077787 0.422213 0.764743 -0.191157
I22   I     I_    0.764743 0.577787 0.922213 -0.191157
I23   I     I_    0.922213 0.077787 0.735257 -0.191157
I24   I     I_    0.235257 0.422213 0.077787 -0.191157
I25   I     I_    0.077787 0.577787 0.764743 -0.191158
I26   I     I_    0.922213 0.422213 0.235257 -0.191158
I27   I     I_    0.235257 0.422213 0.922213 -0.191157
I28   I     I_    0.764743 0.577787 0.077787 -0.191158
I29   I     I_    0.922213 0.422213 0.764743 -0.191157
I30   I     I_    0.077787 0.577787 0.235257 -0.191157
I31   I     I_    0.764743 0.422213 0.077787 -0.191157
I32   I     I_    0.235257 0.577787 0.922213 -0.191157
I33   I     I_    0.077787 0.422213 0.235257 -0.191157
I34   I     I_    0.077787 0.922213 0.264743 -0.191157
I35   I     I_    0.922213 0.577787 0.764743 -0.191157
I36   I     I_    0.422213 0.922213 0.235257 -0.191158
I37   I     I_    0.577787 0.077787 0.764743 -0.191158
I38   I     I_    0.422213 0.764743 0.922213 -0.191158
I39   I     I_    0.577787 0.235257 0.077787 -0.191158
I40   I     I_    0.422213 0.077787 0.764743 -0.191157
I41   I     I_    0.577787 0.922213 0.235257 -0.191157
I42   I     I_    0.422213 0.235257 0.077787 -0.191157
I43   I     I_    0.577787 0.764743 0.922213 -0.191157
I44   I     I_    0.577787 0.077787 0.235257 -0.191157
I45   I     I_    0.264743 0.077787 0.922213 -0.191157
I46   I     I_    0.422213 0.922213 0.764743 -0.191157
I47   I     I_    0.577787 0.235257 0.922213 -0.191157
I48   I     I_    0.422213 0.764743 0.077787 -0.191157
I49   I     I_    0.577787 0.922213 0.764743 -0.191157
I50   I     I_    0.422213 0.077787 0.235257 -0.191157
I51   I     I_    0.577787 0.764743 0.077787 -0.191158
I52   I     I_    0.422213 0.235257 0.922213 -0.191157
I53   I     I_    0.077787 0.764743 0.422213 -0.191157
I54   I     I_    0.922213 0.235257 0.577787 -0.191157
I55   I     I_    0.235257 0.077787 0.422213 -0.191157
I56   I     I_    0.735257 0.922213 0.077787 -0.191157
I57   I     I_    0.764743 0.922213 0.577787 -0.191157
I58   I     I_    0.922213 0.235257 0.422213 -0.191158
I59   I     I_    0.077787 0.764743 0.577787 -0.191157
I60   I     I_    0.764743 0.922213 0.422213 -0.191157
I61   I     I_    0.235257 0.077787 0.577787 -0.191158
I62   I     I_    0.922213 0.764743 0.577787 -0.191157
I63   I     I_    0.077787 0.235257 0.422213 -0.191157
I64   I     I_    0.764743 0.077787 0.577787 -0.191157
I65   I     I_    0.235257 0.922213 0.422213 -0.191158
I66   I     I_    0.077787 0.235257 0.577787 -0.191158
I67   I     I_    0.077787 0.077787 0.264743 -0.191157
I68   I     I_    0.922213 0.764743 0.422213 -0.191157
I69   I     I_    0.235257 0.922213 0.577787 -0.191157
I70   I     I_    0.764743 0.077787 0.422213 -0.191157
I71   I     I_    0.735257 0.577787 0.577787 -0.191157
I72   I     I_    0.264743 0.422213 0.422213 -0.191157
I73   I     I_    0.422213 0.577787 0.735257 -0.191157
I74   I     I_    0.577787 0.422213 0.264743 -0.191157
I75   I     I_    0.264743 0.577787 0.422213 -0.191157
I76   I     I_    0.735257 0.422213 0.577787 -0.191157
I77   I     I_    0.577787 0.577787 0.264743 -0.191157
I78   I     I_    0.922213 0.922213 0.735257 -0.191158
I79   I     I_    0.422213 0.422213 0.735257 -0.191157
I80   I     I_    0.735257 0.422213 0.422213 -0.191157
I81   I     I_    0.264743 0.577787 0.577787 -0.191157
I82   I     I_    0.422213 0.422213 0.264743 -0.191157
I83   I     I_    0.577787 0.577787 0.735257 -0.191157
I84   I     I_    0.264743 0.422213 0.577787 -0.191157
I85   I     I_    0.735257 0.577787 0.422213 -0.191157
I86   I     I_    0.577787 0.422213 0.735257 -0.191157
I87   I     I_    0.422213 0.577787 0.264743 -0.191157
I88   I     I_    0.422213 0.264743 0.422213 -0.191157
I89   I     I_    0.735257 0.922213 0.922213 -0.191158
I90   I     I_    0.577787 0.735257 0.577787 -0.191157
I91   I     I_    0.422213 0.735257 0.577787 -0.191157
I92   I     I_    0.577787 0.264743 0.422213 -0.191157
I93   I     I_    0.577787 0.735257 0.422213 -0.191157
I94   I     I_    0.422213 0.264743 0.577787 -0.191157
I95   I     I_    0.577787 0.264743 0.577787 -0.191157
I96   I     I_    0.422213 0.735257 0.422213 -0.191157
O1    O     O_R   0.553790 0.256330 0.314650 -0.589624
O2    O     O_R   0.446210 0.256330 0.314650 -0.589624
O3    O     O_R   0.814650 0.743670 0.946210 -0.589624
O4    O     O_R   0.946210 0.256330 0.185350 -0.589624
O5    O     O_R   0.053790 0.743670 0.814650 -0.589624
O6    O     O_R   0.814650 0.256330 0.946210 -0.589624
O7    O     O_R   0.185350 0.743670 0.053790 -0.589624
O8    O     O_R   0.053790 0.743670 0.185350 -0.589624
O9    O     O_R   0.946210 0.256330 0.814650 -0.589624
O10   O     O_R   0.185350 0.743670 0.946210 -0.589624
O11   O     O_R   0.814650 0.256330 0.053790 -0.589624
O12   O     O_R   0.946210 0.743670 0.814650 -0.589624
O13   O     O_R   0.685350 0.743670 0.446210 -0.589624
O14   O     O_R   0.053790 0.256330 0.185350 -0.589624
O15   O     O_R   0.814650 0.743670 0.053790 -0.589624
O16   O     O_R   0.185350 0.256330 0.946210 -0.589624
O17   O     O_R   0.743670 0.185350 0.053790 -0.589624
O18   O     O_R   0.256330 0.814650 0.946210 -0.589624
O19   O     O_R   0.743670 0.946210 0.185350 -0.589624
O20   O     O_R   0.256330 0.053790 0.814650 -0.589624
O21   O     O_R   0.743670 0.814650 0.946210 -0.589624
O22   O     O_R   0.256330 0.185350 0.053790 -0.589624
O23   O     O_R   0.743670 0.053790 0.814650 -0.589624
O24   O     O_R   0.314650 0.256330 0.553790 -0.589624
O25   O     O_R   0.256330 0.946210 0.185350 -0.589624
O26   O     O_R   0.256330 0.814650 0.053790 -0.589624
O27   O     O_R   0.743670 0.185350 0.946210 -0.589624
O28   O     O_R   0.256330 0.053790 0.185350 -0.589624
O29   O     O_R   0.743670 0.946210 0.814650 -0.589624
O30   O     O_R   0.256330 0.185350 0.946210 -0.589624
O31   O     O_R   0.743670 0.814650 0.053790 -0.589624
O32   O     O_R   0.256330 0.946210 0.814650 -0.589624
O33   O     O_R   0.743670 0.053790 0.185350 -0.589624
O34   O     O_R   0.814650 0.946210 0.743670 -0.589624
O35   O     O_R   0.446210 0.743670 0.314650 -0.589624
O36   O     O_R   0.185350 0.053790 0.256330 -0.589624
O37   O     O_R   0.053790 0.814650 0.743670 -0.589624
O38   O     O_R   0.946210 0.185350 0.256330 -0.589624
O39   O     O_R   0.185350 0.053790 0.743670 -0.589624
O40   O     O_R   0.814650 0.946210 0.256330 -0.589624
O41   O     O_R   0.946210 0.185350 0.743670 -0.589624
O42   O     O_R   0.053790 0.814650 0.256330 -0.589624
O43   O     O_R   0.185350 0.946210 0.256330 -0.589624
O44   O     O_R   0.814650 0.053790 0.743670 -0.589624
O45   O     O_R   0.946210 0.814650 0.256330 -0.589624
O46   O     O_R   0.553790 0.256330 0.685350 -0.589624
O47   O     O_R   0.053790 0.185350 0.743670 -0.589624
O48   O     O_R   0.814650 0.053790 0.256330 -0.589624
O49   O     O_R   0.185350 0.946210 0.743670 -0.589624
O50   O     O_R   0.053790 0.185350 0.256330 -0.589624
O51   O     O_R   0.946210 0.814650 0.743670 -0.589624
O52   O     O_R   0.553790 0.756330 0.814650 -0.589624
O53   O     O_R   0.446210 0.243670 0.185350 -0.589624
O54   O     O_R   0.185350 0.756330 0.553790 -0.589624
O55   O     O_R   0.814650 0.243670 0.446210 -0.589624
O56   O     O_R   0.446210 0.756330 0.185350 -0.589624
O57   O     O_R   0.314650 0.743670 0.553790 -0.589624
O58   O     O_R   0.553790 0.243670 0.814650 -0.589624
O59   O     O_R   0.814650 0.756330 0.446210 -0.589624
O60   O     O_R   0.185350 0.243670 0.553790 -0.589624
O61   O     O_R   0.553790 0.243670 0.185350 -0.589624
O62   O     O_R   0.446210 0.756330 0.814650 -0.589624
O63   O     O_R   0.185350 0.243670 0.446210 -0.589624
O64   O     O_R   0.814650 0.756330 0.553790 -0.589624
O65   O     O_R   0.446210 0.243670 0.814650 -0.589624
O66   O     O_R   0.553790 0.756330 0.185350 -0.589624
O67   O     O_R   0.814650 0.243670 0.553790 -0.589624
O68   O     O_R   0.685350 0.256330 0.446210 -0.589624
O69   O     O_R   0.185350 0.756330 0.446210 -0.589624
O70   O     O_R   0.243670 0.185350 0.553790 -0.589624
O71   O     O_R   0.756330 0.814650 0.446210 -0.589624
O72   O     O_R   0.243670 0.446210 0.185350 -0.589624
O73   O     O_R   0.756330 0.553790 0.814650 -0.589624
O74   O     O_R   0.243670 0.814650 0.446210 -0.589624
O75   O     O_R   0.756330 0.185350 0.553790 -0.589624
O76   O     O_R   0.243670 0.553790 0.814650 -0.589624
O77   O     O_R   0.756330 0.446210 0.185350 -0.589624
O78   O     O_R   0.756330 0.814650 0.553790 -0.589624
O79   O     O_R   0.743670 0.685350 0.553790 -0.589624
O80   O     O_R   0.243670 0.185350 0.446210 -0.589624
O81   O     O_R   0.756330 0.553790 0.185350 -0.589624
O82   O     O_R   0.243670 0.446210 0.814650 -0.589624
O83   O     O_R   0.756330 0.185350 0.446210 -0.589624
O84   O     O_R   0.243670 0.814650 0.553790 -0.589624
O85   O     O_R   0.756330 0.446210 0.814650 -0.589624
O86   O     O_R   0.243670 0.553790 0.185350 -0.589624
O87   O     O_R   0.814650 0.446210 0.243670 -0.589624
O88   O     O_R   0.185350 0.553790 0.756330 -0.589624
O89   O     O_R   0.553790 0.814650 0.243670 -0.589624
O90   O     O_R   0.256330 0.314650 0.446210 -0.589624
O91   O     O_R   0.446210 0.185350 0.756330 -0.589624
O92   O     O_R   0.185350 0.553790 0.243670 -0.589624
O93   O     O_R   0.814650 0.446210 0.756330 -0.589624
O94   O     O_R   0.446210 0.185350 0.243670 -0.589624
O95   O     O_R   0.553790 0.814650 0.756330 -0.589624
O96   O     O_R   0.185350 0.446210 0.756330 -0.589624
O97   O     O_R   0.814650 0.553790 0.243670 -0.589624
O98   O     O_R   0.446210 0.814650 0.756330 -0.589624
O99   O     O_R   0.553790 0.185350 0.243670 -0.589624
O100  O     O_R   0.814650 0.553790 0.756330 -0.589624
O101  O     O_R   0.743670 0.446210 0.685350 -0.589624
O102  O     O_R   0.185350 0.446210 0.243670 -0.589624
O103  O     O_R   0.553790 0.185350 0.756330 -0.589624
O104  O     O_R   0.446210 0.814650 0.243670 -0.589624
O105  O     O_R   0.446210 0.743670 0.685350 -0.589624
O106  O     O_R   0.256330 0.553790 0.314650 -0.589624
O107  O     O_R   0.743670 0.314650 0.446210 -0.589624
O108  O     O_R   0.256330 0.685350 0.553790 -0.589624
O109  O     O_R   0.743670 0.553790 0.314650 -0.589624
O110  O     O_R   0.256330 0.446210 0.685350 -0.589624
O111  O     O_R   0.256330 0.314650 0.553790 -0.589624
O112  O     O_R   0.743670 0.685350 0.446210 -0.589624
O113  O     O_R   0.256330 0.553790 0.685350 -0.589624
O114  O     O_R   0.743670 0.446210 0.314650 -0.589624
O115  O     O_R   0.256330 0.685350 0.446210 -0.589624
O116  O     O_R   0.685350 0.256330 0.553790 -0.589624
O117  O     O_R   0.743670 0.314650 0.553790 -0.589624
O118  O     O_R   0.256330 0.446210 0.314650 -0.589624
O119  O     O_R   0.743670 0.553790 0.685350 -0.589624
O120  O     O_R   0.314650 0.446210 0.743670 -0.589624
O121  O     O_R   0.685350 0.553790 0.256330 -0.589624
O122  O     O_R   0.553790 0.314650 0.743670 -0.589624
O123  O     O_R   0.446210 0.685350 0.256330 -0.589624
O124  O     O_R   0.685350 0.553790 0.743670 -0.589624
O125  O     O_R   0.314650 0.446210 0.256330 -0.589624
O126  O     O_R   0.446210 0.685350 0.743670 -0.589624
O127  O     O_R   0.314650 0.743670 0.446210 -0.589624
O128  O     O_R   0.553790 0.314650 0.256330 -0.589624
O129  O     O_R   0.685350 0.446210 0.256330 -0.589624
O130  O     O_R   0.314650 0.553790 0.743670 -0.589624
O131  O     O_R   0.446210 0.314650 0.256330 -0.589624
O132  O     O_R   0.553790 0.685350 0.743670 -0.589624
O133  O     O_R   0.314650 0.553790 0.256330 -0.589624
O134  O     O_R   0.685350 0.446210 0.743670 -0.589624
O135  O     O_R   0.553790 0.685350 0.256330 -0.589624
O136  O     O_R   0.446210 0.314650 0.743670 -0.589624
O137  O     O_R   0.053790 0.756330 0.314650 -0.589624
O138  O     O_R   0.446210 0.256330 0.685350 -0.589624
O139  O     O_R   0.946210 0.243670 0.685350 -0.589624
O140  O     O_R   0.685350 0.756330 0.053790 -0.589624
O141  O     O_R   0.314650 0.243670 0.946210 -0.589624
O142  O     O_R   0.946210 0.756330 0.685350 -0.589624
O143  O     O_R   0.053790 0.243670 0.314650 -0.589624
O144  O     O_R   0.314650 0.756330 0.946210 -0.589624
O145  O     O_R   0.685350 0.243670 0.053790 -0.589624
O146  O     O_R   0.053790 0.243670 0.685350 -0.589624
O147  O     O_R   0.946210 0.756330 0.314650 -0.589624
O148  O     O_R   0.685350 0.243670 0.946210 -0.589624
O149  O     O_R   0.553790 0.743670 0.314650 -0.589624
O150  O     O_R   0.314650 0.756330 0.053790 -0.589624
O151  O     O_R   0.946210 0.243670 0.314650 -0.589624
O152  O     O_R   0.053790 0.756330 0.685350 -0.589624
O153  O     O_R   0.314650 0.243670 0.053790 -0.589624
O154  O     O_R   0.685350 0.756330 0.946210 -0.589624
O155  O     O_R   0.243670 0.685350 0.053790 -0.589624
O156  O     O_R   0.756330 0.314650 0.946210 -0.589624
O157  O     O_R   0.243670 0.946210 0.685350 -0.589624
O158  O     O_R   0.756330 0.053790 0.314650 -0.589624
O159  O     O_R   0.243670 0.314650 0.946210 -0.589624
O160  O     O_R   0.314650 0.256330 0.446210 -0.589624
O161  O     O_R   0.756330 0.685350 0.053790 -0.589624
O162  O     O_R   0.243670 0.053790 0.314650 -0.589624
O163  O     O_R   0.756330 0.946210 0.685350 -0.589624
O164  O     O_R   0.756330 0.314650 0.053790 -0.589624
O165  O     O_R   0.243670 0.685350 0.946210 -0.589624
O166  O     O_R   0.756330 0.053790 0.685350 -0.589624
O167  O     O_R   0.243670 0.946210 0.314650 -0.589624
O168  O     O_R   0.756330 0.685350 0.946210 -0.589624
O169  O     O_R   0.243670 0.314650 0.053790 -0.589624
O170  O     O_R   0.756330 0.946210 0.314650 -0.589624
O171  O     O_R   0.685350 0.743670 0.553790 -0.589624
O172  O     O_R   0.243670 0.053790 0.685350 -0.589624
O173  O     O_R   0.314650 0.946210 0.243670 -0.589624
O174  O     O_R   0.685350 0.053790 0.756330 -0.589624
O175  O     O_R   0.053790 0.314650 0.243670 -0.589624
O176  O     O_R   0.946210 0.685350 0.756330 -0.589624
O177  O     O_R   0.685350 0.053790 0.243670 -0.589624
O178  O     O_R   0.314650 0.946210 0.756330 -0.589624
O179  O     O_R   0.946210 0.685350 0.243670 -0.589624
O180  O     O_R   0.053790 0.314650 0.756330 -0.589624
O181  O     O_R   0.685350 0.946210 0.756330 -0.589624
O182  O     O_R   0.553790 0.743670 0.685350 -0.589624
O183  O     O_R   0.314650 0.053790 0.243670 -0.589624
O184  O     O_R   0.946210 0.314650 0.756330 -0.589624
O185  O     O_R   0.053790 0.685350 0.243670 -0.589624
O186  O     O_R   0.314650 0.053790 0.756330 -0.589624
O187  O     O_R   0.685350 0.946210 0.243670 -0.589624
O188  O     O_R   0.053790 0.685350 0.756330 -0.589624
O189  O     O_R   0.946210 0.314650 0.243670 -0.589624
O190  O     O_R   0.053790 0.256330 0.814650 -0.589624
O191  O     O_R   0.946210 0.743670 0.185350 -0.589624
O192  O     O_R   0.185350 0.256330 0.053790 -0.589624
Zn1   Zn    Zn3+2 0.500000 0.210530 0.289470 1.089144
Zn2   Zn    Zn3+2 0.210530 0.289470 0.500000 1.089144
Zn3   Zn    Zn3+2 0.789470 0.500000 0.710530 1.089144
Zn4   Zn    Zn3+2 0.210530 0.500000 0.289470 1.089144
Zn5   Zn    Zn3+2 0.789470 0.289470 0.500000 1.089144
Zn6   Zn    Zn3+2 0.210530 0.710530 0.500000 1.089144
Zn7   Zn    Zn3+2 0.789470 0.500000 0.289470 1.089144
Zn8   Zn    Zn3+2 0.210530 0.500000 0.710530 1.089144
Zn9   Zn    Zn3+2 0.289470 0.500000 0.789470 1.089144
Zn10  Zn    Zn3+2 0.710530 0.500000 0.210530 1.089144
Zn11  Zn    Zn3+2 0.500000 0.289470 0.789470 1.089144
Zn12  Zn    Zn3+2 0.500000 0.789470 0.710530 1.089144
Zn13  Zn    Zn3+2 0.500000 0.710530 0.210530 1.089144
Zn14  Zn    Zn3+2 0.710530 0.500000 0.789470 1.089144
Zn15  Zn    Zn3+2 0.289470 0.500000 0.210530 1.089144
Zn16  Zn    Zn3+2 0.500000 0.710530 0.789470 1.089144
Zn17  Zn    Zn3+2 0.500000 0.289470 0.210530 1.089144
Zn18  Zn    Zn3+2 0.000000 0.710530 0.289470 1.089144
Zn19  Zn    Zn3+2 0.000000 0.289470 0.710530 1.089144
Zn20  Zn    Zn3+2 0.710530 0.710530 0.000000 1.089144
Zn21  Zn    Zn3+2 0.289470 0.289470 0.000000 1.089144
Zn22  Zn    Zn3+2 0.000000 0.710530 0.710530 1.089144
Zn23  Zn    Zn3+2 0.710530 0.210530 0.500000 1.089144
Zn24  Zn    Zn3+2 1.000000 0.289470 0.289470 1.089144
Zn25  Zn    Zn3+2 0.289470 0.710530 0.000000 1.089144
Zn26  Zn    Zn3+2 0.710530 0.289470 0.000000 1.089144
Zn27  Zn    Zn3+2 0.289470 0.000000 0.710530 1.089144
Zn28  Zn    Zn3+2 0.710530 1.000000 0.289470 1.089144
Zn29  Zn    Zn3+2 0.289470 1.000000 0.289470 1.089144
Zn30  Zn    Zn3+2 0.710530 0.000000 0.710530 1.089144
Zn31  Zn    Zn3+2 1.000000 0.210530 0.789470 1.089144
Zn32  Zn    Zn3+2 1.000000 0.789470 0.210530 1.089144
Zn33  Zn    Zn3+2 0.210530 0.210530 0.000000 1.089144
Zn34  Zn    Zn3+2 0.289470 0.789470 0.500000 1.089144
Zn35  Zn    Zn3+2 0.789470 0.789470 0.000000 1.089144
Zn36  Zn    Zn3+2 1.000000 0.210530 0.210530 1.089144
Zn37  Zn    Zn3+2 1.000000 0.789470 0.789470 1.089144
Zn38  Zn    Zn3+2 0.789470 0.210530 0.000000 1.089144
Zn39  Zn    Zn3+2 0.210530 0.789470 0.000000 1.089144
Zn40  Zn    Zn3+2 0.789470 1.000000 0.210530 1.089144
Zn41  Zn    Zn3+2 0.210530 1.000000 0.789470 1.089144
Zn42  Zn    Zn3+2 0.789470 1.000000 0.789470 1.089144
Zn43  Zn    Zn3+2 0.210530 1.000000 0.210530 1.089144
Zn44  Zn    Zn3+2 0.500000 0.210530 0.710530 1.089144
Zn45  Zn    Zn3+2 0.500000 0.789470 0.289470 1.089144
Zn46  Zn    Zn3+2 0.289470 0.210530 0.500000 1.089144
Zn47  Zn    Zn3+2 0.710530 0.789470 0.500000 1.089144
Zn48  Zn    Zn3+2 0.789470 0.710530 0.500000 1.089144

loop_
_geom_bond_atom_site_label_1
_geom_bond_atom_site_label_2
_ccdc_geom_bond_type
C10   C174  A    
C238  O168  A    
C8    C251  S    
C54   C282  S    
O128  Zn17  S    
C20   C144  A    
O27   Zn38  S    
C112  O126  A    
O90   Zn2   S    
C255  O20   A    
O84   Zn34  S    
C35   O123  A    
C195  I81   S    
C214  O144  A    
C68   O68   A    
C201  O141  A    
C157  O119  A    
C52   C144  A    
C24   O111  A    
O160  Zn46  S    
C53   C284  S    
C45   C222  S    
C214  O18   A    
C37   C161  A    
C113  O110  A    
C63   C270  S    
O121  Zn10  S    
C40   C239  S    
C284  O93   A    
C62   C265  S    
C248  O32   A    
C66   C155  A    
C189  I75   S    
C244  O14   A    
C30   C168  S    
C262  O84   A    
C160  I46   S    
C54   C134  A    
C50   C110  A    
C269  O61   A    
O96   Zn8   S    
O80   Zn46  S    
C16   C122  A    
C165  I51   S    
C236  O166  A    
C251  O29   A    
C253  O9    A    
C48   C125  A    
C155  I41   S    
C67   C164  A    
C129  I15   S    
C18   C177  A    
C196  I82   S    
C34   C127  A    
C21   C220  S    
C40   C138  A    
C14   C151  A    
C77   C181  A    
O147  Zn18  S    
O186  Zn27  S    
O137  Zn18  S    
C74   C263  S    
C80   C146  S    
C239  O192  A    
C51   C109  A    
O82   Zn9   S    
C59   C280  S    
C55   C283  S    
C103  C256  S    
O30   Zn33  S    
C237  O43   A    
O93   Zn3   S    
C176  I62   S    
O79   Zn48  S    
O42   Zn32  S    
C2    O2    A    
C95   C188  A    
O119  Zn3   S    
C7    C232  S    
C27   C117  A    
O108  Zn6   S    
C80   C196  A    
C22   C221  S    
O64   Zn48  S    
C258  O5    A    
C184  I70   S    
C259  O4    A    
C52   C132  A    
C12   C150  A    
C93   C200  A    
C53   C133  A    
C18   C111  A    
C229  O159  A    
O13   Zn47  S    
O161  Zn20  S    
O188  Zn22  S    
O76   Zn9   S    
C221  O152  A    
O61   Zn17  S    
C81   C124  S    
O139  Zn19  S    
C124  O113  A    
C5    C155  A    
C65   C166  A    
C283  O82   A    
C15   C227  S    
C67   C156  A    
C239  O169  A    
O180  Zn19  S    
C47   C115  A    
C43   C145  A    
O31   Zn35  S    
O9    Zn31  S    
C110  I56   S    
O35   Zn45  S    
C211  O51   A    
C114  I78   S    
C111  I67   S    
C50   C165  A    
C102  C191  A    
C207  I93   S    
O63   Zn2   S    
C33   C246  S    
C208  I94   S    
C86   C198  A    
C69   C260  S    
C38   C119  A    
C12   C242  S    
O114  Zn7   S    
C69   C163  A    
C258  O188  A    
C199  I85   S    
C277  O72   A    
O34   Zn42  S    
C104  C204  A    
O157  Zn27  S    
C7    C114  A    
O184  Zn19  S    
C49   C133  A    
C190  O31   A    
C16   C228  S    
O49   Zn41  S    
C9    C116  A    
C31   C107  A    
C242  O173  A    
C36   C126  A    
C219  O150  A    
C16   C184  A    
C13   O13   A    
O26   Zn39  S    
C243  O174  A    
C21   C172  A    
O70   Zn46  S    
O165  Zn25  S    
C190  O140  A    
C97   C195  A    
C168  O42   A    
C143  I29   S    
C124  O130  A    
C20   C125  A    
C86   C193  A    
C33   C149  A    
C70   C167  A    
C253  O184  A    
C125  I10   S    
C216  O47   A    
C39   C131  A    
C64   C159  A    
C234  O136  A    
O150  Zn25  S    
C2    O131  A    
C241  O172  A    
O170  Zn28  S    
O187  Zn28  S    
C232  O34   A    
C105  I1    S    
C63   C152  A    
C135  O129  A    
C167  I53   S    
C246  O176  A    
C188  I74   S    
O25   Zn43  S    
C23   C249  S    
O20   Zn41  S    
O141  Zn21  S    
O66   Zn13  S    
C80   C186  A    
C60   C281  S    
C197  I83   S    
C94   C205  A    
C247  O177  A    
C166  I52   S    
O95   Zn12  S    
O71   Zn47  S    
C59   C147  A    
C4    C109  A    
C34   C141  A    
O14   Zn36  S    
O159  Zn21  S    
C76   C266  S    
C181  I66   S    
O51   Zn37  S    
C6    C111  A    
O97   Zn7   S    
C273  O65   A    
O162  Zn29  S    
C204  I90   S    
C221  O37   A    
C145  I31   S    
O103  Zn44  S    
C19   C123  A    
C283  O96   A    
C29   C259  S    
C98   C199  A    
C279  O73   A    
O129  Zn10  S    
C30   C167  A    
O132  Zn16  S    
O11   Zn38  S    
C272  O78   A    
C146  O125  A    
O69   Zn6   S    
O134  Zn14  S    
C62   C161  A    
C74   C184  A    
C5    C110  A    
C200  I86   S    
C157  O124  A    
C82   C135  S    
C57   O108  A    
C219  O26   A    
C282  O81   A    
C116  I2    S    
C141  I27   S    
C36   C142  A    
C137  I22   S    
C272  O64   A    
O124  Zn14  S    
C191  I76   S    
O52   Zn16  S    
C19   C253  S    
C29   C129  A    
C91   C197  A    
C107  I23   S    
C212  O117  A    
O102  Zn4   S    
O131  Zn17  S    
C215  O145  A    
C146  O118  A    
C271  O80   A    
O8    Zn32  S    
C194  I80   S    
C264  O56   A    
C95   C206  A    
C242  O25   A    
C152  I38   S    
C32   C244  S    
C120  I6    S    
C123  I9    S    
C28   C139  A    
C150  I36   S    
C83   C202  A    
O62   Zn16  S    
C67   C261  S    
O104  Zn45  S    
O21   Zn35  S    
C70   C276  S    
C230  O15   A    
C65   C273  S    
C61   C162  A    
C223  O127  A    
C43   C129  A    
C87   C193  A    
C278  O182  A    
C228  O48   A    
O22   Zn33  S    
O105  Zn12  S    
C126  I11   S    
C100  C223  S    
C278  O132  A    
C64   C153  A    
C82   C188  A    
O46   Zn44  S    
C3    C180  A    
O78   Zn47  S    
C153  I39   S    
O189  Zn24  S    
C81   C195  A    
C12   C119  A    
O83   Zn23  S    
C58   C277  S    
C1    C95   S    
O77   Zn10  S    
C5    C257  S    
C266  O59   A    
C45   C156  A    
O7    Zn39  S    
C209  I95   S    
O36   Zn43  S    
C250  O180  A    
C11   C175  A    
C60   C140  A    
C23   C126  A    
C135  O114  A    
O58   Zn11  S    
C1    O1    A    
C227  O157  A    
C121  I7    S    
O182  Zn12  S    
O109  Zn7   S    
C34   C229  S    
C122  I8    S    
C220  O38   A    
C148  I33   S    
C22   C173  A    
C92   C202  A    
C90   O106  A    
C6    C170  A    
O163  Zn30  S    
C29   C140  A    
C271  O63   A    
C280  O76   A    
O154  Zn20  S    
C23   C134  A    
C198  I84   S    
O181  Zn30  S    
C38   C219  S    
C224  O154  A    
O56   Zn13  S    
C26   C118  A    
C132  I18   S    
O67   Zn5   S    
C269  O99   A    
C248  C287  S    
C102  C209  A    
C267  O171  A    
C205  I91   S    
C3    C108  A    
O40   Zn40  S    
O169  Zn21  S    
O19   Zn40  S    
C28   C258  S    
C77   C268  S    
C263  O55   A    
C147  I32   S    
C265  O103  A    
C160  C287  A    
C248  O178  A    
C247  O33   A    
C76   C174  A    
C10   C117  A    
C177  I63   S    
C56   C137  A    
C264  O104  A    
C45   C116  A    
C210  I96   S    
O55   Zn5   S    
C222  O153  A    
C11   C241  S    
C277  O102  A    
C99   C198  A    
O75   Zn23  S    
O113  Zn8   S    
C250  O190  A    
C13   O112  A    
O32   Zn41  S    
O4    Zn36  S    
C163  I49   S    
O115  Zn6   S    
O29   Zn42  S    
C186  I72   S    
C51   C201  S    
C238  O3    A    
C174  I60   S    
O107  Zn5   S    
C268  O70   A    
C274  O89   A    
O152  Zn22  S    
C35   O35   A    
C203  I88   S    
O101  Zn3   S    
O15   Zn35  S    
O143  Zn24  S    
C136  I21   S    
C4    C154  A    
C55   C141  A    
C7    C171  A    
C142  I28   S    
C119  I5    S    
O65   Zn11  S    
C104  C267  S    
O183  Zn29  S    
C213  O143  A    
C39   C137  A    
C233  O164  A    
C254  O8    A    
O12   Zn37  S    
C171  I57   S    
O37   Zn37  S    
C158  I43   S    
O123  Zn13  S    
C192  I77   S    
C68   C96   S    
C262  O54   A    
C86   C113  S    
C246  O12   A    
C37   C218  S    
C71   C178  A    
C173  I59   S    
C281  O77   A    
C75   C173  A    
O164  Zn26  S    
C55   C136  A    
C245  O135  A    
O3    Zn35  S    
C179  O41   A    
C44   C147  A    
O140  Zn20  S    
C84   C191  A    
C26   C216  S    
C21   C122  A    
O68   Zn23  S    
O47   Zn31  S    
C170  I55   S    
C139  I25   S    
O45   Zn32  S    
O50   Zn36  S    
C201  O30   A    
C254  O185  A    
C79   O101  A    
C57   C97   S    
C274  O66   A    
O112  Zn48  S    
C15   C183  A    
O86   Zn15  S    
C11   C118  A    
C72   C271  S    
C71   C169  A    
O88   Zn8   S    
C113  O120  A    
C154  I40   S    
O99   Zn1   S    
C273  O91   A    
C179  O139  A    
O2    Zn1   S    
C130  I16   S    
C35   C92   S    
C252  O28   A    
C261  O94   A    
C131  I17   S    
O173  Zn29  S    
O144  Zn25  S    
C212  O116  A    
O190  Zn31  S    
C117  I3    S    
C56   C279  S    
C169  I54   S    
C118  I4    S    
C187  I73   S    
C247  C286  S    
O10   Zn39  S    
O133  Zn15  S    
O72   Zn15  S    
C225  O155  A    
C91   C278  S    
C226  O156  A    
C159  C286  A    
C62   C151  A    
C225  O7    A    
O111  Zn2   S    
C256  O90   A    
C180  I65   S    
C9    C252  S    
O53   Zn17  S    
C41   C106  A    
C44   C235  S    
C223  O115  A    
O168  Zn20  S    
C245  O149  A    
C31   C169  A    
O110  Zn8   S    
O125  Zn15  S    
C106  C287  A    
C164  I50   S    
C2    C89   S    
C228  O158  A    
C222  O22   A    
O94   Zn1   S    
C138  I24   S    
C25   C250  S    
C226  O6    A    
C128  I14   S    
C59   C139  A    
C178  I64   S    
C168  O137  A    
C232  O163  A    
C275  O75   A    
C159  I44   S    
O60   Zn2   S    
C78   C185  A    
C149  I35   S    
C20   C254  S    
C182  I68   S    
O172  Zn27  S    
O98   Zn12  S    
O192  Zn33  S    
C54   C142  A    
C27   C217  S    
C14   C120  A    
C257  O187  A    
C43   C233  S    
C185  I71   S    
C98   C207  A    
C66   C274  S    
C92   C210  A    
O177  Zn28  S    
C112  O105  A    
C133  I19   S    
O117  Zn5   S    
C22   C121  A    
O38   Zn36  S    
C88   C192  A    
C90   O133  A    
C40   C130  A    
C161  I47   S    
C231  O162  A    
C237  O167  A    
C30   C108  A    
C218  O27   A    
C83   C189  A    
O145  Zn26  S    
C17   C211  S    
C73   C272  S    
C46   O122  A    
O127  Zn34  S    
C263  O83   A    
C46   O46   A    
C32   C148  A    
C260  O95   A    
O138  Zn44  S    
C57   O57   A    
O54   Zn6   S    
C1    O128  A    
C217  O45   A    
C99   C208  A    
C73   C176  A    
O59   Zn48  S    
C25   C127  A    
C276  O74   A    
C251  O181  A    
O43   Zn43  S    
C48   C225  S    
C102  C212  S    
C79   C84   S    
C230  O161  A    
O191  Zn32  S    
C100  C210  A    
O85   Zn14  S    
C268  O60   A    
C50   C190  S    
C42   C105  A    
C82   C194  A    
C64   C269  S    
C66   C165  A    
C101  O109  A    
C14   C243  S    
C270  O62   A    
C26   C181  A    
C172  I58   S    
C49   C123  A    
C31   C179  S    
C48   C132  A    
O156  Zn26  S    
C97   C205  A    
O91   Zn44  S    
C28   C128  A    
O24   Zn46  S    
C213  O50   A    
C47   C224  S    
C235  O165  A    
C10   C240  S    
C68   O107  A    
O44   Zn42  S    
C9    C164  A    
C24   C99   S    
C183  I69   S    
C100  C189  A    
O87   Zn7   S    
C75   C183  A    
C266  O71   A    
C255  O186  A    
C220  O151  A    
C32   C130  A    
C279  O100  A    
C285  O86   A    
C41   C152  A    
C84   C200  A    
C85   C192  A    
C104  C185  A    
C46   C93   S    
O41   Zn31  S    
C87   C234  S    
O171  Zn47  S    
O57   Zn34  S    
C270  O98   A    
O18   Zn39  S    
O6    Zn38  S    
C58   C148  A    
C77   C175  A    
C282  O97   A    
C24   O24   A    
C206  I92   S    
C94   C112  S    
C13   C98   S    
C217  O147  A    
C25   C136  A    
C218  O148  A    
C8    C115  A    
C88   C245  S    
C85   C199  A    
C285  O92   A    
O116  Zn23  S    
O120  Zn9   S    
C249  O191  A    
C227  O49   A    
C42   C215  S    
C78   C197  A    
C73   C171  A    
O33   Zn40  S    
O118  Zn4   S    
C61   C150  A    
C151  I37   S    
C74   C172  A    
C17   C176  A    
O135  Zn13  S    
C134  I20   S    
C33   C131  A    
C75   C262  S    
C140  I26   S    
C71   C275  S    
O74   Zn34  S    
C6    C231  S    
C202  I87   S    
C103  C186  A    
C267  O79   A    
C72   C177  A    
C260  O52   A    
C76   C182  A    
C261  O53   A    
C17   C114  A    
O146  Zn19  S    
C87   C208  A    
C101  O121  A    
O16   Zn33  S    
O28   Zn43  S    
C108  I34   S    
O48   Zn40  S    
O89   Zn45  S    
C281  O87   A    
C42   C153  A    
C94   C187  A    
O142  Zn22  S    
C252  O183  A    
O158  Zn28  S    
C265  O58   A    
C236  O44   A    
O126  Zn16  S    
C52   C285  S    
C79   O134  A    
C216  O146  A    
C193  I79   S    
O106  Zn4   S    
C215  O17   A    
C162  I48   S    
C89   C196  A    
O148  Zn26  S    
O136  Zn11  S    
C41   C214  S    
C53   C143  A    
C72   C170  A    
O122  Zn11  S    
C241  O39   A    
O1    Zn1   S    
O73   Zn14  S    
C65   C154  A    
C115  I89   S    
C78   C157  S    
C96   C206  A    
O174  Zn30  S    
O167  Zn29  S    
O166  Zn30  S    
C235  O10   A    
C178  C288  A    
C69   C158  A    
C249  O179  A    
O179  Zn18  S    
O130  Zn9   S    
C144  I30   S    
C3    C237  S    
C236  C288  S    
C224  O21   A    
C89   C203  A    
O151  Zn24  S    
C93   C209  A    
O176  Zn22  S    
C257  O19   A    
C18   C213  S    
C233  O11   A    
C96   C194  A    
C85   C101  S    
C256  O160  A    
O100  Zn3   S    
C243  O23   A    
C284  O85   A    
C83   C90   S    
C44   C128  A    
C19   C143  A    
C15   C121  A    
C244  O175  A    
O23   Zn42  S    
C275  O67   A    
C240  O170  A    
C91   C204  A    
C61   C264  S    
O153  Zn21  S    
O92   Zn4   S    
C8    C163  A    
C127  I13   S    
C211  O142  A    
O149  Zn45  S    
O17   Zn38  S    
O81   Zn10  S    
C63   C160  A    
C105  C286  A    
O175  Zn24  S    
C107  C288  A    
C49   C226  S    
C27   C182  A    
C156  I42   S    
C109  I45   S    
C280  O88   A    
C58   C138  A    
C231  O36   A    
C175  I61   S    
C37   C120  A    
O155  Zn25  S    
O5    Zn37  S    
C259  O189  A    
C229  O16   A    
C103  C203  A    
C276  O69   A    
C234  O138  A    
C240  O40   A    
O178  Zn27  S    
C38   C162  A    
C36   C230  S    
C60   C145  A    
O39   Zn41  S    
O185  Zn18  S    
C51   C166  A    
C88   C207  A    
C4    C255  S    
C56   C149  A    
C106  I12   S    
C81   C187  A    
C39   C238  S    
C70   C180  A    
C47   C158  A    
