data_mof_unit_9693.cif
_audit_creation_date              2012-12-10T19:30:41-0500
_audit_creation_method            fapswitch 2.2
_symmetry_space_group_name_H-M    P1
_symmetry_Int_Tables_number       1
_space_group_crystal_system       triclinic
_cell_length_a                    14.91406
_cell_length_b                    15.737763
_cell_length_c                    15.778714
_cell_angle_alpha                 89.778484
_cell_angle_beta                  83.642703
_cell_angle_gamma                 89.987227
_cell_volume                      3680.6828159

loop_
_atom_site_label
_atom_site_type_symbol
_atom_type_description
_atom_site_fract_x
_atom_site_fract_y
_atom_site_fract_z
_atom_type_partial_charge
C1    C     C_R   0.499947 0.662589 0.500423 0.884543
C2    C     C_3   0.585715 0.028055 0.486445 -0.166118
C3    C     C_3   0.500185 0.917476 0.499563 0.206993
C4    C     C_3   0.500191 0.082414 0.499429 0.206068
C5    C     C_1   0.500113 0.826692 0.499813 -0.073853
C6    C     C_1   0.500125 0.173225 0.499544 -0.079746
C7    C     C_3   0.039348 0.493348 0.421423 0.664968
C8    C     C_3   0.960791 0.507226 0.578484 0.658529
C9    C     C_3   0.974166 0.426453 0.465901 -0.308651
C10   C     C_3   0.025964 0.574113 0.533977 -0.315411
C11   C     C_3   0.975655 0.566955 0.452867 -0.316150
C12   C     C_R   0.500000 0.337392 0.499975 0.911611
C13   C     C_3   0.024441 0.433611 0.547022 -0.311040
C14   C     C_3   0.910614 0.500190 0.498913 -0.026865
C15   C     C_3   0.089461 0.500355 0.501009 -0.021663
C16   C     C_R   0.485826 0.499409 0.657541 0.947921
C17   C     C_R   0.513682 0.503763 0.343100 0.993710
C18   C     C_1   0.810331 0.500110 0.499533 0.118268
C19   C     C_1   0.189691 0.500157 0.500437 0.101476
C20   C     C_R   0.471026 0.512488 0.751863 -0.324525
C21   C     C_R   0.523041 0.530324 0.252109 -0.308079
C22   C     C_R   0.541621 0.543851 0.795731 0.377744
C23   C     C_3   0.453674 0.028231 0.436795 -0.159192
C24   C     C_R   0.463058 0.496862 0.198117 0.379840
C25   C     C_R   0.522819 0.575275 0.879901 0.319806
C26   C     C_R   0.457434 0.533625 0.116816 0.312412
C27   C     C_R   0.432375 0.590694 0.912817 -0.168734
C28   C     C_R   0.497686 0.613775 0.097286 -0.199619
C29   C     C_R   0.362391 0.552085 0.872982 0.555976
C30   C     C_R   0.565860 0.641735 0.146516 0.564048
C31   C     C_R   0.382572 0.507618 0.795938 -0.019755
C32   C     C_R   0.579383 0.599804 0.223515 -0.041395
C33   C     C_2   0.408383 0.660183 0.975652 0.474048
C34   C     C_3   0.546703 0.971654 0.562186 -0.167845
C35   C     C_2   0.455738 0.678652 0.043067 0.484312
C36   C     C_3   0.651419 0.628378 0.728258 -0.199882
C37   C     C_3   0.318943 0.452019 0.240565 -0.172585
C38   C     C_3   0.025056 0.481231 0.278210 -0.372598
C39   C     C_3   0.975822 0.520412 0.721452 -0.323529
C40   C     C_3   0.646690 0.635866 0.279085 -0.768749
C41   C     C_3   0.306802 0.461208 0.759210 -0.754980
C42   C     C_3   0.492923 0.819331 0.018388 -0.189512
C43   C     C_3   0.275743 0.734098 0.015020 -0.183756
C44   C     C_3   0.240416 0.513336 0.966674 -0.295552
C45   C     C_3   0.539196 0.972066 0.423816 -0.160028
C46   C     C_3   0.691627 0.704625 0.077786 -0.368230
C47   C     C_3   0.441705 0.415400 0.035481 -0.290761
C48   C     C_3   0.652847 0.535383 0.935831 -0.260177
C49   C     C_3   0.461186 0.027795 0.575163 -0.165680
C50   C     C_1   0.500012 0.751448 0.500115 -0.187702
C51   C     C_1   0.500054 0.248490 0.499744 -0.183359
C52   C     C_3   0.414668 0.971829 0.512538 -0.159402
H1    H     H_    0.044321 0.379589 0.586329 0.154436
H2    H     H_    0.047086 0.634161 0.562644 0.156158
H3    H     H_    0.658318 0.671191 0.782988 0.167684
H4    H     H_    0.601161 0.654794 0.688007 0.132293
H5    H     H_    0.717594 0.626839 0.688517 0.196054
H6    H     H_    0.287541 0.455128 0.180067 0.175676
H7    H     H_    0.309819 0.513739 0.274875 0.163501
H8    H     H_    0.281855 0.403151 0.281427 0.191574
H9    H     H_    0.983549 0.539897 0.277744 0.164459
H10   H     H_    0.981105 0.424232 0.288575 0.166272
H11   H     H_    0.063547 0.475247 0.214204 0.186885
H12   H     H_    0.955767 0.620998 0.413592 0.152530
H13   H     H_    0.018471 0.578253 0.710992 0.161810
H14   H     H_    0.018681 0.462585 0.721505 0.158104
H15   H     H_    0.937667 0.525640 0.785678 0.191708
H16   H     H_    0.610861 0.658605 0.339926 0.239883
H17   H     H_    0.696825 0.586467 0.291386 0.228490
H18   H     H_    0.685287 0.690812 0.250242 0.252111
H19   H     H_    0.332980 0.404974 0.722021 0.219282
H20   H     H_    0.256541 0.435961 0.810038 0.222223
H21   H     H_    0.271589 0.504918 0.718484 0.255276
H22   H     H_    0.553994 0.792919 0.980424 0.157551
H23   H     H_    0.571055 0.947049 0.361991 0.143725
H24   H     H_    0.515225 0.874170 0.054717 0.179994
H25   H     H_    0.445419 0.844033 0.974854 0.171312
H26   H     H_    0.266984 0.683536 0.064903 0.125296
H27   H     H_    0.211744 0.738245 0.985503 0.180868
H28   H     H_    0.286023 0.796080 0.045802 0.178325
H29   H     H_    0.268530 0.447906 0.958662 0.156223
H30   H     H_    0.166193 0.507928 0.967380 0.162319
H31   H     H_    0.253347 0.539529 0.029195 0.201756
H32   H     H_    0.681310 0.699274 0.009626 0.219242
H33   H     H_    0.728667 0.648041 0.098562 0.147001
H34   H     H_    0.429310 0.052749 0.637004 0.132559
H35   H     H_    0.735422 0.760733 0.083814 0.183699
H36   H     H_    0.516389 0.411436 0.035119 0.146838
H37   H     H_    0.426685 0.402349 0.969504 0.152759
H38   H     H_    0.408809 0.364760 0.077042 0.212239
H39   H     H_    0.625602 0.470618 0.925867 0.151290
H40   H     H_    0.670891 0.536919 0.002074 0.142562
H41   H     H_    0.715773 0.544941 0.892303 0.209847
H42   H     H_    0.415665 0.053544 0.385559 0.138819
H43   H     H_    0.584704 0.946317 0.613419 0.130612
H44   H     H_    0.655604 0.053227 0.475782 0.135326
H45   H     H_    0.344784 0.946645 0.523201 0.136880
H46   H     H_    0.953109 0.366424 0.437151 0.153914
N1    N     N_1   0.731990 0.500000 0.499970 -0.086786
N2    N     N_1   0.268010 0.500000 0.500030 -0.095806
O1    O     O_R   0.425540 0.623220 0.500000 -0.602128
O2    O     O_3   0.410462 0.427245 0.225571 -0.618941
O3    O     O_3   0.086848 0.486060 0.339328 -0.625176
O4    O     O_3   0.913648 0.514457 0.660742 -0.602797
O5    O     O_3   0.449254 0.760252 0.076999 -0.599697
O6    O     O_3   0.347104 0.719159 0.949797 -0.607231
O7    O     O_3   0.272701 0.569596 0.900400 -0.572506
O8    O     O_3   0.608502 0.718781 0.127631 -0.562763
O9    O     O_3   0.405415 0.495755 0.060488 -0.651455
O10   O     O_3   0.591953 0.602638 0.924850 -0.646898
O11   O     O_R   0.574460 0.376780 0.500000 -0.607031
O12   O     O_R   0.574480 0.623220 0.499990 -0.626331
O13   O     O_R   0.425520 0.376780 0.500010 -0.605591
O14   O     O_R   0.416730 0.500010 0.615810 -0.609703
O15   O     O_R   0.583270 0.499990 0.384190 -0.616675
O16   O     O_R   0.565670 0.500010 0.615790 -0.547068
O17   O     O_R   0.434330 0.499990 0.384210 -0.583789
O18   O     O_3   0.629238 0.544809 0.756046 -0.571990
Zn1   Zn    Zn3+2 0.400550 0.500000 0.500010 0.964904
Zn2   Zn    Zn3+2 0.599450 0.500000 0.499990 0.970942

loop_
_geom_bond_atom_site_label_1
_geom_bond_atom_site_label_2
_ccdc_geom_bond_type
C48   O10   S    
C9    H46   S    
C23   C45   S    
C27   C29   A    
C39   H13   S    
C14   C18   S    
C44   H31   S    
C39   H14   S    
C38   H11   S    
C39   O4    S    
C27   C33   S    
C43   H26   S    
C7    C11   S    
C17   O15   A    
C8    C13   S    
C40   H18   S    
C35   O5    S    
C24   C26   A    
C15   C19   S    
C44   H30   S    
C10   C15   S    
O17   Zn1   S    
C1    O12   A    
C37   O2    S    
C11   C14   S    
C43   H27   S    
C52   H45   S    
C22   C25   A    
C22   O18   S    
C9    C13   S    
N1    Zn2   S    
O13   Zn1   S    
C28   C35   S    
C48   H39   S    
C46   O8    S    
C6    C51   T    
C36   O18   S    
C1    C50   S    
C37   H6    S    
C17   O17   A    
C41   H19   S    
C46   H33   S    
C2    C34   S    
C7    C15   S    
C7    O3    S    
C47   H37   S    
C16   O16   A    
C26   C28   A    
C13   H1    S    
C2    C45   S    
C21   C32   A    
C42   H22   S    
C40   H17   S    
O1    Zn1   S    
C34   H43   S    
C4    C6    S    
C44   H29   S    
C48   H41   S    
O12   Zn2   S    
C4    C23   S    
C3    C34   S    
C43   H28   S    
C47   O9    S    
C3    C45   S    
C17   C21   S    
O16   Zn2   S    
O11   Zn2   S    
C43   O6    S    
C2    C4    S    
C9    C14   S    
C38   O3    S    
C36   H4    S    
C16   C20   S    
C49   C52   S    
N2    Zn1   S    
C8    O4    S    
C26   O9    S    
C37   H7    S    
C25   O10   S    
C41   H20   S    
C46   H32   S    
C20   C22   A    
C11   H12   S    
C13   C15   S    
C48   H40   S    
C47   H38   S    
C5    C50   T    
C18   N1    T    
C1    O1    A    
C12   C51   S    
C36   H5    S    
C46   H35   S    
C44   O7    S    
C7    C9    S    
C34   C49   S    
C8    C14   S    
C31   C41   S    
C30   O8    S    
C39   H15   S    
C49   H34   S    
C33   O6    S    
O14   Zn1   S    
C3    C5    S    
C16   O14   A    
C3    C52   S    
C25   C27   A    
C42   H24   S    
C23   H42   S    
C4    C49   S    
C45   H23   S    
C47   H36   S    
C38   H9    S    
C28   C30   A    
C29   C31   A    
C36   H3    S    
C19   N2    T    
C30   C32   A    
C23   C52   S    
C2    H44   S    
C33   C35   D    
C12   O13   A    
C24   O2    S    
C32   C40   S    
C10   H2    S    
C42   O5    S    
C37   H8    S    
C10   C11   S    
C41   H21   S    
C42   H25   S    
C8    C10   S    
O15   Zn2   S    
C40   H16   S    
C21   C24   A    
C29   O7    S    
C12   O11   A    
C38   H10   S    
C20   C31   A    
