data_mof_unit_29642.cif
_audit_creation_date              2013-03-05T15:49:05-0500
_audit_creation_method            fapswitch 2.2
_symmetry_space_group_name_H-M    P1
_symmetry_Int_Tables_number       1
_space_group_crystal_system       triclinic
_cell_length_a                    10.702291
_cell_length_b                    12.972168
_cell_length_c                    11.685828
_cell_angle_alpha                 99.5786
_cell_angle_beta                  94.21967
_cell_angle_gamma                 89.710634
_cell_volume                      1595.36813205

loop_
_atom_site_label
_atom_site_type_symbol
_atom_site_description
_atom_site_fract_x
_atom_site_fract_y
_atom_site_fract_z
_atom_type_partial_charge
O1    O     O_R   0.506670 0.354460 0.582000 -0.586393
O2    O     O_R   0.493330 0.645540 0.418000 -0.542297
O3    O     O_R   0.490800 0.341410 0.386200 -0.587960
O4    O     O_R   0.509200 0.658590 0.613800 -0.588675
C1    C     C_R   0.501267 0.299441 0.479002 0.897567
C2    C     C_R   0.500896 0.700339 0.520895 0.896683
O5    O     O_R   0.324790 0.506500 0.597880 -0.543437
O6    O     O_R   0.675210 0.493500 0.402120 -0.556318
O7    O     O_R   0.308910 0.493440 0.402080 -0.550797
O8    O     O_R   0.691090 0.506560 0.597920 -0.558370
C3    C     C_R   0.259705 0.498760 0.499610 0.954006
C4    C     C_R   0.740247 0.500066 0.500195 0.953326
Cu1   Cu    Cu3+1 0.509400 0.507730 0.615930 1.051627
Cu2   Cu    Cu3+1 0.490600 0.492270 0.384070 1.065701
C5    C     C_3   0.045856 0.418704 0.550139 -0.205023
C6    C     C_3   0.953961 0.578240 0.448802 -0.191507
C7    C     C_3   0.952867 0.407487 0.440719 -0.203952
C8    C     C_3   0.046702 0.589619 0.558437 -0.193368
C9    C     C_3   0.875955 0.499649 0.500367 -0.225217
C10   C     C_3   0.123861 0.497540 0.498872 -0.225228
C11   C     C_3   0.968776 0.510739 0.608722 0.295001
C12   C     C_3   0.031005 0.486112 0.390368 0.288768
C13   C     C_R   0.515586 0.812152 0.530447 -0.178941
C14   C     C_R   0.500594 0.186138 0.466706 -0.179200
C15   C     C_R   0.395056 0.025545 0.377331 0.367100
C16   C     C_R   0.656422 0.960666 0.581893 0.358896
C17   C     C_R   0.414695 0.131853 0.383203 -0.202206
C18   C     C_R   0.627980 0.856452 0.583252 -0.205034
C19   C     C_R   0.580534 0.132623 0.538180 -0.086691
C20   C     C_R   0.429028 0.870722 0.472363 -0.066792
C21   C     C_R   0.568701 0.022562 0.526466 -0.049183
C22   C     C_R   0.463260 0.972356 0.458041 -0.038991
H1    H     H_    0.696952 0.807924 0.621177 0.206102
H2    H     H_    0.359482 0.173310 0.324067 0.205718
N1    N     N_R   0.523540 0.519360 0.790140 -0.231870
N2    N     N_R   0.476460 0.480640 0.209860 -0.233132
C23   C     C_R   0.392930 0.392749 0.021287 0.255674
C24   C     C_R   0.598332 0.612888 0.979124 0.256387
C25   C     C_R   0.404994 0.403401 0.143707 0.094639
C26   C     C_R   0.592107 0.598490 0.856452 0.096964
C27   C     C_R   0.540608 0.548903 0.157983 0.126424
C28   C     C_R   0.458331 0.451743 0.842088 0.100114
C29   C     C_R   0.533006 0.542643 0.034934 -0.098840
C30   C     C_R   0.459811 0.461961 0.965345 -0.106929
H3    H     H_    0.405741 0.389576 0.786589 0.192984
H4    H     H_    0.599650 0.606777 0.213309 0.195753
H5    H     H_    0.639879 0.652968 0.813722 0.187940
H6    H     H_    0.355755 0.349896 0.186532 0.189061
C31   C     C_2   0.903910 0.304619 0.374286 0.988523
O9    O     O_2   0.977644 0.237658 0.335974 -0.487372
O10   O     O_R   0.775114 0.285218 0.357480 -0.743022
H7    H     H_    0.754275 0.212748 0.312800 0.354647
C32   C     C_2   0.094318 0.692336 0.626220 0.953138
O11   O     O_2   0.019706 0.760177 0.660246 -0.494188
O12   O     O_R   0.222827 0.710193 0.650314 -0.750838
H8    H     H_    0.242716 0.782400 0.696138 0.355323
C33   C     C_2   0.094506 0.326663 0.602432 1.012358
O13   O     O_2   0.021455 0.271112 0.640559 -0.446286
O14   O     O_R   0.221975 0.302937 0.604202 -0.774969
H9    H     H_    0.242633 0.238022 0.639450 0.361753
C34   C     C_2   0.905417 0.668779 0.393747 0.958774
O15   O     O_2   0.978082 0.721258 0.351148 -0.493844
O16   O     O_R   0.778351 0.693701 0.392634 -0.784064
H10   H     H_    0.757815 0.756799 0.354066 0.365200
N3    N     N_R   0.934357 0.527450 0.728946 0.157457
O17   O     O_R   0.966377 0.460630 0.797100 -0.246426
O18   O     O_R   0.877579 0.612808 0.770570 -0.299909
N4    N     N_R   0.065424 0.468494 0.270093 0.157649
O19   O     O_R   0.031540 0.533686 0.200540 -0.244184
O20   O     O_R   0.122261 0.382913 0.229342 -0.306682
C35   C     C_2   0.296130 0.834900 0.447840 0.920607
O21   O     O_2   0.269928 0.745734 0.399885 -0.519145
O22   O     O_R   0.200622 0.905128 0.481117 -0.698904
H11   H     H_    0.113928 0.873316 0.461288 0.392605
C36   C     C_2   0.666231 0.192854 0.631349 0.959548
O23   O     O_2   0.739468 0.256895 0.607709 -0.529230
O24   O     O_R   0.661703 0.176708 0.746334 -0.712060
H12   H     H_    0.723730 0.222522 0.801934 0.373961
N5    N     N_R   0.313857 0.971523 0.282975 0.142050
O25   O     O_R   0.213615 0.016824 0.245868 -0.232006
O26   O     O_R   0.350075 0.884555 0.222388 -0.268158
N6    N     N_R   0.781112 0.996878 0.622199 0.136450
O27   O     O_R   0.834502 0.970530 0.716707 -0.230247
O28   O     O_R   0.849456 0.037586 0.553296 -0.284093
N7    N     N_R   0.311000 0.312989 0.956620 0.130226
O29   O     O_R   0.305752 0.221909 0.988881 -0.271390
O30   O     O_R   0.224937 0.337226 0.881268 -0.282789
N8    N     N_R   0.668117 0.700425 0.044295 0.122134
O31   O     O_R   0.773413 0.727933 0.008683 -0.228307
O32   O     O_R   0.616491 0.763604 0.125603 -0.314374

loop_
_geom_bond_atom_site_label_1
_geom_bond_atom_site_label_2
_geom_bond_distance
_ccdc_geom_bond_type
C26   H5    1.081108 S    
C24   C26   1.411134 A    
O12   H8    1.013775 S    
C8    C11   1.539069 S    
C5    C33   1.503265 S    
O22   H11   1.012554 S    
C14   C17   1.392503 A    
O7    Cu2   1.970904 S    
C20   C35   1.491112 S    
C32   O11   1.222038 D    
O5    C3    1.287883 A    
O1    C1    1.290629 A    
C23   N7    1.435923 S    
C9    C11   1.538353 S    
Cu1   N1    2.010665 S    
Cu2   N2    2.010666 S    
C33   O14   1.396412 S    
O4    Cu1   1.961264 S    
C34   O16   1.395840 S    
N1    C28   1.367722 A    
C14   C19   1.411843 A    
C8    C32   1.502922 S    
N4    O19   1.299828 A    
C31   O10   1.396112 S    
O6    Cu2   1.971347 S    
C27   H4    1.078902 S    
C15   C22   1.417252 A    
N7    O30   1.300942 A    
O14   H9    1.013808 S    
C16   N6    1.436502 S    
Cu1   Cu2   2.676062 S    
C27   C29   1.422975 A    
N2    C27   1.367121 A    
O2    C2    1.288211 A    
C28   C30   1.423231 A    
C32   O12   1.396072 S    
C17   H2    1.084583 S    
C5    C10   1.545267 S    
C23   C25   1.410508 A    
C3    C10   1.453375 S    
O10   H7    1.013782 S    
C13   C20   1.402898 A    
O4    C2    1.288747 A    
C7    C31   1.503441 S    
N5    O26   1.301702 A    
N3    O18   1.299745 A    
O24   H12   1.013916 S    
O16   H10   1.013789 S    
C24   N8    1.436768 S    
C28   H3    1.079147 S    
C36   O23   1.222963 D    
C36   O24   1.398238 S    
C21   C22   1.427687 A    
O5    Cu1   1.971346 S    
O6    C4    1.286846 A    
C13   C18   1.391995 A    
O7    C3    1.281728 A    
C12   N4    1.460086 S    
N7    O29   1.301261 A    
O3    Cu2   1.961265 S    
O8    C4    1.282176 A    
N4    O20   1.299673 A    
C10   C12   1.539731 S    
C18   H1    1.085169 S    
N6    O27   1.301460 A    
N6    O28   1.301639 A    
C29   C30   1.414794 A    
O1    Cu1   1.961556 S    
C6    C34   1.503129 S    
C35   O22   1.398981 S    
C5    C7    1.548814 S    
C6    C12   1.541344 S    
C11   N3    1.459613 S    
C15   N5    1.438767 S    
C16   C21   1.421818 A    
N2    C25   1.359949 A    
N8    O32   1.301261 A    
O3    C1    1.289582 A    
O8    Cu1   1.970905 S    
C19   C36   1.488022 S    
C15   C17   1.385630 A    
C16   C18   1.390143 A    
C7    C12   1.538362 S    
C23   C30   1.420029 A    
N1    C26   1.360831 A    
C24   C29   1.419790 A    
C19   C21   1.416834 A    
C20   C22   1.409887 A    
C33   O13   1.221817 D    
C1    C14   1.452794 S    
C6    C9    1.544840 S    
C2    C13   1.444594 S    
C4    C9    1.452216 S    
C7    C9    1.545924 S    
C8    C10   1.546310 S    
N3    O17   1.299876 A    
C34   O15   1.221123 D    
O2    Cu2   1.961556 S    
N5    O25   1.301645 A    
C5    C11   1.541330 S    
C35   O21   1.222700 D    
N8    O31   1.301129 A    
C6    C8    1.549106 S    
C31   O9    1.222016 D    
C25   H6    1.080732 S    
