data_mof_unit_26651.cif
_audit_creation_date              2012-12-10T16:56:30-0500
_audit_creation_method            fapswitch 2.2
_symmetry_space_group_name_H-M    P1
_symmetry_Int_Tables_number       1
_space_group_crystal_system       triclinic
_cell_length_a                    7.777508
_cell_length_b                    8.63741
_cell_length_c                    15.693295
_cell_angle_alpha                 91.819532
_cell_angle_beta                  84.902708
_cell_angle_gamma                 93.644261
_cell_volume                      1047.58276796

loop_
_atom_site_label
_atom_site_type_symbol
_atom_type_description
_atom_site_fract_x
_atom_site_fract_y
_atom_site_fract_z
_atom_type_partial_charge
C1    C     C_R   0.545354 0.794343 0.497870 0.872434
C2    C     C_3   0.426670 0.360656 0.024894 -0.216016
C3    C     C_1   0.501737 0.509446 0.751073 -0.163215
C4    C     C_1   0.498263 0.490554 0.248926 -0.163216
C5    C     C_3   0.334476 0.484400 0.979202 -0.209823
C6    C     C_3   0.665524 0.515600 0.020798 -0.209823
C7    C     C_3   0.498091 0.509766 0.917566 0.146042
C8    C     C_3   0.501909 0.490233 0.082434 0.146043
C9    C     C_1   0.499626 0.513187 0.826574 -0.083757
C10   C     C_1   0.500374 0.486812 0.173426 -0.083757
C11   C     C_3   0.310799 0.737939 0.087860 -0.416547
C12   C     C_R   0.454646 0.205656 0.502130 0.872434
C13   C     C_3   0.248191 0.855999 0.028892 -0.357321
C14   C     C_3   0.146062 0.977089 0.081047 -0.891810
C15   C     C_3   0.689201 0.262061 0.912140 -0.416547
C16   C     C_3   0.751809 0.144001 0.971108 -0.357321
C17   C     C_3   0.853938 0.022911 0.918952 -0.891810
C18   C     C_R   0.500950 0.502714 0.662064 0.887043
C19   C     C_R   0.499050 0.497285 0.337936 0.887042
C20   C     C_2   0.569604 0.956714 0.496730 0.268370
C21   C     C_2   0.430395 0.043285 0.503270 0.268370
C22   C     C_3   0.410850 0.612671 0.037937 0.158435
C23   C     C_3   0.589150 0.387329 0.962063 0.158435
C24   C     C_3   0.573330 0.639343 0.975106 -0.216016
F1    F     F_    0.736667 0.016831 0.488971 -0.626188
F2    F     F_    0.263333 0.983169 0.511029 -0.626187
H1    H     H_    0.629264 0.753351 0.952603 0.147383
H2    H     H_    0.360998 0.915509 0.992333 0.221257
H3    H     H_    0.164449 0.795963 0.982702 0.225562
H4    H     H_    0.198379 0.680947 0.125981 0.210704
H5    H     H_    0.396998 0.798786 0.132679 0.206504
H6    H     H_    0.776684 0.968462 0.868496 0.265610
H7    H     H_    0.976238 0.077603 0.888391 0.271460
H8    H     H_    0.885517 0.930580 0.961461 0.253584
H9    H     H_    0.835552 0.204037 0.017298 0.225562
H10   H     H_    0.639003 0.084491 0.007667 0.221257
H11   H     H_    0.603002 0.201214 0.867321 0.206504
H12   H     H_    0.370737 0.246649 0.047397 0.147383
H13   H     H_    0.801621 0.319053 0.874019 0.210704
H14   H     H_    0.800149 0.526041 0.039636 0.137563
H15   H     H_    0.199851 0.473958 0.960364 0.137563
H16   H     H_    0.013672 0.381063 0.436107 0.215193
H17   H     H_    0.986328 0.618937 0.563893 0.215193
H18   H     H_    0.023762 0.922396 0.111608 0.271460
H19   H     H_    0.223316 0.031538 0.131504 0.265610
H20   H     H_    0.114483 0.069420 0.038539 0.253584
N1    N     N_2   0.950320 0.457950 0.477300 -0.147185
N2    N     N_2   0.049680 0.542050 0.522700 -0.147185
O1    O     O_R   0.389250 0.738570 0.505570 -0.572352
O2    O     O_R   0.610750 0.261430 0.494430 -0.572352
O3    O     O_R   0.678390 0.711630 0.491020 -0.583879
O4    O     O_R   0.321610 0.288370 0.508980 -0.583879
O5    O     O_R   0.355460 0.513480 0.630490 -0.614702
O6    O     O_R   0.644540 0.486520 0.369510 -0.614702
O7    O     O_R   0.644600 0.486540 0.615950 -0.624446
O8    O     O_R   0.355400 0.513460 0.384050 -0.624446
Zn1   Zn    Zn3+2 0.306940 0.517990 0.509710 1.020096
Zn2   Zn    Zn3+2 0.693060 0.482010 0.490290 1.020096

loop_
_geom_bond_atom_site_label_1
_geom_bond_atom_site_label_2
_ccdc_geom_bond_type
C19   O8    A    
C12   O2    A    
C21   F2    S    
C13   H2    S    
C20   F1    S    
C3    C9    T    
C11   C13   S    
H17   N2    S    
C2    H12   S    
C11   C22   S    
C8    C22   S    
N1    N2    D    
C24   H1    S    
C6    C24   S    
C20   C21   D    
C15   C23   S    
C11   H5    S    
N2    Zn1   S    
C14   H20   S    
O3    Zn2   S    
C13   C14   S    
C16   H10   S    
N1    Zn2   S    
C1    O3    A    
C15   H13   S    
C17   H8    S    
C17   H7    S    
C18   O7    A    
C7    C23   S    
C6    C23   S    
C19   O6    A    
C13   H3    S    
C12   O4    A    
C14   H19   S    
C22   C24   S    
H16   N1    S    
C16   H9    S    
C6    H14   S    
C2    C5    S    
O4    Zn1   S    
C4    C10   T    
C15   C16   S    
O2    Zn2   S    
C7    C9    S    
O1    Zn1   S    
O8    Zn1   S    
C3    C18   S    
C14   H18   S    
O6    Zn2   S    
O7    Zn2   S    
C2    C23   S    
C5    C7    S    
C17   H6    S    
C5    H15   S    
C15   H11   S    
C1    C20   S    
C6    C8    S    
C18   O5    A    
C4    C19   S    
C1    O1    A    
C12   C21   S    
C8    C10   S    
C2    C8    S    
C5    C22   S    
C7    C24   S    
C11   H4    S    
C16   C17   S    
O5    Zn1   S    
