data_mof_unit_24322.cif
_audit_creation_date              2012-12-10T16:50:10-0500
_audit_creation_method            fapswitch 2.2
_symmetry_space_group_name_H-M    P1
_symmetry_Int_Tables_number       1
_space_group_crystal_system       triclinic
_cell_length_a                    7.835578
_cell_length_b                    8.556784
_cell_length_c                    10.604225
_cell_angle_alpha                 91.654871
_cell_angle_beta                  84.989197
_cell_angle_gamma                 93.807912
_cell_volume                      706.513810328

loop_
_atom_site_label
_atom_site_type_symbol
_atom_type_description
_atom_site_fract_x
_atom_site_fract_y
_atom_site_fract_z
_atom_type_partial_charge
C1    C     C_R   0.545644 0.794502 0.496846 0.922504
C2    C     C_R   0.454354 0.205503 0.503088 0.989809
C3    C     C_R   0.499930 0.503658 0.260841 0.888673
C4    C     C_R   0.400249 0.783399 0.881655 -0.254357
C5    C     C_R   0.347121 0.912982 0.953913 -0.189803
C6    C     C_R   0.343035 0.911499 0.085471 0.448927
C7    C     C_R   0.393352 0.780667 0.144874 -0.225757
C8    C     C_R   0.446094 0.647750 0.072935 0.024300
C9    C     C_R   0.449058 0.648947 0.940682 0.103806
C10   C     C_R   0.505492 0.515989 0.871475 -0.071644
C11   C     C_R   0.565142 0.388554 0.928672 -0.207452
C12   C     C_R   0.563522 0.387914 0.057466 -0.129039
C13   C     C_R   0.501006 0.514098 0.128597 -0.064202
C14   C     C_2   0.569432 0.958240 0.494846 -0.368342
C15   C     C_2   0.430503 0.041746 0.504752 -0.345478
C16   C     C_R   0.501656 0.504975 0.739154 0.850328
Cl1   Cl    Cl    0.275959 0.074307 0.176495 -0.696632
H1    H     H_    0.609352 0.288060 0.873467 0.152661
H2    H     H_    0.116270 0.326653 0.365343 0.270075
H3    H     H_    0.993685 0.637559 0.576745 0.181257
H4    H     H_    0.404909 0.790656 0.779765 0.162516
H5    H     H_    0.310221 0.014983 0.907333 0.169295
H6    H     H_    0.392526 0.785448 0.246839 0.177520
H7    H     H_    0.607782 0.287389 0.102194 0.181733
H8    H     H_    0.700598 0.009488 0.485358 0.189418
H9    H     H_    0.299326 0.990511 0.514074 0.185785
H10   H     H_    0.018102 0.245577 0.504103 0.200087
N1    N     N_2   0.950330 0.457950 0.466250 -0.038636
N2    N     N_2   0.049670 0.542050 0.533750 -0.153902
N3    N     N_3   0.004112 0.312372 0.425126 -0.318198
O1    O     O_R   0.389250 0.738570 0.508280 -0.627137
O2    O     O_R   0.678390 0.711630 0.486650 -0.626184
O3    O     O_R   0.355400 0.513470 0.694050 -0.614350
O4    O     O_R   0.644540 0.486530 0.672420 -0.626044
O5    O     O_R   0.321610 0.288370 0.513350 -0.648968
O6    O     O_R   0.610750 0.261430 0.491720 -0.601709
O7    O     O_R   0.355460 0.513470 0.327580 -0.624758
O8    O     O_R   0.644600 0.486530 0.305950 -0.596693
Zn1   Zn    Zn3+2 0.306930 0.517990 0.514440 0.947954
Zn2   Zn    Zn3+2 0.693070 0.482010 0.485560 0.982641

loop_
_geom_bond_atom_site_label_1
_geom_bond_atom_site_label_2
_ccdc_geom_bond_type
C2    O5    A    
O5    Zn1   S    
C11   C12   A    
C11   H1    S    
C6    C7    A    
C4    H4    S    
C16   O3    A    
C9    C10   A    
C12   H7    S    
C3    C13   S    
O6    Zn2   S    
N2    Zn1   S    
N1    N3    S    
C7    C8    A    
O7    Zn1   S    
C10   C16   S    
H10   N3    S    
O8    Zn2   S    
C2    C15   S    
O3    Zn1   S    
O4    Zn2   S    
N1    N2    D    
O1    Zn1   S    
H3    N2    S    
O2    Zn2   S    
C14   H8    S    
C5    C6    A    
C7    H6    S    
C10   C11   A    
N1    Zn2   S    
C8    C13   A    
C1    O1    A    
C12   C13   A    
C3    O7    A    
C2    O6    A    
C6    Cl1   S    
C14   C15   D    
C8    C9    A    
C15   H9    S    
C1    C14   S    
C16   O4    A    
C4    C9    A    
H2    N3    S    
C1    O2    A    
C5    H5    S    
C3    O8    A    
C4    C5    A    
