data_mof_unit_43936.cif
_audit_creation_date              2012-12-10T20:37:32-0500
_audit_creation_method            fapswitch 2.2
_symmetry_space_group_name_H-M    P1
_symmetry_Int_Tables_number       1
_space_group_crystal_system       triclinic
_cell_length_a                    15.715915
_cell_length_b                    10.585315
_cell_length_c                    9.919035
_cell_angle_alpha                 88.783421
_cell_angle_beta                  89.309825
_cell_angle_gamma                 90.616877
_cell_volume                      1649.51802048

loop_
_atom_site_label
_atom_site_type_symbol
_atom_type_description
_atom_site_fract_x
_atom_site_fract_y
_atom_site_fract_z
_atom_type_partial_charge
C1    C     C_R   0.499800 0.260614 0.501240 0.982162
C2    C     C_3   0.083311 0.510520 0.501229 -0.247816
C3    C     C_3   0.973775 0.579387 0.391066 -0.352960
C4    C     C_3   0.916689 0.509967 0.496880 -0.244424
C5    C     C_3   0.029402 0.459975 0.386241 0.651089
C6    C     C_3   0.971541 0.391542 0.490448 0.488395
C7    C     C_1   0.174057 0.507240 0.502325 0.168392
C8    C     C_1   0.825945 0.507112 0.496656 0.151505
C9    C     C_R   0.571948 0.065316 0.476695 -0.150801
C10   C     C_R   0.497001 0.128674 0.502105 -0.139971
C11   C     C_R   0.418098 0.066012 0.499911 0.582748
C12   C     C_R   0.338075 0.499903 0.500714 0.904179
C13   C     C_R   0.415995 0.934330 0.493613 0.018054
C14   C     C_R   0.494618 0.871148 0.492726 -0.129061
C15   C     C_R   0.570657 0.936672 0.472872 -0.085336
C16   C     C_3   0.653313 0.923729 0.544602 -0.088993
C17   C     C_3   0.654962 0.067784 0.549229 0.516566
C18   C     C_R   0.438902 0.434860 0.074019 0.042376
C19   C     C_R   0.556723 0.573294 0.066955 0.040440
C20   C     C_R   0.555154 0.573703 0.923304 0.677839
C21   C     C_R   0.439272 0.434093 0.931900 -0.128170
C22   C     C_3   0.422776 0.294631 0.931237 0.535252
C23   C     C_R   0.498501 0.739224 0.498462 0.893090
C24   C     C_3   0.421298 0.296467 0.085323 0.408296
C25   C     C_R   0.661897 0.500326 0.499275 0.872012
C26   C     C_3   0.970514 0.560628 0.611875 0.617799
C27   C     C_3   0.025704 0.442155 0.605467 0.504266
C28   C     C_1   0.249269 0.503524 0.502153 -0.102132
C29   C     C_1   0.750708 0.503729 0.497507 -0.133268
C30   C     C_3   0.029002 0.630801 0.507817 -0.359078
H1    H     H_    0.706832 0.115723 0.489788 0.097809
H2    H     H_    0.473378 0.242288 0.133530 0.120231
H3    H     H_    0.950723 0.634539 0.302584 0.221696
H4    H     H_    0.054148 0.728686 0.516407 0.223293
H5    H     H_    0.645650 0.875665 0.645048 0.242236
N1    N     N_R   0.499430 0.499140 0.142800 -0.157786
N2    N     N_R   0.499430 0.499180 0.857150 -0.135059
O1    O     O_R   0.500010 0.316790 0.614690 -0.533892
O2    O     O_R   0.500000 0.316760 0.385350 -0.628466
O3    O     O_R   0.376780 0.500010 0.614650 -0.647902
O4    O     O_R   0.376770 0.499970 0.385310 -0.564041
O5    O     O_R   0.500000 0.683240 0.614650 -0.584169
O6    O     O_R   0.499990 0.683210 0.385310 -0.654220
O7    O     O_R   0.623230 0.500030 0.614690 -0.527844
O8    O     O_R   0.623220 0.499990 0.385350 -0.649974
Zn1   Zn    Zn3+2 0.500010 0.500020 0.653130 1.067283
Zn2   Zn    Zn3+2 0.499990 0.499980 0.346870 0.979071
F1    F     F_    0.053623 0.372392 0.715441 -0.566957
C31   C     C_3   0.722366 0.866491 0.454228 -0.516267
C32   C     C_3   0.807217 0.858650 0.526826 -0.678101
H6    H     H_    0.829649 0.954457 0.554285 0.287749
H7    H     H_    0.800532 0.798514 0.619593 0.288374
H8    H     H_    0.855530 0.816021 0.459574 0.249387
H9    H     H_    0.702235 0.769519 0.427071 0.216949
H10   H     H_    0.730839 0.922864 0.358973 0.237190
F2    F     F_    0.646124 0.111244 0.679337 -0.589487
C33   C     C_3   0.624608 0.654111 0.130201 -0.351890
C34   C     C_3   0.712368 0.594099 0.118205 -0.716993
H11   H     H_    0.711008 0.496023 0.160204 0.267193
H12   H     H_    0.733600 0.591923 0.011153 0.304744
H13   H     H_    0.759370 0.650387 0.175098 0.231573
H14   H     H_    0.626477 0.748913 0.079758 0.226814
H15   H     H_    0.611260 0.672645 0.236077 0.247715
F3    F     F_    0.610839 0.646966 0.849993 -0.654990
C35   C     C_3   0.338699 0.259827 0.862702 -0.299593
C36   C     C_3   0.319665 0.118389 0.874739 -0.680743
H16   H     H_    0.370690 0.064325 0.824223 0.269039
H17   H     H_    0.314672 0.087307 0.982134 0.279460
H18   H     H_    0.258217 0.097623 0.825362 0.259259
H19   H     H_    0.284845 0.313000 0.906892 0.235266
H20   H     H_    0.343433 0.286360 0.753962 0.238162
F4    F     F_    0.491983 0.229461 0.881245 -0.613035
F5    F     F_    0.342036 0.272817 0.143634 -0.618806
F6    F     F_    0.938042 0.611758 0.728590 -0.597697
F7    F     F_    0.940805 0.269191 0.480947 -0.587356
F8    F     F_    0.061696 0.407154 0.270304 -0.560930
F9    F     F_    0.344672 0.132422 0.507771 -0.658071
C37   C     C_3   0.331493 0.864240 0.489216 -0.362603
C38   C     C_3   0.299467 0.826384 0.630207 -0.797546
H21   H     H_    0.346475 0.766337 0.683137 0.265869
H22   H     H_    0.287440 0.911767 0.689881 0.277584
H23   H     H_    0.238838 0.772311 0.622705 0.248381
H24   H     H_    0.282927 0.924143 0.439374 0.271422
H25   H     H_    0.337208 0.778618 0.427131 0.188223

loop_
_geom_bond_atom_site_label_1
_geom_bond_atom_site_label_2
_ccdc_geom_bond_type
C27   F1    S    
C36   H17   S    
C20   F3    S    
C18   C21   A    
C19   C20   A    
C4    C8    S    
C33   H14   S    
C19   C33   S    
O3    Zn1   S    
C26   C27   S    
C23   O5    A    
C12   C28   S    
C18   C24   S    
C8    C29   T    
C19   N1    A    
C16   H5    S    
C5    C6    S    
C24   F5    S    
C36   H18   S    
C3    H3    S    
C34   H12   S    
C15   C16   S    
C23   O6    A    
N1    Zn2   S    
O5    Zn1   S    
C31   C32   S    
C11   F9    S    
C37   H24   S    
C2    C7    S    
C16   C17   S    
C32   H7    S    
C2    C27   S    
C9    C10   A    
C34   H13   S    
C36   H16   S    
C31   H9    S    
C13   C14   A    
C25   O7    A    
C22   F4    S    
O7    Zn1   S    
C33   H15   S    
O8    Zn2   S    
C25   C29   S    
C32   H8    S    
C30   H4    S    
C6    F7    S    
C16   C31   S    
C4    C6    S    
C38   H22   S    
C37   C38   S    
C34   H11   S    
C35   H20   S    
C7    C28   T    
C14   C23   S    
C12   O3    A    
C3    C30   S    
C24   H2    S    
C22   C35   S    
C12   O4    A    
C6    C27   S    
C32   H6    S    
O4    Zn2   S    
C17   F2    S    
C1    O1    A    
C9    C17   S    
C26   C30   S    
C17   H1    S    
C22   C24   S    
C2    C5    S    
C3    C4    S    
C25   O8    A    
O2    Zn2   S    
C13   C37   S    
C1    C10   S    
C3    C5    S    
C38   H23   S    
C4    C26   S    
C2    C30   S    
C5    F8    S    
C9    C15   A    
C31   H10   S    
C20   N2    A    
C11   C13   A    
C33   C34   S    
C18   N1    A    
C26   F6    S    
O1    Zn1   S    
C10   C11   A    
C1    O2    A    
C38   H21   S    
C37   H25   S    
C21   N2    A    
C35   C36   S    
C14   C15   A    
N2    Zn1   S    
C21   C22   S    
O6    Zn2   S    
C35   H19   S    
