data_mof_unit_23309.cif
_audit_creation_date              2012-10-26T19:49:52-0400
_audit_creation_method            fapswitch 2.2
_symmetry_space_group_name_H-M    P1
_symmetry_Int_Tables_number       1
_space_group_crystal_system       triclinic
_cell_length_a                    15.149025
_cell_length_b                    13.863472
_cell_length_c                    10.867624
_cell_angle_alpha                 89.999914
_cell_angle_beta                  91.058654
_cell_angle_gamma                 89.999937
_cell_volume                      2282.00797563

loop_
_atom_site_label
_atom_site_type_symbol
_atom_type_description
_atom_site_fract_x
_atom_site_fract_y
_atom_site_fract_z
_atom_type_partial_charge
C1    C     C_R   0.329896 0.499974 0.500260 0.544409
C2    C     C_R   0.951412 0.499522 0.499808 0.037134
C3    C     C_R   0.539788 0.108101 0.596862 -0.142137
C4    C     C_R   0.460211 0.108101 0.403138 -0.142136
C5    C     C_R   0.539674 0.209484 0.594542 0.040594
C6    C     C_R   0.460326 0.209484 0.405458 0.040594
C7    C     C_R   0.500000 0.055023 0.500000 0.034371
C8    C     C_R   0.432488 0.892986 0.441102 -0.158502
C9    C     C_R   0.567512 0.892985 0.558898 -0.158495
C10   C     C_R   0.435170 0.790910 0.436713 0.375250
C11   C     C_R   0.564830 0.790911 0.563285 0.375247
C12   C     C_R   0.670104 0.499973 0.499741 0.544409
C13   C     C_R   0.500000 0.945875 0.500000 -0.061147
C14   C     C_R   0.506611 0.500550 0.262353 0.536700
C15   C     C_R   0.493388 0.500549 0.737647 0.536694
C16   C     C_R   0.543032 0.679848 0.113931 -0.109747
C17   C     C_R   0.456945 0.679841 0.886063 -0.109753
C18   C     C_R   0.524450 0.766899 0.054690 -0.159063
C19   C     C_R   0.475519 0.766896 0.945302 -0.159062
C20   C     C_R   0.485585 0.591244 0.938102 0.021113
C21   C     C_R   0.514401 0.591247 0.061896 0.021120
C22   C     C_R   0.512566 0.502826 0.127893 -0.011077
C23   C     C_R   0.233462 0.499862 0.500859 0.013002
C24   C     C_R   0.487430 0.502824 0.872106 -0.011079
C25   C     C_R   0.504066 0.415718 0.063491 -0.160848
C26   C     C_R   0.495941 0.415718 0.936509 -0.160846
C27   C     C_R   0.094816 0.582604 0.465204 -0.128774
C28   C     C_R   0.905183 0.582604 0.534795 -0.128774
C29   C     C_R   0.186513 0.583076 0.467078 -0.136277
C30   C     C_R   0.813487 0.583076 0.532921 -0.136277
C31   C     C_3   0.356327 0.766838 0.253735 0.004875
C32   C     C_3   0.261612 0.800963 0.229829 -0.280716
C33   C     C_3   0.247255 0.829533 0.095294 -0.479486
C34   C     C_R   0.766538 0.499862 0.499143 0.013002
C35   C     C_3   0.643655 0.766822 0.746271 0.004884
C36   C     C_3   0.738369 0.800940 0.770214 -0.280718
C37   C     C_3   0.752710 0.829474 0.904764 -0.479483
C38   C     C_R   0.187604 0.416542 0.535085 -0.133287
C39   C     C_R   0.812397 0.416540 0.464921 -0.133287
C40   C     C_R   0.095833 0.416645 0.535897 -0.121430
C41   C     C_R   0.904168 0.416643 0.464110 -0.121430
C42   C     C_R   0.048588 0.499522 0.500195 0.037134
Cu1   Cu    Cu3+1 0.500000 0.596430 0.500000 1.024132
Cu2   Cu    Cu3+1 0.500000 0.403570 0.500000 0.930826
H1    H     H_    0.504522 0.347064 0.111105 0.130721
H2    H     H_    0.939742 0.647011 0.564904 0.101066
H3    H     H_    0.220547 0.648172 0.440689 0.163907
H4    H     H_    0.779453 0.648173 0.559308 0.163911
H5    H     H_    0.222622 0.351761 0.562895 0.126886
H6    H     H_    0.777379 0.351758 0.437114 0.126886
H7    H     H_    0.062013 0.352223 0.565822 0.102203
H8    H     H_    0.937988 0.352221 0.434188 0.102203
H9    H     H_    0.570008 0.072040 0.675210 0.080678
H10   H     H_    0.429992 0.072040 0.324790 0.080679
H11   H     H_    0.571248 0.248734 0.669214 0.119897
H12   H     H_    0.495493 0.347063 0.888895 0.130721
H13   H     H_    0.428752 0.248734 0.330786 0.119899
H14   H     H_    0.367654 0.701684 0.196744 0.179227
H15   H     H_    0.403068 0.823359 0.222068 0.111548
H16   H     H_    0.214884 0.742125 0.252554 0.161287
H17   H     H_    0.247279 0.863966 0.289371 0.154821
H18   H     H_    0.291846 0.889937 0.070915 0.143965
H19   H     H_    0.177877 0.853225 0.080308 0.144732
H20   H     H_    0.260278 0.767123 0.034098 0.155680
H21   H     H_    0.632316 0.701659 0.803244 0.179234
H22   H     H_    0.596913 0.823342 0.777936 0.111548
H23   H     H_    0.377026 0.930201 0.398863 0.103417
H24   H     H_    0.785099 0.742110 0.747473 0.161298
H25   H     H_    0.752707 0.863961 0.710704 0.154815
H26   H     H_    0.708115 0.889869 0.929159 0.143971
H27   H     H_    0.822086 0.853164 0.919779 0.144731
H28   H     H_    0.739681 0.767046 0.965929 0.155685
H29   H     H_    0.622973 0.930199 0.601139 0.103422
H30   H     H_    0.580821 0.683159 0.199085 0.144545
H31   H     H_    0.419156 0.683146 0.800908 0.144542
H32   H     H_    0.544581 0.834455 0.096532 0.106159
H33   H     H_    0.455381 0.834448 0.903456 0.106164
H34   H     H_    0.060257 0.647010 0.435093 0.101065
N1    N     N_R   0.500000 0.258690 0.500000 -0.223091
N2    N     N_R   0.500000 0.741330 0.500000 -0.204451
O1    O     O_R   0.371460 0.581430 0.500010 -0.455431
O2    O     O_3   0.632398 0.739925 0.621186 -0.549561
O3    O     O_R   0.628540 0.581430 0.499990 -0.455432
O4    O     O_R   0.371470 0.418560 0.500010 -0.511645
O5    O     O_R   0.628530 0.418560 0.499990 -0.511646
O6    O     O_R   0.500000 0.581450 0.319650 -0.498819
O7    O     O_R   0.500000 0.581450 0.680350 -0.498831
O8    O     O_R   0.500010 0.418580 0.319650 -0.517356
O9    O     O_R   0.499990 0.418580 0.680350 -0.517355
O10   O     O_3   0.367604 0.739923 0.378811 -0.549552

loop_
_geom_bond_atom_site_label_1
_geom_bond_atom_site_label_2
_ccdc_geom_bond_type
C8    C13   A    
C27   C29   A    
Cu1   O3    S    
C35   C36   S    
C27   H34   S    
C39   C41   A    
C38   H5    S    
C1    O4    A    
C28   H2    S    
C16   C21   A    
C12   O5    A    
C29   H3    S    
C16   H30   S    
C23   C29   A    
C31   H14   S    
C30   H4    S    
C36   C37   S    
C24   C26   A    
C32   H17   S    
C3    C7    A    
C35   H21   S    
C2    C41   A    
C1    O1    A    
C17   C20   A    
C18   C19   A    
C31   H15   S    
C19   H33   S    
C9    C13   A    
C20   C24   A    
C33   H18   S    
C22   C25   A    
C5    N1    A    
C41   H8    S    
C40   C42   A    
C21   C22   A    
C6    H13   S    
C9    H29   S    
C4    C7    A    
C35   O2    S    
C11   O2    S    
C30   C34   A    
C34   C39   A    
C14   O6    A    
C4    C6    A    
C10   N2    A    
C35   H22   S    
C3    C5    A    
Cu1   N2    S    
C12   O3    A    
Cu1   Cu2   S    
C15   O9    A    
C31   C32   S    
C33   H19   S    
C31   O10   S    
C9    C11   A    
C8    C10   A    
C15   C24   S    
C1    C23   S    
C37   H27   S    
Cu1   O1    S    
C32   H16   S    
C12   C34   S    
Cu2   O5    S    
C23   C38   A    
C25   H1    S    
C36   H25   S    
C15   O7    A    
C18   H32   S    
C4    H10   S    
Cu1   O6    S    
C5    H11   S    
Cu2   N1    S    
Cu2   O4    S    
C26   H12   S    
C36   H24   S    
C40   H7    S    
Cu1   O7    S    
C32   C33   S    
C14   C22   S    
C28   C30   A    
C25   C26   A    
C14   O8    A    
C38   C40   A    
C3    H9    S    
C27   C42   A    
C6    N1    A    
C2    C42   S    
C33   H20   S    
C17   C19   A    
C11   N2    A    
C7    C13   S    
C39   H6    S    
C20   C21   A    
C10   O10   S    
C8    H23   S    
C16   C18   A    
C37   H28   S    
C17   H31   S    
C2    C28   A    
Cu2   O8    S    
C37   H26   S    
Cu2   O9    S    
