data_mof_unit_12028.cif
_audit_creation_date              2012-12-11T14:49:45-0500
_audit_creation_method            fapswitch 2.2
_symmetry_space_group_name_H-M    P1
_symmetry_Int_Tables_number       1
_space_group_crystal_system       triclinic
_cell_length_a                    16.823189
_cell_length_b                    7.008425
_cell_length_c                    16.864643
_cell_angle_alpha                 89.99398
_cell_angle_beta                  100.915471
_cell_angle_gamma                 90.00876
_cell_volume                      1952.43475205

loop_
_atom_site_label
_atom_site_type_symbol
_atom_type_description
_atom_site_fract_x
_atom_site_fract_y
_atom_site_fract_z
_atom_type_partial_charge
O1    O     O_R   0.579510 0.506290 0.439030 -0.544808
O2    O     O_R   0.420490 0.006290 0.560970 -0.544754
O3    O     O_R   0.412540 0.170090 0.405290 -0.541068
O4    O     O_R   0.587460 0.670090 0.594710 -0.541058
C1    C     C_R   0.385678 0.345767 0.381406 0.703199
C2    C     C_R   0.614320 0.845770 0.618596 0.703179
O5    O     O_R   0.578390 0.176230 0.429330 -0.533604
O6    O     O_R   0.421610 0.676230 0.570670 -0.533583
O7    O     O_R   0.587530 0.011250 0.585190 -0.546151
O8    O     O_R   0.412470 0.511250 0.414810 -0.546144
C3    C     C_R   0.605109 0.346972 0.413778 0.724801
C4    C     C_R   0.394894 0.846932 0.586227 0.724723
O9    O     O_3   0.502800 0.340940 0.551110 -0.377146
O10   O     O_3   0.497200 0.840940 0.448890 -0.377179
V1    V     V_3+5 0.499480 0.064020 0.490520 1.395215
V2    V     V_3+5 0.500520 0.564020 0.509480 1.395262
C5    C     C_R   0.168241 0.895890 0.863136 -0.081968
C6    C     C_R   0.831782 0.395685 0.136886 -0.082135
C7    C     C_R   0.331592 0.872070 0.636585 -0.113946
C8    C     C_R   0.668375 0.372268 0.363382 -0.114083
C9    C     C_R   0.227615 0.081491 0.674032 0.262841
C10   C     C_R   0.771977 0.582368 0.325569 0.262446
C11   C     C_R   0.280341 0.032608 0.622306 -0.173047
C12   C     C_R   0.719335 0.533406 0.377372 -0.173126
C13   C     C_R   0.327522 0.756509 0.703616 -0.188299
C14   C     C_R   0.672693 0.256155 0.296592 -0.187720
C15   C     C_R   0.274822 0.804373 0.756741 0.126510
C16   C     C_R   0.725328 0.304062 0.243402 0.126868
C17   C     C_R   0.224401 0.968473 0.742469 0.080583
C18   C     C_R   0.775424 0.468790 0.257362 0.080665
C19   C     C_R   0.171791 0.013434 0.796448 -0.141713
C20   C     C_R   0.827967 0.513799 0.203320 -0.142147
C21   C     C_R   0.220084 0.736419 0.876942 -0.153329
C22   C     C_R   0.780247 0.235575 0.123380 -0.152882
C23   C     C_R   0.272597 0.691501 0.824728 -0.117943
C24   C     C_R   0.727808 0.190590 0.175660 -0.117389
H1    H     H_    0.131235 0.134324 0.785510 0.178413
H2    H     H_    0.868267 0.635216 0.214019 0.178457
H3    H     H_    0.219058 0.643327 0.928046 0.124252
H4    H     H_    0.781469 0.142009 0.072474 0.124469
H5    H     H_    0.310854 0.566493 0.837096 0.119609
H6    H     H_    0.689819 0.065059 0.163544 0.119722
H7    H     H_    0.282373 0.124213 0.570953 0.156840
H8    H     H_    0.717137 0.625433 0.428549 0.157035
H9    H     H_    0.367363 0.634181 0.716151 0.126215
H10   H     H_    0.633102 0.133310 0.284290 0.126401
C25   C     C_3   0.767170 0.707608 0.816494 0.389295
C26   C     C_3   0.232827 0.207648 0.183501 0.389332
H11   H     H_    0.812497 0.592542 0.813687 0.095591
H12   H     H_    0.187497 0.092550 0.186294 0.095576
C27   C     C_3   0.697190 0.680991 0.742386 -0.336171
C28   C     C_3   0.302797 0.181012 0.257618 -0.336185
H13   H     H_    0.639857 0.643287 0.762410 0.186807
H14   H     H_    0.360131 0.143329 0.237602 0.186809
H15   H     H_    0.711881 0.559064 0.705364 0.110330
H16   H     H_    0.288091 0.059067 0.294638 0.110319
H17   H     H_    0.774813 0.783926 0.617810 0.210576
H18   H     H_    0.225183 0.283866 0.382200 0.210547
C29   C     C_3   0.838205 0.923284 0.729623 0.051692
C30   C     C_3   0.161795 0.423214 0.270379 0.051728
C31   C     C_3   0.746554 0.063634 0.815019 -0.398231
C32   C     C_3   0.253451 0.563681 0.184988 -0.398225
C33   C     C_3   0.810682 0.905495 0.812580 -0.073410
C34   C     C_3   0.189318 0.405505 0.187421 -0.073475
H19   H     H_    0.774027 0.205396 0.807609 0.090666
H20   H     H_    0.225984 0.705418 0.192409 0.090658
H21   H     H_    0.728244 0.065303 0.875052 0.197669
H22   H     H_    0.271758 0.565416 0.124953 0.197643
C35   C     C_3   0.684841 0.864464 0.690204 -0.052538
C36   C     C_3   0.315156 0.364465 0.309800 -0.052531
C37   C     C_3   0.764495 0.902131 0.658690 -0.431333
C38   C     C_3   0.235505 0.402084 0.341313 -0.431360
C39   C     C_3   0.671096 0.035284 0.746308 0.391309
C40   C     C_3   0.328911 0.535315 0.253695 0.391358
H23   H     H_    0.664949 0.168556 0.709031 0.048577
H24   H     H_    0.335074 0.668575 0.290972 0.048558
H25   H     H_    0.865379 0.067002 0.725734 0.154666
H26   H     H_    0.134615 0.566903 0.274271 0.154658
H27   H     H_    0.758198 0.034898 0.621807 0.155284
H28   H     H_    0.241806 0.534847 0.378189 0.155258
O11   O     O_R   0.087500 0.266000 0.085220 -0.525864
O12   O     O_R   0.912500 0.766000 0.914780 -0.525879
O13   O     O_R   0.921600 0.589950 0.070670 -0.537351
O14   O     O_R   0.078400 0.089950 0.929330 -0.537338
C41   C     C_R   0.894805 0.419845 0.086216 0.716761
C42   C     C_R   0.105189 0.919886 0.913776 0.716737
O15   O     O_R   0.087460 0.596020 0.094710 -0.552297
O16   O     O_R   0.912540 0.096020 0.905290 -0.552317
O17   O     O_R   0.079520 0.760970 0.939020 -0.534296
O18   O     O_R   0.920480 0.260970 0.060980 -0.534389
C43   C     C_R   0.117212 0.425897 0.117059 0.745235
C44   C     C_R   0.882788 0.925891 0.882941 0.745156
O19   O     O_3   0.997180 0.425140 0.948910 -0.367029
O20   O     O_3   0.002820 0.925140 0.051090 -0.367052
V3    V     V_3+5 0.000520 0.702080 0.009480 1.488411
V4    V     V_3+5 0.999480 0.202080 0.990520 1.488419
Br1   Br    Br    0.923378 0.741405 0.717823 -0.499339
Br2   Br    Br    0.076626 0.241246 0.282173 -0.499089
O21   O     O_3   0.602047 0.997067 0.781117 -0.541731
C45   C     C_3   0.546439 0.149641 0.768177 -0.258453
H29   H     H_    0.520834 0.166731 0.702876 0.160786
H30   H     H_    0.574812 0.285023 0.793570 0.120216
H31   H     H_    0.495560 0.117132 0.799315 0.166785
O22   O     O_3   0.397954 0.497126 0.218883 -0.541705
C46   C     C_3   0.453563 0.649738 0.231794 -0.258487
H32   H     H_    0.479135 0.666960 0.297095 0.160728
H33   H     H_    0.425199 0.785063 0.206335 0.120265
H34   H     H_    0.504463 0.617188 0.200700 0.166766
Br3   Br    Br    0.163727 0.308601 0.648849 -0.476087
Br4   Br    Br    0.835436 0.810293 0.350340 -0.477233
O23   O     O_3   0.736453 0.699501 0.889398 -0.541938
C47   C     C_3   0.733825 0.509951 0.916757 -0.252876
H35   H     H_    0.795080 0.444317 0.929003 0.121525
H36   H     H_    0.691510 0.422823 0.872875 0.124727
H37   H     H_    0.711008 0.510782 0.974292 0.166395
O24   O     O_3   0.263557 0.199620 0.110604 -0.541905
C48   C     C_3   0.266205 0.010089 0.083250 -0.252802
H38   H     H_    0.204950 0.944412 0.070973 0.121501
H39   H     H_    0.308500 0.922975 0.127151 0.124650
H40   H     H_    0.289058 0.010956 0.025736 0.166463

loop_
_geom_bond_atom_site_label_1
_geom_bond_atom_site_label_2
_ccdc_geom_bond_type
C2    C35   S    
O16   V4    S    
O4    V2    S    
O15   C43   A    
C15   C17   A    
C24   H6    S    
O23   C47   S    
O1    C3    A    
O2    C4    A    
C29   H25   S    
C2    O7    A    
C47   H36   S    
C11   H7    S    
C25   H11   S    
O5    C3    A    
C46   H33   S    
C30   H26   S    
C21   H3    S    
C40   H24   S    
C22   H4    S    
O14   C42   A    
C30   Br2   S    
C48   H39   S    
C25   C33   S    
C25   O23   S    
C26   C34   S    
C30   C38   S    
O12   C44   A    
O24   C48   S    
C31   C33   S    
O14   V4    S    
C35   C37   S    
C47   H35   S    
C32   C34   S    
C8    C12   A    
C10   Br4   S    
O15   V3    S    
C33   C44   S    
C36   C40   S    
C35   C39   S    
C20   H2    S    
C22   C24   A    
C26   O24   S    
C26   H12   S    
O6    V2    S    
C39   H23   S    
C5    C21   A    
C7    C13   A    
C37   H27   S    
O22   C46   S    
C28   H14   S    
C46   H34   S    
C3    C8    S    
C6    C41   S    
C32   H20   S    
C5    C42   S    
O16   C44   A    
O4    C2    A    
C48   H40   S    
O11   V4    S    
C25   C27   S    
C31   C39   S    
C9    C17   A    
C45   H31   S    
C19   H1    S    
C27   H13   S    
O17   V3    S    
C7    C11   A    
C1    C36   S    
C31   H21   S    
O21   C45   S    
O6    C4    A    
O13   V3    S    
C45   H30   S    
O1    V2    S    
H17   C37   S    
O20   V4    S    
O2    V1    S    
C6    C22   A    
O13   C41   A    
C12   H8    S    
O19   V4    S    
C9    C11   A    
C29   Br1   S    
C10   C12   A    
C6    C20   A    
C13   H9    S    
O3    V1    S    
C40   O22   S    
C39   O21   S    
O12   V3    S    
C10   C18   A    
C14   C16   A    
O3    C1    A    
C42   O17   A    
C9    Br3   S    
C41   O18   A    
O18   V4    S    
C13   C15   A    
C46   H32   S    
C29   C33   S    
C32   H22   S    
C30   C34   S    
C15   C23   A    
C16   C18   A    
O7    V1    S    
C1    O8    A    
C38   H28   S    
O8    V2    S    
C48   H38   S    
C18   C20   A    
H18   C38   S    
O19   V3    S    
C8    C14   A    
C5    C19   A    
C4    C7    S    
O5    V1    S    
C45   H29   S    
C21   C23   A    
C27   H15   S    
O20   V3    S    
C23   H5    S    
C28   C36   S    
C14   H10   S    
O11   C43   A    
C31   H19   S    
C26   C28   S    
C16   C24   A    
C17   C19   A    
O9    V2    S    
O10   V1    S    
C32   C40   S    
C36   C38   S    
C27   C35   S    
C34   C43   S    
C47   H37   S    
C28   H16   S    
C29   C37   S    
