data_mof_unit_66104.cif
_audit_creation_date              2012-12-10T20:11:16-0500
_audit_creation_method            fapswitch 2.2
_symmetry_space_group_name_H-M    P1
_symmetry_Int_Tables_number       1
_space_group_crystal_system       triclinic
_cell_length_a                    41.385852
_cell_length_b                    35.475983
_cell_length_c                    21.736251
_cell_angle_alpha                 89.995517
_cell_angle_beta                  121.00229
_cell_angle_gamma                 89.956597
_cell_volume                      27354.3219745

loop_
_atom_site_label
_atom_site_type_symbol
_atom_type_description
_atom_site_fract_x
_atom_site_fract_y
_atom_site_fract_z
_atom_type_partial_charge
C1    C     C_R   0.426632 0.500030 0.926836 0.894197
C2    C     C_R   0.826655 0.478377 0.287453 0.223810
C3    C     C_R   0.017016 0.673261 0.565515 0.504134
C4    C     C_R   0.512444 0.173994 0.462102 0.490365
C5    C     C_R   0.489749 0.172917 0.545953 0.496373
C6    C     C_R   0.984392 0.634072 0.435041 -0.293039
C7    C     C_R   0.015403 0.634039 0.564871 -0.293124
C8    C     C_R   0.512259 0.134706 0.461073 -0.293474
C9    C     C_R   0.488082 0.133741 0.541675 -0.294486
C10   C     C_R   0.999917 0.614403 0.499956 -0.199731
C11   C     C_R   0.499948 0.114527 0.500525 -0.187189
C12   C     C_R   0.999903 0.692923 0.499961 -0.144719
C13   C     C_R   0.673376 0.989611 0.725169 0.223775
C14   C     C_R   0.501659 0.193043 0.505482 -0.136518
C15   C     C_1   0.999949 0.733079 0.499968 0.014521
C16   C     C_1   0.502149 0.233177 0.507102 0.030223
C17   C     C_R   0.999906 0.386013 0.499948 -0.220685
C18   C     C_R   0.499899 0.886014 0.499880 -0.214125
C19   C     C_1   0.502160 0.266841 0.506902 0.058681
C20   C     C_1   0.999987 0.766747 0.499968 0.000411
C21   C     C_R   0.477349 0.325932 0.440211 0.092979
C22   C     C_R   0.524870 0.327315 0.568583 0.136378
C23   C     C_R   0.977005 0.826661 0.435344 0.117918
C24   C     C_R   0.326743 0.986044 0.276988 0.220278
C25   C     C_R   0.023057 0.826607 0.564580 0.118009
C26   C     C_R   0.477556 0.365365 0.438398 0.382431
C27   C     C_R   0.523154 0.366786 0.567476 0.339330
C28   C     C_R   0.977901 0.866115 0.435255 0.376054
C29   C     C_R   0.022179 0.866062 0.564681 0.376028
C30   C     C_R   0.500092 0.385703 0.502036 -0.365443
C31   C     C_R   0.000043 0.885695 0.499975 -0.377765
C32   C     C_R   0.501517 0.307071 0.505178 -0.116004
C33   C     C_R   0.000023 0.806991 0.499961 -0.139559
C34   C     C_R   0.965823 0.327176 0.473580 -0.278767
C35   C     C_R   0.134036 0.478695 0.673979 -0.335929
C36   C     C_R   0.033738 0.326963 0.526425 -0.276279
C37   C     C_R   0.465700 0.827100 0.466959 -0.286077
C38   C     C_R   0.534131 0.827058 0.532564 -0.284347
C39   C     C_R   0.965760 0.366686 0.475032 0.395664
C40   C     C_R   0.033972 0.366455 0.524996 0.393120
C41   C     C_R   0.465373 0.866673 0.468265 0.399596
C42   C     C_R   0.534407 0.866607 0.531324 0.398741
C43   C     C_1   0.499934 0.733740 0.499764 -0.083582
C44   C     C_1   0.999702 0.233725 0.499952 -0.082805
C45   C     C_R   0.499962 0.614860 0.499921 -0.036008
C46   C     C_R   0.865962 0.478955 0.325709 -0.334353
C47   C     C_R   0.999918 0.114854 0.499978 -0.035816
C48   C     C_2   0.526049 0.521772 0.742184 -0.161543
C49   C     C_2   0.474131 0.521934 0.258038 -0.164929
C50   C     C_2   0.025882 0.021874 0.741989 -0.165769
C51   C     C_2   0.974086 0.021883 0.257972 -0.166091
C52   C     C_2   0.498039 0.505822 0.682869 -0.339648
C53   C     C_2   0.501954 0.505548 0.317098 -0.340564
C54   C     C_2   0.998015 0.005645 0.682855 -0.341287
C55   C     C_2   0.001976 0.005644 0.317135 -0.341053
C56   C     C_2   0.522902 0.525187 0.805913 -0.162172
C57   C     C_R   0.634106 0.989056 0.684844 -0.335224
C58   C     C_2   0.477327 0.525403 0.194373 -0.161735
C59   C     C_2   0.022688 0.025327 0.805659 -0.161096
C60   C     C_2   0.977278 0.025336 0.194300 -0.161179
C61   C     C_3   0.388155 0.465317 0.020524 0.098533
C62   C     C_3   0.409605 0.438330 0.083100 -0.799363
C63   C     C_3   0.612450 0.464062 0.981335 0.098782
C64   C     C_3   0.590872 0.437014 0.919058 -0.799829
C65   C     C_3   0.888816 0.966210 0.022446 0.097964
C66   C     C_3   0.910010 0.939492 0.085531 -0.798054
C67   C     C_3   0.110975 0.965610 0.977455 0.098853
C68   C     C_R   0.366005 0.987434 0.316098 -0.335585
C69   C     C_3   0.089720 0.938864 0.914517 -0.799492
C70   C     C_3   0.928651 0.701463 0.347126 0.108763
C71   C     C_3   0.902012 0.668555 0.308332 -0.904277
C72   C     C_3   0.071138 0.701208 0.653016 0.109035
C73   C     C_3   0.097687 0.668321 0.692647 -0.904756
C74   C     C_3   0.495002 0.204023 0.356225 0.104525
C75   C     C_3   0.488998 0.174948 0.299609 -0.869351
C76   C     C_3   0.506848 0.196566 0.656615 0.106963
C77   C     C_3   0.511590 0.162507 0.703561 -0.893476
C78   C     C_3   0.415126 0.301870 0.358252 -0.716689
C79   C     C_R   0.114323 0.501752 0.613624 -0.235364
C80   C     C_3   0.535264 0.293702 0.674458 -0.805610
C81   C     C_3   0.914317 0.805328 0.348848 -0.742391
C82   C     C_3   0.085716 0.805085 0.651065 -0.743052
C83   C     C_3   0.476440 0.389756 0.340785 0.133712
C84   C     C_3   0.452332 0.410381 0.270126 -0.818179
C85   C     C_3   0.521341 0.397604 0.657471 0.137298
C86   C     C_3   0.545812 0.412618 0.733263 -0.831188
C87   C     C_3   0.978654 0.891515 0.340213 0.134758
C88   C     C_3   0.955051 0.911521 0.268720 -0.817599
C89   C     C_3   0.021364 0.891416 0.659683 0.134877
C90   C     C_R   0.885665 0.501584 0.386641 -0.236358
C91   C     C_3   0.044920 0.911389 0.731167 -0.818074
C92   C     C_3   0.914512 0.379039 0.485958 0.098171
C93   C     C_3   0.885039 0.409225 0.469798 -0.805016
C94   C     C_3   0.085018 0.379070 0.513810 0.099368
C95   C     C_3   0.115747 0.408202 0.533065 -0.804324
C96   C     C_3   0.407171 0.875446 0.456833 0.095268
C97   C     C_3   0.378688 0.906621 0.441338 -0.803369
C98   C     C_3   0.591778 0.876042 0.539991 0.096335
C99   C     C_3   0.619907 0.907473 0.555032 -0.801794
C100  C     C_3   0.205776 0.473516 0.842953 -0.785648
C101  C     C_R   0.614682 0.001731 0.613654 -0.237754
C102  C     C_3   0.794822 0.419256 0.239376 -0.779693
C103  C     C_3   0.705293 0.005899 0.850685 -0.786185
C104  C     C_3   0.296079 0.932525 0.200626 -0.781231
C105  C     C_3   0.106894 0.584508 0.560493 0.107256
C106  C     C_3   0.086622 0.611857 0.498062 -0.776551
C107  C     C_3   0.892542 0.583460 0.442012 0.107430
C108  C     C_3   0.913261 0.610362 0.504996 -0.776140
C109  C     C_3   0.610383 0.068287 0.514169 0.136882
C110  C     C_3   0.589793 0.083406 0.437795 -0.798112
C111  C     C_3   0.388767 0.068035 0.484123 0.135774
C112  C     C_R   0.573373 0.500000 0.073239 0.894274
C113  C     C_R   0.385322 0.001091 0.386580 -0.237966
C114  C     C_3   0.408675 0.083961 0.559863 -0.801037
C115  C     C_3   0.195974 0.537138 0.551091 -0.717659
C116  C     C_3   0.804554 0.533609 0.453108 -0.717720
C117  C     C_3   0.697534 0.999818 0.542882 -0.718514
C118  C     C_3   0.302788 0.998553 0.458749 -0.719169
C119  C     C_R   0.133805 0.526567 0.593529 0.430868
C120  C     C_R   0.866129 0.525385 0.408336 0.430647
C121  C     C_R   0.634844 0.015702 0.582336 0.422500
C122  C     C_R   0.365046 0.014759 0.417917 0.421995
C123  C     C_R   0.173361 0.526626 0.632124 0.088416
C124  C     C_R   0.826602 0.524802 0.370803 0.089504
C125  C     C_R   0.674355 0.014974 0.621445 0.086927
C126  C     C_R   0.325574 0.013086 0.379380 0.087895
C127  C     C_R   0.192986 0.502999 0.692644 -0.031391
C128  C     C_R   0.926674 0.000017 0.926985 0.894920
C129  C     C_R   0.806993 0.501428 0.309967 -0.031179
C130  C     C_R   0.693444 0.002223 0.693067 -0.030004
C131  C     C_R   0.306579 0.999227 0.308538 -0.028174
C132  C     C_1   0.233257 0.502129 0.731677 0.006015
C133  C     C_1   0.766727 0.501212 0.270027 0.004126
C134  C     C_1   0.733625 0.000995 0.733101 0.006266
C135  C     C_1   0.266389 0.998949 0.267733 0.003914
C136  C     C_1   0.266948 0.501465 0.765118 -0.042050
C137  C     C_1   0.733042 0.500924 0.236116 -0.041993
C138  C     C_1   0.767264 0.000384 0.766808 -0.042732
C139  C     C_R   0.073331 0.999980 0.072940 0.894611
C140  C     C_1   0.232750 0.999013 0.233508 -0.042670
C141  C     C_R   0.325668 0.474317 0.860476 -0.250419
C142  C     C_R   0.674402 0.473626 0.141224 -0.252310
C143  C     C_R   0.826144 0.973967 0.862497 -0.248909
C144  C     C_R   0.173738 0.973191 0.137465 -0.251544
C145  C     C_R   0.501372 0.499824 0.882239 0.929732
C146  C     C_R   0.498603 0.499819 0.117739 0.929560
C147  C     C_R   0.001363 0.999824 0.882226 0.928982
C148  C     C_R   0.998639 0.999824 0.117775 0.929142
C149  C     C_R   0.365008 0.474210 0.901835 0.464593
C150  C     C_2   0.505058 0.498352 0.820122 -0.342945
C151  C     C_R   0.635080 0.473635 0.099570 0.465364
C152  C     C_R   0.865451 0.974181 0.903522 0.464344
C153  C     C_R   0.134440 0.973727 0.096352 0.465618
C154  C     C_R   0.385524 0.500239 0.886180 -0.148895
C155  C     C_R   0.614491 0.500126 0.114184 -0.149802
C156  C     C_R   0.885647 0.000114 0.886906 -0.148765
C157  C     C_R   0.114369 0.999947 0.112809 -0.149498
C158  C     C_R   0.366464 0.527065 0.831713 -0.267631
C159  C     C_R   0.633496 0.527290 0.167925 -0.267444
C160  C     C_R   0.866349 0.026590 0.831914 -0.267976
C161  C     C_2   0.494781 0.498314 0.179716 -0.343734
C162  C     C_R   0.133809 0.026453 0.167601 -0.268438
C163  C     C_R   0.327272 0.527319 0.791486 -0.167156
C164  C     C_R   0.672687 0.527452 0.208396 -0.166507
C165  C     C_R   0.827177 0.026538 0.792020 -0.167064
C166  C     C_R   0.172986 0.026090 0.207567 -0.165323
C167  C     C_R   0.307019 0.500856 0.805725 0.081773
C168  C     C_R   0.692986 0.500538 0.195158 0.082968
C169  C     C_R   0.807256 0.000123 0.807192 0.081612
C170  C     C_R   0.192763 0.999332 0.192656 0.083730
C171  C     C_R   0.499939 0.693585 0.499798 0.159003
C172  C     C_2   0.005096 0.998345 0.820156 -0.343720
C173  C     C_R   0.999772 0.193574 0.499981 0.158656
C174  C     C_R   0.465728 0.634822 0.465374 -0.198711
C175  C     C_R   0.534183 0.634784 0.534406 -0.198449
C176  C     C_R   0.965653 0.134768 0.465507 -0.198642
C177  C     C_R   0.034110 0.134823 0.534450 -0.198701
C178  C     C_1   0.999684 0.267458 0.499940 -0.001010
C179  C     C_1   0.499934 0.767477 0.499760 -0.000624
C180  C     C_R   0.999740 0.307616 0.499962 0.038656
C181  C     C_R   0.499924 0.807642 0.499772 0.045656
C182  C     C_R   0.500019 0.426724 0.499980 0.967607
C183  C     C_2   0.994912 0.998347 0.179851 -0.343632
C184  C     C_R   0.000015 0.926726 0.499992 0.980179
C185  C     C_R   0.465762 0.674079 0.465358 -0.164187
C186  C     C_R   0.534126 0.674038 0.534299 -0.163915
C187  C     C_R   0.965626 0.174021 0.465555 -0.164251
C188  C     C_R   0.033991 0.174077 0.534405 -0.163930
C189  C     C_R   0.499663 0.501576 0.618761 0.922806
C190  C     C_R   0.500335 0.501352 0.381214 0.929250
C191  C     C_R   0.999659 0.001392 0.618776 0.929905
C192  C     C_R   0.000338 0.001393 0.381222 0.929783
C193  C     C_R   0.499985 0.573500 0.499979 0.860947
C194  C     C_R   0.173331 0.479285 0.714124 0.226984
C195  C     C_R   0.999980 0.073498 0.499988 0.861031
C196  C     C_R   0.000001 0.426895 0.500008 1.018220
C197  C     C_R   0.499933 0.926899 0.499933 1.028220
C198  C     C_R   0.073307 0.500364 0.573005 0.953669
C199  C     C_R   0.926692 0.500394 0.427013 0.954663
C200  C     C_R   0.573431 0.000544 0.573058 0.948942
C201  C     C_R   0.426574 0.000524 0.426970 0.948766
C202  C     C_R   0.999967 0.573405 0.499972 0.913761
C203  C     C_R   0.499905 0.073448 0.499945 0.903993
C204  C     C_R   0.982763 0.673297 0.434401 0.505020
H1    H     H_    0.439207 0.689198 0.438561 0.132076
H2    H     H_    0.617983 0.548027 0.179159 0.171578
H3    H     H_    0.902854 0.833973 0.346428 0.278119
H4    H     H_    0.036035 0.781856 0.635778 0.236849
H5    H     H_    0.088807 0.787492 0.612086 0.216088
H6    H     H_    0.102349 0.792168 0.705163 0.220193
H7    H     H_    0.097208 0.833688 0.653428 0.277990
H8    H     H_    0.485390 0.362354 0.329167 0.142591
H9    H     H_    0.501853 0.407280 0.375076 0.111427
H10   H     H_    0.442744 0.437816 0.279718 0.268915
H11   H     H_    0.469073 0.415660 0.244245 0.201544
H12   H     H_    0.427314 0.393091 0.233541 0.258454
H13   H     H_    0.881615 0.046891 0.819232 0.170731
H14   H     H_    0.504470 0.373606 0.659134 0.125296
H15   H     H_    0.501604 0.420322 0.623975 0.126934
H16   H     H_    0.562177 0.437377 0.733101 0.270039
H17   H     H_    0.527745 0.421361 0.754741 0.204421
H18   H     H_    0.565605 0.390372 0.768531 0.254187
H19   H     H_    0.988551 0.864273 0.330089 0.144127
H20   H     H_    0.003497 0.909555 0.375250 0.113119
H21   H     H_    0.944514 0.938776 0.276714 0.268258
H22   H     H_    0.972471 0.917048 0.244335 0.201757
H23   H     H_    0.930649 0.893669 0.231610 0.260031
H24   H     H_    0.118651 0.046971 0.180170 0.170897
H25   H     H_    0.011486 0.864177 0.669802 0.144182
H26   H     H_    0.996507 0.909479 0.624611 0.113199
H27   H     H_    0.055439 0.938640 0.723179 0.268319
H28   H     H_    0.027470 0.916920 0.755497 0.201790
H29   H     H_    0.069333 0.893513 0.768314 0.259971
H30   H     H_    0.934884 0.379007 0.545068 0.140166
H31   H     H_    0.899962 0.351331 0.469419 0.140413
H32   H     H_    0.864232 0.410284 0.411282 0.259460
H33   H     H_    0.870016 0.402743 0.498606 0.202582
H34   H     H_    0.898828 0.437163 0.487792 0.265188
H35   H     H_    0.312773 0.548047 0.749278 0.143155
H36   H     H_    0.064615 0.380883 0.454832 0.140614
H37   H     H_    0.098396 0.350716 0.527327 0.140490
H38   H     H_    0.136472 0.407562 0.591687 0.258350
H39   H     H_    0.130610 0.401996 0.503835 0.203582
H40   H     H_    0.103126 0.436781 0.517682 0.262950
H41   H     H_    0.422290 0.869392 0.515598 0.138377
H42   H     H_    0.391438 0.849974 0.426406 0.143382
H43   H     H_    0.362852 0.913385 0.383127 0.262342
H44   H     H_    0.358427 0.897379 0.457352 0.201741
H45   H     H_    0.393446 0.932303 0.472245 0.265677
H46   H     H_    0.687144 0.548439 0.250043 0.142913
H47   H     H_    0.575909 0.870636 0.480975 0.137462
H48   H     H_    0.607818 0.850348 0.568888 0.144645
H49   H     H_    0.636273 0.913867 0.613372 0.260536
H50   H     H_    0.639721 0.898721 0.537577 0.202494
H51   H     H_    0.604773 0.933263 0.525045 0.265076
H52   H     H_    0.179014 0.430271 0.770375 0.228554
H53   H     H_    0.181245 0.483429 0.846318 0.237873
H54   H     H_    0.224230 0.497860 0.849992 0.247922
H55   H     H_    0.222288 0.453243 0.887259 0.237043
H56   H     H_    0.820791 0.451446 0.197939 0.225886
H57   H     H_    0.812436 0.046959 0.749311 0.142161
H58   H     H_    0.819661 0.401709 0.276109 0.238833
H59   H     H_    0.777770 0.403873 0.187970 0.238007
H60   H     H_    0.777080 0.423725 0.263442 0.250358
H61   H     H_    0.678322 0.955417 0.806674 0.226706
H62   H     H_    0.680731 0.021466 0.845707 0.236175
H63   H     H_    0.724043 0.025915 0.844483 0.249318
H64   H     H_    0.721458 0.993284 0.905148 0.236716
H65   H     H_    0.321654 0.976183 0.178643 0.224133
H66   H     H_    0.321199 0.913971 0.229836 0.239959
H67   H     H_    0.279971 0.923924 0.143351 0.236949
H68   H     H_    0.187838 0.046478 0.250233 0.141959
H69   H     H_    0.277604 0.928826 0.223308 0.249390
H70   H     H_    0.133553 0.598079 0.602272 0.141186
H71   H     H_    0.088472 0.579266 0.583037 0.112189
H72   H     H_    0.060001 0.599092 0.455053 0.269599
H73   H     H_    0.079861 0.638241 0.516663 0.199120
H74   H     H_    0.104857 0.618768 0.475984 0.253720
H75   H     H_    0.865660 0.597150 0.401251 0.141244
H76   H     H_    0.910505 0.578712 0.418300 0.110892
H77   H     H_    0.940105 0.597432 0.547012 0.269589
H78   H     H_    0.919678 0.637005 0.486573 0.199198
H79   H     H_    0.438970 0.620159 0.438399 0.156561
H80   H     H_    0.895492 0.616845 0.528286 0.253628
H81   H     H_    0.637773 0.083438 0.545069 0.140647
H82   H     H_    0.592836 0.074356 0.538340 0.115963
H83   H     H_    0.561868 0.069525 0.405994 0.255289
H84   H     H_    0.585567 0.114294 0.438332 0.212250
H85   H     H_    0.606604 0.077822 0.412146 0.255578
H86   H     H_    0.361169 0.082757 0.452098 0.139277
H87   H     H_    0.406524 0.073964 0.460365 0.114855
H88   H     H_    0.436696 0.070375 0.592877 0.255079
H89   H     H_    0.412625 0.114829 0.558235 0.211800
H90   H     H_    0.560952 0.620092 0.561427 0.156796
H91   H     H_    0.391532 0.078694 0.584930 0.256135
H92   H     H_    0.217992 0.561669 0.651498 0.217739
H93   H     H_    0.209722 0.558727 0.535195 0.224970
H94   H     H_    0.167627 0.531112 0.503946 0.271986
H95   H     H_    0.213317 0.511030 0.567263 0.224081
H96   H     H_    0.781767 0.559115 0.353332 0.218219
H97   H     H_    0.790790 0.554640 0.470070 0.225410
H98   H     H_    0.833092 0.527537 0.499690 0.271533
H99   H     H_    0.787481 0.507349 0.436475 0.223113
H100  H     H_    0.719579 0.041001 0.621908 0.218222
H101  H     H_    0.938914 0.120070 0.438544 0.156618
H102  H     H_    0.711645 0.012556 0.516151 0.225921
H103  H     H_    0.669181 0.989897 0.500664 0.269596
H104  H     H_    0.714551 0.975411 0.575678 0.224855
H105  H     H_    0.280103 0.039008 0.378319 0.218327
H106  H     H_    0.288610 0.011473 0.485216 0.226028
H107  H     H_    0.331300 0.989055 0.501156 0.269515
H108  H     H_    0.286044 0.973836 0.426860 0.223726
H109  H     H_    0.560672 0.689123 0.561056 0.132439
H110  H     H_    0.060899 0.120165 0.561411 0.156701
H111  H     H_    0.972368 0.619015 0.384587 0.188910
H112  H     H_    0.027421 0.618956 0.615324 0.188836
H113  H     H_    0.521805 0.120062 0.429624 0.184959
H114  H     H_    0.477592 0.118345 0.570790 0.188055
H115  H     H_    0.939593 0.311748 0.451755 0.148753
H116  H     H_    0.059917 0.311384 0.548370 0.149701
H117  H     H_    0.439515 0.811450 0.440259 0.143986
H118  H     H_    0.560368 0.811432 0.559133 0.145416
H119  H     H_    0.550599 0.533411 0.743228 0.165014
H120  H     H_    0.939048 0.189101 0.438810 0.132545
H121  H     H_    0.449749 0.533924 0.257217 0.164940
H122  H     H_    0.050326 0.033714 0.742905 0.165330
H123  H     H_    0.949622 0.033730 0.257032 0.165071
H124  H     H_    0.471733 0.498007 0.679289 0.158574
H125  H     H_    0.528161 0.497406 0.320536 0.159398
H126  H     H_    0.971771 0.997639 0.679351 0.159527
H127  H     H_    0.028233 0.997630 0.320656 0.159461
H128  H     H_    0.536442 0.548686 0.842369 0.162491
H129  H     H_    0.464183 0.549183 0.158392 0.162741
H130  H     H_    0.035987 0.048982 0.841826 0.162705
H131  H     H_    0.060515 0.189204 0.561141 0.132765
H132  H     H_    0.963944 0.048995 0.158090 0.162449
H133  H     H_    0.495527 0.472663 0.788447 0.151190
H134  H     H_    0.503845 0.472412 0.210897 0.153438
H135  H     H_    0.995857 0.972534 0.788793 0.152925
H136  H     H_    0.004187 0.972531 0.211255 0.152799
H137  H     H_    0.118806 0.459964 0.689612 0.192665
H138  H     H_    0.881193 0.460896 0.308986 0.193064
H139  H     H_    0.618747 0.978539 0.709309 0.192410
H140  H     H_    0.381456 0.976804 0.291880 0.193459
H141  H     H_    0.360391 0.471492 0.015088 0.133135
H142  H     H_    0.309782 0.454130 0.871884 0.161126
H143  H     H_    0.404788 0.491890 0.033423 0.119937
H144  H     H_    0.437500 0.431588 0.090032 0.266900
H145  H     H_    0.413980 0.451661 0.133036 0.211356
H146  H     H_    0.393350 0.411857 0.073285 0.253296
H147  H     H_    0.640377 0.469662 0.987108 0.135314
H148  H     H_    0.596108 0.490886 0.967856 0.119842
H149  H     H_    0.562731 0.430982 0.911534 0.267257
H150  H     H_    0.587060 0.450004 0.869299 0.211204
H151  H     H_    0.606756 0.410209 0.929507 0.253377
H152  H     H_    0.861045 0.972728 0.016730 0.133707
H153  H     H_    0.690331 0.453062 0.130634 0.159559
H154  H     H_    0.905592 0.992660 0.034912 0.120312
H155  H     H_    0.937907 0.932391 0.092803 0.267414
H156  H     H_    0.914344 0.953249 0.135091 0.211858
H157  H     H_    0.893582 0.913178 0.076119 0.253938
H158  H     H_    0.138751 0.971968 0.983104 0.134648
H159  H     H_    0.094249 0.992132 0.964865 0.120674
H160  H     H_    0.061816 0.931916 0.907304 0.267648
H161  H     H_    0.085402 0.952533 0.864890 0.212205
H162  H     H_    0.106100 0.912475 0.924045 0.253551
H163  H     H_    0.920051 0.725135 0.308431 0.173796
H164  H     H_    0.810477 0.953839 0.874576 0.160287
H165  H     H_    0.925119 0.711549 0.391932 0.127112
H166  H     H_    0.906488 0.645677 0.346772 0.234273
H167  H     H_    0.872349 0.678299 0.283063 0.221476
H168  H     H_    0.906784 0.657406 0.265911 0.272784
H169  H     H_    0.079646 0.725068 0.691252 0.173625
H170  H     H_    0.074873 0.710938 0.608254 0.126571
H171  H     H_    0.093261 0.645178 0.654753 0.233995
H172  H     H_    0.127375 0.677930 0.717932 0.221082
H173  H     H_    0.092771 0.657582 0.735137 0.272801
H174  H     H_    0.502203 0.231301 0.341177 0.163482
H175  H     H_    0.189298 0.952774 0.125627 0.157116
H176  H     H_    0.468065 0.208739 0.355297 0.116856
H177  H     H_    0.478533 0.148090 0.309130 0.244667
H178  H     H_    0.467757 0.185593 0.245503 0.217633
H179  H     H_    0.515883 0.169669 0.301234 0.267315
H180  H     H_    0.499595 0.221020 0.679035 0.170932
H181  H     H_    0.534116 0.203492 0.660387 0.134987
H182  H     H_    0.524584 0.138644 0.691019 0.245334
H183  H     H_    0.530444 0.169994 0.760949 0.221846
H184  H     H_    0.483819 0.153701 0.695013 0.270240
H185  H     H_    0.464820 0.280827 0.370184 0.205698
H186  H     H_    0.381939 0.547456 0.819729 0.170996
H187  H     H_    0.413992 0.284628 0.399803 0.226071
H188  H     H_    0.398288 0.287647 0.305491 0.222356
H189  H     H_    0.402452 0.330000 0.354695 0.271024
H190  H     H_    0.576164 0.321720 0.664156 0.263275
H191  H     H_    0.554085 0.271422 0.711423 0.229138
H192  H     H_    0.506815 0.281494 0.639114 0.247020
H193  H     H_    0.533358 0.316578 0.707209 0.240047
H194  H     H_    0.963967 0.781921 0.364156 0.236931
H195  H     H_    0.911200 0.787787 0.387853 0.215973
H196  H     H_    0.897674 0.792422 0.294773 0.220291
N1    N     N_2   0.453684 0.305739 0.375534 -0.283565
N2    N     N_2   0.807102 0.548596 0.393894 -0.289896
N3    N     N_2   0.694381 0.027645 0.588122 -0.291055
N4    N     N_2   0.305490 0.026010 0.412440 -0.290547
N5    N     N_2   0.550877 0.307948 0.632885 -0.275914
N6    N     N_2   0.953538 0.807316 0.369490 -0.279916
N7    N     N_2   0.046499 0.807208 0.630435 -0.279863
N8    N     N_2   0.192984 0.455132 0.774802 -0.293494
N9    N     N_2   0.806999 0.454895 0.225832 -0.295334
N10   N     N_2   0.692584 0.976348 0.797345 -0.293498
N11   N     N_2   0.307656 0.971438 0.205799 -0.294717
N12   N     N_2   0.192868 0.551184 0.610280 -0.290565
O1    O     O_R   0.444560 0.531280 0.944560 -0.635997
O2    O     O_R   0.944570 0.500110 0.393510 -0.634265
O3    O     O_R   0.555430 0.000110 0.606490 -0.629929
O4    O     O_R   0.444570 0.000110 0.393510 -0.631003
O5    O     O_R   0.000010 0.555520 0.448910 -0.626140
O6    O     O_R   0.999990 0.555520 0.551090 -0.627302
O7    O     O_R   0.500010 0.055520 0.448910 -0.632759
O8    O     O_R   0.499990 0.055520 0.551090 -0.632869
O9    O     O_R   0.444540 0.468700 0.944530 -0.573448
O10   O     O_R   0.555460 0.468700 0.055470 -0.573234
O11   O     O_R   0.944540 0.968700 0.944530 -0.573528
O12   O     O_R   0.555440 0.531280 0.055440 -0.635754
O13   O     O_R   0.055460 0.968700 0.055470 -0.573547
O14   O     O_R   0.500010 0.531280 0.909540 -0.617436
O15   O     O_R   0.499990 0.531280 0.090460 -0.617761
O16   O     O_R   0.000010 0.031280 0.909540 -0.617928
O17   O     O_R   0.999990 0.031280 0.090460 -0.617887
O18   O     O_R   0.499990 0.468700 0.909520 -0.627027
O19   O     O_R   0.500010 0.468700 0.090480 -0.626743
O20   O     O_R   0.999990 0.968700 0.909520 -0.625935
O21   O     O_R   0.000010 0.968700 0.090480 -0.625881
O22   O     O_R   0.531280 0.444560 0.531260 -0.590948
O23   O     O_R   0.944560 0.031280 0.944560 -0.636183
O24   O     O_R   0.468720 0.444560 0.468740 -0.591749
O25   O     O_R   0.031280 0.944560 0.531260 -0.592538
O26   O     O_R   0.968720 0.944560 0.468740 -0.592490
O27   O     O_R   0.531280 0.499990 0.621740 -0.612603
O28   O     O_R   0.468720 0.499990 0.378260 -0.616503
O29   O     O_R   0.031280 0.999990 0.621740 -0.615132
O30   O     O_R   0.968720 0.999990 0.378260 -0.615229
O31   O     O_R   0.468680 0.499990 0.559140 -0.630061
O32   O     O_R   0.531320 0.499990 0.440860 -0.627545
O33   O     O_R   0.968680 0.999990 0.559140 -0.628696
O34   O     O_R   0.055440 0.031280 0.055440 -0.635839
O35   O     O_R   0.031320 0.999990 0.440860 -0.628704
O36   O     O_R   0.531300 0.555420 0.531300 -0.628976
O37   O     O_R   0.468700 0.555420 0.468700 -0.628703
O38   O     O_R   0.031300 0.055420 0.531300 -0.628973
O39   O     O_R   0.968700 0.055420 0.468700 -0.629162
O40   O     O_R   0.999980 0.444660 0.448930 -0.624405
O41   O     O_R   0.000020 0.444660 0.551070 -0.623100
O42   O     O_R   0.499980 0.944660 0.448930 -0.619202
O43   O     O_R   0.500020 0.944660 0.551070 -0.618672
O44   O     O_3   0.383195 0.448568 0.957266 -0.596588
O45   O     O_R   0.055440 0.500090 0.504360 -0.585926
O46   O     O_3   0.616976 0.447775 0.044608 -0.597210
O47   O     O_3   0.883921 0.948972 0.959626 -0.596167
O48   O     O_3   0.115856 0.948505 0.040378 -0.596894
O49   O     O_3   0.966415 0.692145 0.369426 -0.615275
O50   O     O_3   0.033315 0.692086 0.630473 -0.615024
O51   O     O_3   0.525647 0.193526 0.424354 -0.613493
O52   O     O_3   0.476778 0.191379 0.585166 -0.618974
O53   O     O_3   0.455182 0.384042 0.374089 -0.574027
O54   O     O_3   0.544658 0.386648 0.630663 -0.588551
O55   O     O_3   0.956469 0.885554 0.371516 -0.575893
O56   O     O_R   0.944560 0.500090 0.495640 -0.585371
O57   O     O_3   0.043582 0.885448 0.628440 -0.575873
O58   O     O_3   0.932443 0.386997 0.446974 -0.616484
O59   O     O_3   0.067425 0.386485 0.553597 -0.617394
O60   O     O_3   0.432034 0.887288 0.434219 -0.614238
O61   O     O_3   0.567763 0.887093 0.565116 -0.614266
O62   O     O_3   0.114299 0.550653 0.535686 -0.587076
O63   O     O_3   0.885561 0.549260 0.466498 -0.586260
O64   O     O_3   0.616117 0.029134 0.512610 -0.585135
O65   O     O_3   0.383638 0.028872 0.487131 -0.583943
O66   O     O_R   0.555440 0.000090 0.504360 -0.579167
O67   O     O_R   0.444560 0.000090 0.495640 -0.578492
O68   O     O_R   0.055430 0.500110 0.606490 -0.633042
Zn1   Zn    Zn3+2 0.500000 0.541780 0.000000 0.942190
Zn2   Zn    Zn3+2 0.000000 0.500080 0.568210 0.977765
Zn3   Zn    Zn3+2 0.500000 0.000080 0.431790 0.973854
Zn4   Zn    Zn3+2 0.500000 0.000080 0.568210 0.975457
Zn5   Zn    Zn3+2 0.000000 0.041780 0.000000 0.942415
Zn6   Zn    Zn3+2 0.500000 0.458200 0.000000 0.997950
Zn7   Zn    Zn3+2 1.000000 0.958200 0.000000 1.001551
Zn8   Zn    Zn3+2 0.541790 0.499990 0.541780 0.965605
Zn9   Zn    Zn3+2 0.458210 0.499990 0.458220 0.962434
Zn10  Zn    Zn3+2 0.041790 0.999990 0.541780 0.963594
Zn11  Zn    Zn3+2 0.958210 0.999990 0.458220 0.963327
Zn12  Zn    Zn3+2 0.000000 0.500080 0.431790 0.977118

loop_
_geom_bond_atom_site_label_1
_geom_bond_atom_site_label_2
_ccdc_geom_bond_type
C198  O68   A    
C21   C26   A    
C173  C188  A    
C133  C137  T    
C195  O38   A    
C101  C200  S    
C128  O23   A    
C174  H79   S    
C38   C181  A    
C105  H70   S    
C47   C195  S    
C154  C158  A    
C98   H47   S    
C76   H180  S    
C88   H23   S    
C201  O67   A    
C66   H157  S    
C41   O60   S    
C111  H87   S    
C115  H95   S    
C17   C39   A    
C202  O6    A    
H65   N11   S    
C191  O33   A    
C87   O55   S    
C6    H111  S    
C113  C122  A    
O15   Zn1   S    
C112  C155  S    
C13   C130  A    
C102  H58   S    
C67   H158  S    
C194  N8    S    
C106  H74   S    
C113  C201  S    
C53   C190  S    
C148  O17   A    
C108  H80   S    
O1    Zn1   S    
C117  N3    S    
C172  H135  S    
C200  O66   A    
C118  N4    S    
C114  H91   S    
O10   Zn6   S    
C118  H107  S    
C116  N2    S    
C30   C182  S    
C130  C134  S    
C19   C32   S    
C71   H168  S    
C77   H182  S    
C104  N11   S    
C165  C169  A    
C15   C20   T    
C146  C161  S    
C70   H163  S    
C171  C185  A    
C149  O44   S    
C164  C168  A    
C204  O49   S    
C54   C191  S    
O12   Zn1   S    
C97   H45   S    
C48   H119  S    
C87   H19   S    
C142  C151  A    
C74   H176  S    
C97   H43   S    
C115  N12   S    
C116  H98   S    
C42   O61   S    
C37   C181  A    
C85   O54   S    
C18   C197  S    
C86   H16   S    
C44   C173  S    
C10   C202  S    
O26   Zn11  S    
C129  C133  S    
C20   C33   S    
C182  O24   A    
O24   Zn9   S    
C80   H193  S    
C22   C27   A    
O9    Zn6   S    
C127  C194  A    
C50   C59   S    
C63   H147  S    
C96   H41   S    
C163  H35   S    
O42   Zn3   S    
O30   Zn11  S    
C111  O65   S    
C100  H53   S    
C67   O48   S    
C78   N1    S    
C69   H161  S    
C81   H196  S    
C72   C73   S    
O21   Zn7   S    
C162  H24   S    
O11   Zn7   S    
C119  C123  A    
C114  H88   S    
C24   N11   S    
C8    H113  S    
C115  H93   S    
O34   Zn5   S    
C64   H150  S    
C22   N5    S    
C73   H172  S    
C87   H20   S    
C175  C186  A    
C75   H177  S    
C24   C131  A    
O5    Zn12  S    
C49   C53   D    
C61   O44   S    
C69   H160  S    
C61   H141  S    
C51   C55   D    
C52   C189  S    
C4    C14   A    
C1    C154  S    
O28   Zn9   S    
C104  H67   S    
C184  O25   A    
C128  C156  S    
C142  C168  A    
C9    H114  S    
C66   H156  S    
C48   C52   D    
C117  H102  S    
C139  C157  S    
C114  H89   S    
C98   C99   S    
H92   N12   S    
C179  C181  S    
O32   Zn8   S    
C157  C162  A    
C137  C168  S    
C71   H166  S    
C77   H184  S    
C21   N1    S    
C76   H181  S    
C160  H13   S    
C1    O9    A    
C112  O10   A    
C146  O19   A    
C198  O45   A    
C85   C86   S    
C5    C9    A    
C177  C188  A    
C22   C32   A    
C195  O39   A    
O66   Zn3   S    
C74   H174  S    
C23   N6    S    
C2    N9    S    
C193  O37   A    
C45   C175  A    
C68   H140  S    
C189  O27   A    
C13   C57   A    
C151  O46   S    
C7    H112  S    
C2    C129  A    
C4    O51   S    
C89   O57   S    
C45   C174  A    
C92   C93   S    
C35   C194  A    
C3    O50   S    
C53   H125  S    
C182  O22   A    
C65   H152  S    
C93   H33   S    
C203  O8    A    
H96   N2    S    
C107  C108  S    
C141  H142  S    
C89   C91   S    
C145  C150  S    
C1    O1    A    
H56   N9    S    
C100  H55   S    
C79   C198  S    
C186  H109  S    
C5    O52   S    
C29   C31   A    
C67   H159  S    
O3    Zn4   S    
O38   Zn10  S    
C107  H76   S    
C34   H115  S    
C26   O53   S    
C93   H32   S    
C155  C159  A    
C34   C39   A    
C152  C156  A    
C156  C160  A    
C192  O35   A    
C190  O32   A    
C105  O62   S    
C98   O61   S    
C44   C178  T    
C43   C171  S    
O67   Zn4   S    
C90   C199  S    
C78   H188  S    
C61   H143  S    
C91   H27   S    
C90   C120  A    
C85   H14   S    
O22   Zn8   S    
C148  O21   A    
C56   H128  S    
C9    C11   A    
C123  C127  A    
C83   C84   S    
C159  C164  A    
C117  H104  S    
C132  C136  T    
O8    Zn4   S    
C23   C28   A    
O31   Zn9   S    
O17   Zn5   S    
C158  C163  A    
C109  H82   S    
C110  H85   S    
H61   N10   S    
C166  C170  A    
C151  C155  A    
C56   C150  D    
C81   N6    S    
C112  O12   A    
C147  C172  S    
C197  O43   A    
C173  C187  A    
C47   C176  A    
C122  O65   S    
O68   Zn2   S    
C72   H169  S    
C84   H11   S    
C26   C30   A    
C136  C167  S    
C57   C101  A    
C95   H40   S    
O4    Zn3   S    
C81   H3    S    
C153  O48   S    
C82   H5    S    
C80   H192  S    
C98   H48   S    
C51   H123  S    
C65   H154  S    
C148  C183  S    
C104  H69   S    
C35   C79   A    
C165  H57   S    
C12   C204  A    
C37   C41   A    
C61   C62   S    
C104  H66   S    
C63   C64   S    
C196  O40   A    
C175  H90   S    
C147  O20   A    
C17   C196  S    
C51   C60   S    
O27   Zn8   S    
C108  H77   S    
C25   C33   A    
C82   H6    S    
C7    C10   A    
C87   C88   S    
C52   H124  S    
C118  H108  S    
C31   C184  S    
C34   C180  A    
C36   C180  A    
C71   H167  S    
C164  H46   S    
C102  N9    S    
C43   C179  T    
C50   C54   D    
C94   H37   S    
C199  O56   A    
C99   H50   S    
C3    C7    A    
C174  C185  A    
C144  C170  A    
C48   C56   S    
C39   O58   S    
C183  H136  S    
C162  C166  A    
C110  H83   S    
C62   H145  S    
C79   C119  A    
C70   C71   S    
C86   H17   S    
C89   H26   S    
O23   Zn5   S    
C83   H8    S    
C193  O36   A    
C68   C113  A    
C75   H178  S    
C60   C183  D    
C50   H122  S    
C109  O64   S    
C25   C29   A    
C120  O63   S    
O7    Zn3   S    
C40   O59   S    
C96   H42   S    
O6    Zn2   S    
C139  O13   A    
C45   C193  S    
C135  C140  T    
C100  H54   S    
C141  C167  A    
C105  H71   S    
C38   H118  S    
C81   H195  S    
C106  H72   S    
O45   Zn12  S    
C36   H116  S    
C101  C121  A    
C76   O52   S    
C62   H144  S    
C46   H138  S    
C17   C40   A    
C202  O5    A    
C149  C154  A    
C6    C204  A    
C73   H171  S    
C63   O46   S    
C119  O62   S    
C161  H134  S    
C12   C15   S    
C139  O34   A    
C106  H73   S    
C11   C203  S    
C160  C165  A    
C145  O18   A    
C28   O55   S    
C5    C14   A    
C184  O26   A    
C94   H36   S    
C143  C152  A    
C118  H106  S    
C102  H60   S    
H185  N1    S    
C190  O28   A    
C59   C172  D    
C150  H133  S    
C176  C187  A    
C77   H183  S    
C91   H29   S    
C142  H153  S    
C140  C170  S    
C58   H129  S    
C54   H126  S    
C166  H68   S    
C28   C31   A    
C6    C10   A    
H4    N7    S    
C178  C180  S    
C46   C90   A    
C105  C106  S    
C92   H31   S    
C131  C135  S    
C171  C186  A    
C55   C192  S    
C18   C42   A    
C49   H121  S    
C109  C110  S    
C201  O4    A    
C200  O3    A    
C116  H97   S    
C16   C19   T    
C59   H130  S    
C176  H101  S    
C124  C129  A    
C111  C114  S    
C123  N12   S    
C70   H165  S    
C153  C157  A    
C94   C95   S    
C24   C68   A    
C95   H38   S    
C203  O7    A    
C72   O50   S    
C62   H146  S    
C58   C161  D    
C57   H139  S    
C63   H148  S    
H52   N8    S    
C191  O29   A    
C78   H189  S    
C69   H162  S    
C103  N10   S    
C29   O57   S    
C65   O47   S    
C4    C8    A    
C107  H75   S    
C97   H44   S    
C141  C149  A    
C2    C46   A    
O35   Zn10  S    
C83   O53   S    
C111  H86   S    
C115  H94   S    
C107  O63   S    
C64   H149  S    
C38   C42   A    
C73   H173  S    
C121  O64   S    
O13   Zn7   S    
H100  N3    S    
C147  O16   A    
C103  H62   S    
C144  C153  A    
C145  O14   A    
C60   H132  S    
C36   C40   A    
C99   H51   S    
C3    C12   A    
O2    Zn12  S    
C121  C125  A    
C127  C132  S    
C125  C130  A    
C117  H103  S    
C196  O41   A    
C23   C33   A    
C188  H131  S    
C80   H191  S    
O43   Zn4   S    
C96   O60   S    
C25   N7    S    
C109  H81   S    
O41   Zn2   S    
O29   Zn10  S    
O19   Zn6   S    
C27   C30   A    
C35   H137  S    
O39   Zn11  S    
C66   H155  S    
O37   Zn9   S    
C83   H9    S    
C144  H175  S    
C84   H10   S    
C75   H179  S    
H190  N5    S    
C197  O42   A    
C21   C32   A    
C88   H22   S    
C13   N10   S    
C74   C75   S    
C185  H1    S    
C99   H49   S    
C76   C77   S    
C143  C169  A    
C18   C41   A    
C72   H170  S    
C199  O2    A    
C158  H186  S    
O40   Zn12  S    
C116  H99   S    
C103  H64   S    
O20   Zn7   S    
H105  N4    S    
C100  N8    S    
C49   C58   S    
C67   C69   S    
C122  C126  A    
C163  C167  A    
O25   Zn10  S    
C88   H21   S    
C93   H34   S    
C96   C97   S    
C70   O49   S    
O18   Zn6   S    
C94   O59   S    
C14   C16   S    
C108  H78   S    
C159  H2    S    
C82   H7    S    
O36   Zn8   S    
C102  H59   S    
C64   H151  S    
C192  O30   A    
C177  H110  S    
C37   H117  S    
C134  C138  T    
C128  O11   A    
O16   Zn5   S    
C152  O47   S    
C92   O58   S    
C187  H120  S    
C78   H187  S    
C82   N7    S    
C91   H28   S    
C55   H127  S    
H194  N6    S    
C85   H15   S    
O56   Zn2   S    
C47   C177  A    
C146  O15   A    
C126  C131  A    
C8    C11   A    
C143  H164  S    
C92   H30   S    
C74   O51   S    
C80   N5    S    
O33   Zn11  S    
C103  H63   S    
C120  C124  A    
C189  O31   A    
C110  H84   S    
C65   C66   S    
C125  N3    S    
O14   Zn1   S    
C126  N4    S    
C86   H18   S    
C89   H25   S    
C124  N2    S    
C27   O54   S    
C84   H12   S    
C95   H39   S    
C138  C169  S    
