data_mof_unit_60434.cif
_audit_creation_date              2012-12-10T19:03:12-0500
_audit_creation_method            fapswitch 2.2
_symmetry_space_group_name_H-M    P1
_symmetry_Int_Tables_number       1
_space_group_crystal_system       triclinic
_cell_length_a                    30.264665
_cell_length_b                    30.264938
_cell_length_c                    38.722688
_cell_angle_alpha                 89.974167
_cell_angle_beta                  90.002697
_cell_angle_gamma                 90.076127
_cell_volume                      35468.3290292

loop_
_atom_site_label
_atom_site_type_symbol
_atom_type_description
_atom_site_fract_x
_atom_site_fract_y
_atom_site_fract_z
_atom_type_partial_charge
C1    C     C_R   0.086103 0.500025 0.499989 0.862990
C2    C     C_R   0.499922 0.913840 0.499903 0.864633
C3    C     C_R   0.913897 0.499971 0.500012 0.860412
C4    C     C_R   0.500077 0.086160 0.499906 0.864597
C5    C     C_R   0.586160 0.000078 0.000096 0.864025
C6    C     C_R   0.999973 0.413898 0.999994 0.863332
C7    C     C_R   0.413840 0.999922 0.000097 0.863999
C8    C     C_R   0.000026 0.586105 0.000009 0.860180
C9    C     C_R   0.134037 0.500078 0.499975 -0.347037
C10   C     C_R   0.499686 0.865822 0.500296 -0.354482
C11   C     C_R   0.865962 0.499904 0.499993 -0.346189
C12   C     C_R   0.500313 0.134177 0.500321 -0.354471
C13   C     C_R   0.634177 0.000315 0.999693 -0.353872
C14   C     C_R   0.999912 0.365966 0.999998 -0.347256
C15   C     C_R   0.365823 0.999686 0.999696 -0.353853
C16   C     C_R   0.000082 0.634041 0.000041 -0.346245
C17   C     C_R   0.225805 0.500146 0.499982 -0.093360
C18   C     C_R   0.500491 0.774062 0.500746 -0.092923
C19   C     C_R   0.774192 0.499915 0.499991 -0.092814
C20   C     C_R   0.499516 0.225937 0.500818 -0.092972
C21   C     C_R   0.725938 0.999517 0.999219 -0.092061
C22   C     C_R   0.999891 0.274199 0.999971 -0.093470
C23   C     C_R   0.274063 0.000488 0.999228 -0.091996
C24   C     C_R   0.000132 0.725809 0.000065 -0.092691
C25   C     C_R   0.296833 0.466015 0.517462 -0.091717
C26   C     C_R   0.468491 0.702978 0.520311 -0.091536
C27   C     C_R   0.703154 0.534113 0.517346 -0.091481
C28   C     C_R   0.531502 0.297009 0.520378 -0.091561
C29   C     C_R   0.296978 0.534212 0.482560 -0.091565
C30   C     C_R   0.467117 0.296828 0.481304 -0.091505
C31   C     C_R   0.703025 0.465777 0.482655 -0.091524
C32   C     C_R   0.532860 0.703182 0.481226 -0.091608
C33   C     C_R   0.796824 0.967122 0.018736 -0.091663
C34   C     C_R   0.965817 0.203025 0.017396 -0.091911
C35   C     C_R   0.203177 0.032867 0.018734 -0.091706
C36   C     C_R   0.034108 0.796972 0.017577 -0.091619
C37   C     C_R   0.797015 0.031522 0.979657 -0.091274
C38   C     C_R   0.966068 0.796837 0.982504 -0.091511
C39   C     C_R   0.202985 0.968496 0.979673 -0.091185
C40   C     C_R   0.034005 0.203169 0.982510 -0.091369
C41   C     C_R   0.343330 0.467127 0.518444 0.313181
C42   C     C_R   0.469304 0.656507 0.520737 0.315202
C43   C     C_R   0.656656 0.532987 0.518335 0.312909
C44   C     C_R   0.530687 0.343481 0.520790 0.315302
C45   C     C_R   0.343470 0.533013 0.481568 0.313028
C46   C     C_R   0.468595 0.343286 0.480052 0.314512
C47   C     C_R   0.656532 0.466948 0.481669 0.313012
C48   C     C_R   0.531381 0.656725 0.479989 0.314534
C49   C     C_R   0.843282 0.968598 0.019979 0.314408
C50   C     C_R   0.967008 0.156533 0.018397 0.313281
C51   C     C_R   0.156719 0.031389 0.019976 0.314437
C52   C     C_R   0.032916 0.843464 0.018546 0.313061
C53   C     C_R   0.843487 0.030704 0.979236 0.314924
C54   C     C_R   0.967188 0.843333 0.981512 0.312919
C55   C     C_R   0.156514 0.969311 0.979250 0.314823
C56   C     C_R   0.032879 0.156672 0.981532 0.312931
C57   C     C_R   0.365846 0.500045 0.500000 -0.128456
C58   C     C_R   0.500140 0.634157 0.500133 -0.131264
C59   C     C_R   0.634150 0.499980 0.500001 -0.128367
C60   C     C_R   0.499847 0.365842 0.500179 -0.131237
C61   C     C_R   0.865843 0.999854 0.999842 -0.131156
C62   C     C_R   0.999964 0.134156 0.999975 -0.128522
C63   C     C_R   0.134158 0.000147 0.999847 -0.131201
C64   C     C_R   0.000034 0.865845 0.000024 -0.128561
C65   C     C_R   0.274078 0.500132 0.500010 0.037022
C66   C     C_R   0.500797 0.725856 0.500926 0.036785
C67   C     C_R   0.725917 0.499935 0.499998 0.037061
C68   C     C_R   0.499192 0.274142 0.501002 0.036792
C69   C     C_R   0.774143 0.999203 0.999038 0.036765
C70   C     C_R   0.999898 0.225925 0.999952 0.037008
C71   C     C_R   0.225857 0.000801 0.999046 0.036744
C72   C     C_R   0.000106 0.774080 0.000046 0.037018
C73   C     C_R   0.500019 0.586302 0.500009 1.047223
C74   C     C_R   0.586297 0.500003 0.500000 1.048455
C75   C     C_R   0.499979 0.413698 0.500023 1.047237
C76   C     C_R   0.413701 0.500004 0.499999 1.048180
C77   C     C_R   0.999999 0.086299 0.999993 1.048235
C78   C     C_R   0.086302 0.000021 0.999985 1.047146
C79   C     C_R   0.000002 0.913701 0.000007 1.048051
C80   C     C_R   0.913698 0.999980 0.999983 1.047173
C81   C     C_R   0.000026 0.500015 0.432768 0.813263
C82   C     C_R   0.499999 1.000000 0.432921 0.826279
C83   C     C_R   0.999852 0.499986 0.567230 0.813564
C84   C     C_R   0.500001 0.000001 0.567185 0.817710
C85   C     C_R   0.500000 0.000009 0.932811 0.816505
C86   C     C_R   0.999993 0.500024 0.932768 0.813330
C87   C     C_R   0.500000 0.999991 0.067079 0.825716
C88   C     C_R   0.999996 0.500147 0.067230 0.813527
C89   C     C_R   0.030748 0.527305 0.376957 0.391379
C90   C     C_R   0.503136 0.959493 0.377309 0.376554
C91   C     C_R   0.969853 0.473421 0.376492 0.390031
C92   C     C_R   0.496863 0.040491 0.377272 0.376606
C93   C     C_R   0.028283 0.473133 0.623927 0.376900
C94   C     C_R   0.523986 0.032852 0.623081 0.376431
C95   C     C_R   0.966658 0.525936 0.622547 0.391706
C96   C     C_R   0.476020 0.967173 0.623112 0.376439
C97   C     C_R   0.532144 0.024953 0.876876 0.389646
C98   C     C_R   0.026528 0.469835 0.876505 0.390041
C99   C     C_R   0.467838 0.975120 0.876885 0.389652
C100  C     C_R   0.972817 0.530740 0.876945 0.391395
C101  C     C_R   0.540493 0.996820 0.122713 0.376636
C102  C     C_R   0.026029 0.533375 0.122534 0.391593
C103  C     C_R   0.459496 0.003109 0.122705 0.376609
C104  C     C_R   0.973130 0.471690 0.123934 0.376879
C105  C     C_R   0.029610 0.529125 0.340763 -0.076764
C106  C     C_R   0.500591 0.959383 0.341170 -0.062568
C107  C     C_R   0.970779 0.472958 0.340253 -0.069167
C108  C     C_R   0.499395 0.040588 0.341132 -0.062613
C109  C     C_R   0.025071 0.471027 0.660086 -0.067501
C110  C     C_R   0.525337 0.031794 0.659310 -0.068315
C111  C     C_R   0.965734 0.526412 0.658762 -0.078188
C112  C     C_R   0.474668 0.968248 0.659339 -0.068290
C113  C     C_R   0.531362 0.025931 0.840660 -0.069882
C114  C     C_R   0.027000 0.470747 0.840266 -0.069101
C115  C     C_R   0.468619 0.974160 0.840670 -0.069857
C116  C     C_R   0.970998 0.529587 0.840752 -0.076723
C117  C     C_R   0.540595 0.999352 0.158852 -0.062641
C118  C     C_R   0.026521 0.534307 0.158749 -0.078254
C119  C     C_R   0.459390 0.000564 0.158846 -0.062582
C120  C     C_R   0.971046 0.474905 0.160091 -0.067589
C121  C     C_R   0.000056 0.501470 0.322488 -0.249741
C122  C     C_R   0.499991 0.999981 0.322900 -0.250273
C123  C     C_R   0.994189 0.498094 0.677471 -0.239346
C124  C     C_R   0.500002 0.000026 0.677419 -0.243061
C125  C     C_R   0.499992 0.000047 0.822632 -0.253889
C126  C     C_R   0.998570 0.500019 0.822489 -0.249704
C127  C     C_R   0.499991 0.999957 0.177100 -0.250268
C128  C     C_R   0.998167 0.505823 0.177467 -0.239421
C129  C     C_R   0.000262 0.500143 0.394919 -0.285920
C130  C     C_R   0.499999 0.999995 0.395337 -0.261400
C131  C     C_R   0.998438 0.499884 0.605060 -0.279937
C132  C     C_R   0.500003 0.000008 0.604950 -0.274706
C133  C     C_R   0.499993 0.000030 0.895035 -0.284996
C134  C     C_R   0.999886 0.500253 0.894919 -0.285880
C135  C     C_R   0.499996 0.999970 0.104662 -0.261235
C136  C     C_R   0.999919 0.501562 0.105058 -0.279951
C137  C     C_R   0.999618 0.505323 0.215233 0.401018
C138  C     C_R   0.499989 0.999961 0.215109 0.414854
C139  C     C_R   0.997413 0.499549 0.784782 0.416360
C140  C     C_R   0.499999 0.000044 0.784895 0.429807
C141  C     C_R   0.500002 0.000033 0.715288 0.439938
C142  C     C_R   0.994704 0.499541 0.715237 0.400907
C143  C     C_R   0.499989 0.999974 0.284891 0.414853
C144  C     C_R   0.999605 0.502626 0.284780 0.416447
C145  C     C_R   0.203436 0.525991 0.524308 0.447056
C146  C     C_R   0.529310 0.796854 0.522682 0.445632
C147  C     C_R   0.796537 0.474065 0.524348 0.446535
C148  C     C_R   0.470712 0.203104 0.522753 0.445709
C149  C     C_R   0.203408 0.474279 0.475645 0.446327
C150  C     C_R   0.528961 0.204105 0.478838 0.445622
C151  C     C_R   0.796612 0.525738 0.475622 0.445999
C152  C     C_R   0.471031 0.795933 0.478786 0.445676
C153  C     C_R   0.704086 0.028954 0.021191 0.445715
C154  C     C_R   0.025710 0.296586 0.024347 0.446986
C155  C     C_R   0.295918 0.971031 0.021203 0.445705
C156  C     C_R   0.974110 0.703384 0.024299 0.446430
C157  C     C_R   0.703124 0.970720 0.977282 0.444606
C158  C     C_R   0.026149 0.703473 0.975831 0.446130
C159  C     C_R   0.296873 0.029305 0.977285 0.444605
C160  C     C_R   0.974065 0.296579 0.975618 0.446558
C161  C     C_R   0.157128 0.524836 0.525302 0.313304
C162  C     C_R   0.527818 0.843117 0.523595 0.312782
C163  C     C_R   0.842849 0.475144 0.525329 0.311951
C164  C     C_R   0.472200 0.156838 0.523643 0.312729
C165  C     C_R   0.157102 0.475351 0.474651 0.311576
C166  C     C_R   0.528634 0.157829 0.477620 0.319961
C167  C     C_R   0.842917 0.524627 0.474637 0.312112
C168  C     C_R   0.471351 0.842212 0.477592 0.319968
C169  C     C_R   0.657809 0.028627 0.022398 0.319844
C170  C     C_R   0.024596 0.342889 0.025357 0.313205
C171  C     C_R   0.342196 0.971353 0.022406 0.319835
C172  C     C_R   0.975181 0.657078 0.025281 0.311999
C173  C     C_R   0.656859 0.972210 0.976381 0.310816
C174  C     C_R   0.025020 0.657167 0.974821 0.312109
C175  C     C_R   0.343137 0.027814 0.976382 0.310805
C176  C     C_R   0.975193 0.342889 0.974636 0.311593
N1    N     N_R   0.017645 0.469110 0.266391 -0.116708
N2    N     N_R   0.472558 0.027127 0.267136 -0.122341
N3    N     N_R   0.981235 0.537319 0.267969 -0.098501
N4    N     N_R   0.527419 0.972813 0.267163 -0.122272
N5    N     N_R   0.961507 0.480854 0.733684 -0.054395
N6    N     N_R   0.511256 0.963040 0.732981 -0.118482
N7    N     N_R   0.029624 0.517585 0.732056 -0.140303
N8    N     N_R   0.488747 0.037033 0.732946 -0.118341
N9    N     N_R   0.511169 0.963015 0.767300 -0.115321
N10   N     N_R   0.962691 0.481131 0.767996 -0.098380
N11   N     N_R   0.488830 0.037068 0.767265 -0.115181
N12   N     N_R   0.030952 0.517624 0.766370 -0.116573
N13   N     N_R   0.472837 0.027399 0.232837 -0.122311
N14   N     N_R   0.017616 0.470432 0.232076 -0.140417
N15   N     N_R   0.527141 0.972529 0.232865 -0.122299
N16   N     N_R   0.980968 0.538496 0.233656 -0.054502
O1    O     O_R   0.065410 0.463110 0.500070 -0.591440
O2    O     O_R   0.463110 0.934590 0.500070 -0.595611
O3    O     O_R   0.934590 0.536890 0.500070 -0.591323
O4    O     O_R   0.536890 0.065410 0.500070 -0.595588
O5    O     O_R   0.065410 0.536890 0.499930 -0.591275
O6    O     O_R   0.463110 0.065410 0.499930 -0.589338
O7    O     O_R   0.934590 0.463110 0.499930 -0.592146
O8    O     O_R   0.536890 0.934590 0.499930 -0.589350
O9    O     O_R   0.565410 0.963110 0.000070 -0.589117
O10   O     O_R   0.963110 0.434590 0.000070 -0.591495
O11   O     O_R   0.434590 0.036890 0.000070 -0.589111
O12   O     O_R   0.036890 0.565410 0.000070 -0.591634
O13   O     O_R   0.565410 0.036890 0.999930 -0.595417
O14   O     O_R   0.963110 0.565410 0.999930 -0.591223
O15   O     O_R   0.434590 0.963110 0.999930 -0.595465
O16   O     O_R   0.036890 0.434590 0.999930 -0.591683
O17   O     O_R   0.999940 0.463110 0.449140 -0.589101
O18   O     O_R   0.463110 0.000060 0.449140 -0.603038
O19   O     O_R   0.000060 0.536890 0.449140 -0.587426
O20   O     O_R   0.536890 0.999940 0.449140 -0.603002
O21   O     O_R   0.999940 0.536890 0.550860 -0.587569
O22   O     O_R   0.463110 0.999940 0.550860 -0.590368
O23   O     O_R   0.000060 0.463110 0.550860 -0.591111
O24   O     O_R   0.536890 0.000060 0.550860 -0.590411
O25   O     O_R   0.499940 0.963110 0.949140 -0.588305
O26   O     O_R   0.963110 0.500060 0.949140 -0.587382
O27   O     O_R   0.500060 0.036890 0.949140 -0.588368
O28   O     O_R   0.036890 0.499940 0.949140 -0.589163
O29   O     O_R   0.499940 0.036890 0.050860 -0.603078
O30   O     O_R   0.963110 0.499940 0.050860 -0.591160
O31   O     O_R   0.500060 0.963110 0.050860 -0.603200
O32   O     O_R   0.036890 0.500060 0.050860 -0.587562
O33   O     O_R   0.499920 0.565550 0.471320 -0.595154
O34   O     O_R   0.565550 0.500080 0.471320 -0.598492
O35   O     O_R   0.500080 0.434450 0.471320 -0.595163
O36   O     O_R   0.434450 0.499920 0.471320 -0.598432
O37   O     O_R   0.499920 0.434450 0.528680 -0.595821
O38   O     O_R   0.565550 0.499920 0.528680 -0.598189
O39   O     O_R   0.500080 0.565550 0.528680 -0.595858
O40   O     O_R   0.434450 0.500080 0.528680 -0.597961
O41   O     O_R   0.999920 0.065550 0.971320 -0.598247
O42   O     O_R   0.065550 0.000080 0.971320 -0.596075
O43   O     O_R   0.000080 0.934450 0.971320 -0.598106
O44   O     O_R   0.934450 0.999920 0.971320 -0.596079
O45   O     O_R   0.999920 0.934450 0.028680 -0.598166
O46   O     O_R   0.065550 0.999920 0.028680 -0.595028
O47   O     O_R   0.000080 0.065550 0.028680 -0.598160
O48   O     O_R   0.934450 0.000080 0.028680 -0.595001
Zn1   Zn    Zn3+2 0.000000 0.450710 0.500000 1.085283
Zn2   Zn    Zn3+2 0.450710 0.000000 0.500000 1.075310
Zn3   Zn    Zn3+2 0.000000 0.549290 0.500000 1.089996
Zn4   Zn    Zn3+2 0.549290 0.000000 0.500000 1.075305
Zn5   Zn    Zn3+2 0.500000 0.950710 0.000000 1.077720
Zn6   Zn    Zn3+2 0.950710 0.500000 0.000000 1.086647
Zn7   Zn    Zn3+2 0.500000 0.049290 0.000000 1.077856
Zn8   Zn    Zn3+2 0.049290 0.500000 0.000000 1.088686
Zn9   Zn    Zn3+2 0.500000 0.500000 0.461670 1.124475
Zn10  Zn    Zn3+2 0.500000 0.500000 0.538330 1.124838
Zn11  Zn    Zn3+2 0.000000 0.000000 0.961670 1.123759
Zn12  Zn    Zn3+2 0.000000 0.000000 0.038330 1.124997
O49   O     O_3   0.063107 0.551381 0.393862 -0.681531
H1    H     H_    0.070459 0.536905 0.416039 0.333241
O50   O     O_3   0.506494 0.919224 0.394105 -0.703194
H2    H     H_    0.517424 0.923566 0.417915 0.328944
O51   O     O_3   0.937625 0.448667 0.392961 -0.681472
H3    H     H_    0.930289 0.462326 0.415441 0.334297
O52   O     O_3   0.493521 0.080768 0.394031 -0.703133
H4    H     H_    0.482625 0.076437 0.417854 0.328907
O53   O     O_3   0.060451 0.448034 0.607829 -0.682583
H5    H     H_    0.069126 0.462324 0.585858 0.338633
O54   O     O_3   0.547307 0.065856 0.606262 -0.687544
H6    H     H_    0.533897 0.071608 0.583405 0.336158
O55   O     O_3   0.935145 0.550473 0.605130 -0.684448
H7    H     H_    0.928914 0.536705 0.582484 0.333595
O56   O     O_3   0.452701 0.934161 0.606322 -0.687551
H8    H     H_    0.466116 0.928396 0.583473 0.336160
O57   O     O_3   0.565835 0.047433 0.893565 -0.684545
H9    H     H_    0.571413 0.033991 0.916436 0.332188
O58   O     O_3   0.051191 0.437610 0.892989 -0.681517
H10   H     H_    0.037514 0.430289 0.915480 0.334168
O59   O     O_3   0.434147 0.952635 0.893582 -0.684572
H11   H     H_    0.428569 0.966070 0.916446 0.332181
O60   O     O_3   0.948835 0.563113 0.893835 -0.681649
H12   H     H_    0.963332 0.570470 0.916003 0.333269
O61   O     O_3   0.580767 0.993464 0.105940 -0.703106
H13   H     H_    0.576429 0.982555 0.082125 0.328930
O62   O     O_3   0.050605 0.564914 0.105106 -0.684533
H14   H     H_    0.036844 0.571115 0.082450 0.333548
O63   O     O_3   0.419224 0.006469 0.105925 -0.703131
H15   H     H_    0.423563 0.017382 0.082105 0.328932
O64   O     O_3   0.947971 0.439494 0.107846 -0.682533
H16   H     H_    0.962220 0.430848 0.085869 0.338641
C177  C     C_2   0.061051 0.559082 0.322462 1.029930
O65   O     O_2   0.079269 0.547152 0.295864 -0.600786
O66   O     O_R   0.070193 0.600938 0.336012 -0.701944
H17   H     H_    0.092102 0.618129 0.321430 0.362275
C178  C     C_2   0.497289 0.916125 0.323070 1.038812
O67   O     O_2   0.469559 0.910664 0.300484 -0.586213
O68   O     O_R   0.525374 0.881420 0.332305 -0.708513
H18   H     H_    0.519736 0.853683 0.318300 0.361760
C179  C     C_2   0.939237 0.443692 0.321419 1.021922
O69   O     O_2   0.920622 0.456707 0.295298 -0.603535
O70   O     O_R   0.930426 0.401237 0.333950 -0.705020
H19   H     H_    0.908397 0.384599 0.319101 0.358665
C180  C     C_2   0.502693 0.083838 0.322992 1.038826
O71   O     O_2   0.530418 0.089290 0.300398 -0.586094
O72   O     O_R   0.474610 0.118546 0.332196 -0.708608
H20   H     H_    0.480244 0.146278 0.318165 0.361743
C181  C     C_2   0.054832 0.440755 0.679669 1.018561
O73   O     O_2   0.093390 0.436260 0.670899 -0.527348
O74   O     O_R   0.038655 0.417201 0.708077 -0.764228
H21   H     H_    0.062024 0.397966 0.719271 0.376076
C182  C     C_2   0.554051 0.063894 0.678017 1.020774
O75   O     O_2   0.555358 0.102599 0.668967 -0.528131
O76   O     O_R   0.579920 0.049702 0.705818 -0.767292
H22   H     H_    0.597804 0.074542 0.716483 0.371534
C183  C     C_2   0.934934 0.557529 0.676346 1.030715
O77   O     O_2   0.913216 0.545596 0.701273 -0.590277
O78   O     O_R   0.930231 0.600587 0.663753 -0.707068
H23   H     H_    0.908247 0.618592 0.677592 0.362407
C184  C     C_2   0.445952 0.936157 0.678075 1.020723
O79   O     O_2   0.444644 0.897448 0.669063 -0.528309
O80   O     O_R   0.420082 0.950363 0.705859 -0.767237
H24   H     H_    0.402197 0.925529 0.716548 0.371478
C185  C     C_2   0.565262 0.052739 0.822094 1.021761
O81   O     O_2   0.583290 0.038254 0.796202 -0.597931
O82   O     O_R   0.576981 0.094474 0.834622 -0.705688
H25   H     H_    0.600414 0.109385 0.819957 0.358115
C186  C     C_2   0.056186 0.439198 0.821445 1.021916
O83   O     O_2   0.043129 0.420580 0.795334 -0.603518
O84   O     O_R   0.098612 0.430385 0.833977 -0.705056
H26   H     H_    0.115195 0.408351 0.819136 0.358547
C187  C     C_2   0.434716 0.947363 0.822113 1.021712
O85   O     O_2   0.416691 0.961860 0.796212 -0.597910
O86   O     O_R   0.422992 0.905624 0.834658 -0.705820
H27   H     H_    0.399558 0.890721 0.819998 0.358017
C188  C     C_2   0.941128 0.561023 0.822437 1.029868
O87   O     O_2   0.953108 0.579221 0.795821 -0.600880
O88   O     O_R   0.899300 0.570182 0.835996 -0.702051
H28   H     H_    0.882169 0.592085 0.821404 0.362137
C189  C     C_2   0.583849 0.002639 0.176974 1.038932
O89   O     O_2   0.589313 0.030366 0.199554 -0.586028
O90   O     O_R   0.618549 0.974546 0.167767 -0.708488
H29   H     H_    0.646285 0.980175 0.181784 0.361828
C190  C     C_2   0.057690 0.565147 0.176325 1.030616
O91   O     O_2   0.045803 0.586843 0.201250 -0.590279
O92   O     O_R   0.100746 0.569913 0.163729 -0.707033
H30   H     H_    0.118789 0.591920 0.177562 0.362507
C191  C     C_2   0.416134 0.997269 0.176964 1.038804
O93   O     O_2   0.410673 0.969542 0.199564 -0.586206
O94   O     O_R   0.381431 0.025356 0.167733 -0.708550
H31   H     H_    0.353694 0.019723 0.181751 0.361730
C192  C     C_2   0.940738 0.445112 0.179682 1.018605
O95   O     O_2   0.936189 0.406544 0.170931 -0.527230
O96   O     O_R   0.917211 0.461269 0.208074 -0.764239
H32   H     H_    0.897945 0.437878 0.219276 0.376181
O97   O     O_3   0.228178 0.550536 0.547491 -0.699296
H33   H     H_    0.208501 0.568466 0.562293 0.404805
O98   O     O_3   0.557075 0.772567 0.543821 -0.699390
H34   H     H_    0.576870 0.792560 0.556854 0.404085
O99   O     O_3   0.771766 0.449560 0.547557 -0.700108
H35   H     H_    0.791419 0.431647 0.562406 0.404599
O100  O     O_3   0.442960 0.227352 0.543912 -0.699108
H36   H     H_    0.423175 0.207335 0.556943 0.404203
O101  O     O_3   0.228127 0.449763 0.452472 -0.700938
H37   H     H_    0.208433 0.431823 0.437650 0.404099
O102  O     O_3   0.556389 0.229376 0.458064 -0.700222
H38   H     H_    0.576484 0.210116 0.444702 0.406799
O103  O     O_3   0.771916 0.550244 0.452407 -0.700604
H39   H     H_    0.791626 0.568144 0.437557 0.404334
O104  O     O_3   0.443590 0.770700 0.458011 -0.700173
H40   H     H_    0.423488 0.789984 0.444661 0.406798
O105  O     O_3   0.729339 0.056374 0.041968 -0.699929
H41   H     H_    0.710067 0.076459 0.055328 0.406930
O106  O     O_3   0.050205 0.271861 0.047550 -0.699748
H42   H     H_    0.068123 0.291553 0.062389 0.404613
O107  O     O_3   0.270668 0.943593 0.041985 -0.700145
H43   H     H_    0.289942 0.923495 0.055348 0.406808
O108  O     O_3   0.949438 0.728075 0.047392 -0.700444
H44   H     H_    0.931408 0.708364 0.062146 0.404388
O109  O     O_3   0.727391 0.942976 0.956132 -0.700512
H45   H     H_    0.707386 0.923195 0.943098 0.403628
O110  O     O_3   0.050844 0.728247 0.952748 -0.700708
H46   H     H_    0.068875 0.708593 0.938001 0.404172
O111  O     O_3   0.272602 0.057068 0.956131 -0.700504
H47   H     H_    0.292606 0.076862 0.943095 0.403641
O112  O     O_3   0.949556 0.271845 0.952406 -0.700325
H48   H     H_    0.931631 0.291526 0.937586 0.404390
O113  O     O_3   0.135791 0.547492 0.551473 -0.721071
H49   H     H_    0.106591 0.533935 0.555944 0.342905
O114  O     O_3   0.553353 0.864898 0.547857 -0.718405
H50   H     H_    0.538473 0.892669 0.554646 0.345403
O115  O     O_3   0.864149 0.452384 0.551484 -0.723339
H51   H     H_    0.893487 0.465682 0.555839 0.341523
O116  O     O_3   0.446677 0.135013 0.547901 -0.718284
H52   H     H_    0.461553 0.107222 0.554667 0.345392
O117  O     O_3   0.135748 0.452609 0.448501 -0.723877
H53   H     H_    0.106495 0.465989 0.444088 0.341454
O118  O     O_3   0.555898 0.137215 0.453912 -0.708523
H54   H     H_    0.543886 0.107858 0.447963 0.366053
O119  O     O_3   0.864297 0.547313 0.448456 -0.723141
H55   H     H_    0.893498 0.533823 0.444020 0.341800
O120  O     O_3   0.444062 0.862868 0.453908 -0.708525
H56   H     H_    0.456062 0.892240 0.447968 0.366151
O121  O     O_3   0.637174 0.055887 0.046095 -0.708304
H57   H     H_    0.607809 0.043878 0.052037 0.366098
O122  O     O_3   0.047235 0.364237 0.051565 -0.721324
H58   H     H_    0.033739 0.393438 0.055998 0.342879
O123  O     O_3   0.362834 0.944069 0.046105 -0.708466
H59   H     H_    0.392204 0.956066 0.052040 0.366088
O124  O     O_3   0.952267 0.635697 0.051340 -0.723199
H60   H     H_    0.965670 0.606468 0.055828 0.341554
O125  O     O_3   0.635055 0.946698 0.952119 -0.720302
H61   H     H_    0.607275 0.961583 0.945340 0.344158
O126  O     O_3   0.047887 0.635870 0.948742 -0.723450
H62   H     H_    0.034378 0.606671 0.944198 0.341658
O127  O     O_3   0.364937 0.053348 0.952114 -0.720279
H63   H     H_    0.392718 0.038470 0.945339 0.344165
O128  O     O_3   0.952539 0.364236 0.948451 -0.723162
H64   H     H_    0.965997 0.393500 0.944052 0.341695
C193  C     C_2   0.272165 0.428667 0.533471 0.946692
O129  O     O_2   0.283377 0.390597 0.527581 -0.538812
O130  O     O_R   0.236107 0.436977 0.555071 -0.778553
H65   H     H_    0.221959 0.408874 0.564094 0.369040
C194  C     C_2   0.433214 0.727551 0.538964 0.946708
O131  O     O_2   0.394538 0.716643 0.535500 -0.537278
O132  O     O_R   0.444172 0.763226 0.560250 -0.777771
H66   H     H_    0.417278 0.777385 0.571219 0.370381
C195  C     C_2   0.727816 0.571525 0.533246 0.946558
O133  O     O_2   0.716610 0.609572 0.527229 -0.539014
O134  O     O_R   0.763867 0.563300 0.554882 -0.781290
H67   H     H_    0.778018 0.591439 0.563815 0.367320
C196  C     C_2   0.566787 0.272425 0.539032 0.946773
O135  O     O_2   0.605460 0.283343 0.535565 -0.537247
O136  O     O_R   0.555840 0.236728 0.560322 -0.777570
H68   H     H_    0.582739 0.222562 0.571291 0.370448
C197  C     C_2   0.272469 0.571602 0.466554 0.946550
O137  O     O_2   0.283850 0.609652 0.472444 -0.538586
O138  O     O_R   0.236370 0.563356 0.444956 -0.781946
H69   H     H_    0.222343 0.591484 0.435935 0.367246
C198  C     C_2   0.431526 0.272114 0.463069 0.946379
O139  O     O_2   0.392975 0.283353 0.466525 -0.539304
O140  O     O_R   0.442032 0.235967 0.442163 -0.779253
H70   H     H_    0.414947 0.221785 0.431444 0.367614
C199  C     C_2   0.727548 0.428340 0.466757 0.946635
O141  O     O_2   0.716218 0.390305 0.472793 -0.538571
O142  O     O_R   0.763608 0.436526 0.445103 -0.781934
H71   H     H_    0.777656 0.408371 0.436174 0.367085
C200  C     C_2   0.568442 0.727908 0.462975 0.946441
O143  O     O_2   0.606994 0.716661 0.466420 -0.539234
O144  O     O_R   0.557926 0.764076 0.442068 -0.779125
H72   H     H_    0.585006 0.778265 0.431338 0.367691
C201  C     C_2   0.772104 0.931526 0.036979 0.946685
O145  O     O_2   0.783347 0.892976 0.033529 -0.539369
O146  O     O_R   0.735949 0.942025 0.057886 -0.779033
H73   H     H_    0.721763 0.914937 0.068611 0.367712
C202  C     C_2   0.928429 0.227532 0.033384 0.947000
O147  O     O_2   0.890378 0.216153 0.027486 -0.538338
O148  O     O_R   0.936677 0.263624 0.054977 -0.778566
H74   H     H_    0.908551 0.277647 0.063987 0.369165
C203  C     C_2   0.227898 0.068450 0.036970 0.946636
O149  O     O_2   0.216654 0.107002 0.033510 -0.539354
O150  O     O_R   0.264055 0.057935 0.057881 -0.779100
H75   H     H_    0.278240 0.085016 0.068599 0.367678
C204  C     C_2   0.071415 0.772454 0.033693 0.946761
O151  O     O_2   0.109499 0.783819 0.027895 -0.538819
O152  O     O_R   0.063052 0.736362 0.055285 -0.781308
H76   H     H_    0.091133 0.722324 0.064383 0.367420
C205  C     C_2   0.772437 0.066817 0.961007 0.946495
O153  O     O_2   0.783354 0.105488 0.964474 -0.537562
O154  O     O_R   0.736745 0.055883 0.939722 -0.782214
H77   H     H_    0.722583 0.082789 0.928756 0.367553
C206  C     C_2   0.928795 0.772172 0.966403 0.946281
O155  O     O_2   0.890695 0.783373 0.972202 -0.539131
O156  O     O_R   0.937208 0.736126 0.944823 -0.782080
H78   H     H_    0.909146 0.721976 0.935734 0.367095
C207  C     C_2   0.227564 0.933215 0.961032 0.946391
O157  O     O_2   0.216648 0.894541 0.964508 -0.537888
O158  O     O_R   0.263254 0.944167 0.939745 -0.782245
H79   H     H_    0.277416 0.917270 0.928786 0.367481
C208  C     C_2   0.071357 0.227834 0.966507 0.946164
O159  O     O_2   0.109424 0.216593 0.972394 -0.539227
O160  O     O_R   0.063056 0.263918 0.944916 -0.781875
H80   H     H_    0.091162 0.278058 0.935896 0.366974
O161  O     O_3   0.367987 0.436305 0.536490 -0.704559
H81   H     H_    0.349942 0.423784 0.555426 0.365718
O162  O     O_3   0.440074 0.631742 0.540314 -0.699986
H82   H     H_    0.429934 0.649400 0.560289 0.364703
O163  O     O_3   0.631986 0.563870 0.536284 -0.704832
H83   H     H_    0.650038 0.576511 0.555160 0.365412
O164  O     O_3   0.559921 0.368235 0.540355 -0.699871
H84   H     H_    0.570067 0.350565 0.560334 0.364745
O165  O     O_3   0.368259 0.563791 0.463521 -0.704554
H85   H     H_    0.350261 0.576357 0.444595 0.365272
O166  O     O_3   0.439662 0.367854 0.460117 -0.701046
H86   H     H_    0.428969 0.349697 0.440584 0.364577
O167  O     O_3   0.631745 0.436086 0.463725 -0.704616
H87   H     H_    0.649751 0.423411 0.444859 0.365355
O168  O     O_3   0.560304 0.632168 0.460057 -0.700856
H88   H     H_    0.570985 0.650335 0.440514 0.364636
O169  O     O_3   0.867846 0.939659 0.039914 -0.701060
H89   H     H_    0.849684 0.928962 0.059452 0.364689
O170  O     O_3   0.936231 0.131746 0.036445 -0.704277
H90   H     H_    0.923689 0.149738 0.055372 0.365700
O171  O     O_3   0.132156 0.060315 0.039900 -0.700939
H91   H     H_    0.150318 0.070998 0.059438 0.364643
O172  O     O_3   0.063626 0.868245 0.036655 -0.704418
H92   H     H_    0.076095 0.850250 0.055625 0.365334
O173  O     O_3   0.868247 0.059945 0.959663 -0.700277
H93   H     H_    0.850580 0.070104 0.939688 0.364221
O174  O     O_3   0.936441 0.867993 0.963390 -0.704835
H94   H     H_    0.923998 0.849952 0.944430 0.365160
O175  O     O_3   0.131754 0.940083 0.959685 -0.700437
H95   H     H_    0.149419 0.929943 0.939712 0.364178
O176  O     O_3   0.063686 0.132016 0.963492 -0.704851
H96   H     H_    0.076190 0.150063 0.944550 0.365249

loop_
_geom_bond_atom_site_label_1
_geom_bond_atom_site_label_2
_ccdc_geom_bond_type
C81   O17   A    
O136  H68   S    
O101  H37   S    
C23   C155  A    
C76   O36   A    
C188  O88   S    
C196  O135  D    
C62   C77   S    
O170  H90   S    
C14   C170  A    
C42   C58   A    
C190  O91   D    
C199  O141  D    
O6    Zn2   S    
C13   C173  A    
C45   C57   A    
C148  O100  S    
C140  N9    A    
C34   C202  S    
O25   Zn5   S    
C112  C124  A    
C37   C69   A    
C98   C114  A    
C61   C80   S    
O58   H10   S    
C89   C129  A    
C154  C170  A    
C204  O151  D    
C143  N2    A    
C75   O37   A    
C7    O11   A    
C88   O32   A    
C37   C205  S    
C86   C134  S    
O68   H18   S    
C202  O148  S    
C4    C12   S    
C5    C13   S    
C33   C69   A    
C46   C60   A    
C7    C15   S    
C147  O99   S    
C35   C71   A    
C193  O130  S    
C11   C167  A    
C118  C190  S    
C18   C152  A    
C119  C191  S    
C117  C189  S    
C165  O117  S    
C48   O168  S    
O9    Zn5   S    
C100  O60   S    
O84   H26   S    
C91   C107  A    
C28   C196  S    
C8    O12   A    
C17   C149  A    
O18   Zn2   S    
C106  C178  S    
C25   C41   A    
N2    N13   A    
O29   Zn7   S    
C189  O89   D    
C28   C44   A    
C94   C132  A    
C29   C45   A    
C162  O114  S    
N6    N9    A    
C148  C164  A    
C1    O1    A    
C83   C131  S    
C40   C208  S    
C81   C129  S    
O100  H36   S    
C85   C133  S    
C55   O175  S    
C25   C65   A    
C54   O174  S    
C81   O19   A    
C207  O158  S    
C35   C51   A    
O117  H53   S    
C64   C79   S    
C56   C62   A    
O114  H50   S    
O160  H80   S    
C57   C76   S    
O36   Zn9   S    
C10   C162  A    
C112  C184  S    
C4    O4    A    
C110  C182  S    
O46   Zn12  S    
C140  N11   A    
C20   C68   S    
O13   Zn7   S    
O110  H46   S    
C107  C179  S    
C91   C129  A    
C98   O58   S    
O119  H55   S    
O22   Zn2   S    
C75   O35   A    
O63   H15   S    
C177  O66   S    
C152  O104  S    
N7    N12   A    
C145  C161  A    
C151  C167  A    
C155  O107  S    
C161  O113  S    
C84   C132  S    
C201  O145  D    
C105  C177  S    
C3    C11   S    
C47   C59   A    
O90   H29   S    
C10   C168  A    
C186  O83   D    
O102  H38   S    
C53   O173  S    
C21   C153  A    
O127  H63   S    
O125  H61   S    
C24   C156  A    
C120  C192  S    
O34   Zn9   S    
C195  O133  D    
C80   O44   A    
C138  N15   A    
O130  H65   S    
C97   C133  A    
C102  O62   S    
O20   Zn4   S    
O123  H59   S    
C197  O137  D    
C157  C173  A    
C179  O69   D    
C45   O165  S    
C87   O29   A    
C28   C68   A    
C104  O64   S    
C25   C193  S    
O53   H5    S    
C114  C126  A    
C184  O80   S    
C42   O162  S    
C150  C166  A    
C203  O150  S    
O51   H3    S    
C86   O26   A    
C164  O116  S    
C187  O86   S    
C53   C61   A    
C154  O106  S    
C92   C108  A    
O138  H69   S    
C182  O76   S    
C23   C159  A    
C76   O40   A    
C19   C151  A    
C20   C148  A    
O8    Zn4   S    
C6    O16   A    
C36   C52   A    
C43   C59   A    
O52   H4    S    
O35   Zn9   S    
C37   C53   A    
C4    O6    A    
O61   H13   S    
C180  O72   S    
C121  C144  S    
C122  C143  S    
C207  O157  D    
O15   Zn5   S    
C194  O132  S    
C100  C134  A    
C206  O155  D    
C82   O20   A    
C101  C135  A    
C125  C140  S    
C38   C72   A    
C126  C139  S    
C151  O103  S    
C149  C165  A    
C7    O15   A    
O17   Zn1   S    
C109  C123  A    
C198  O140  S    
C156  C172  A    
C41   O161  S    
C43   O163  S    
C21   C69   S    
O16   Zn8   S    
O165  H85   S    
C6    C14   S    
O164  H84   S    
C153  O105  S    
C78   O42   A    
C106  C122  A    
C11   C163  A    
O163  H83   S    
C9    C161  A    
C146  O98   S    
C160  O112  S    
C196  O136  S    
C29   C65   A    
C127  C138  S    
C173  O125  S    
O76   H22   S    
O167  H87   S    
O173  H93   S    
C124  C141  S    
C138  N13   A    
C139  N12   A    
C73   O39   A    
C92   O52   S    
C24   C72   S    
C33   C201  S    
C16   C174  A    
O3    Zn3   S    
C39   C71   A    
N1    N14   A    
C104  C136  A    
O47   Zn12  S    
O1    Zn1   S    
C30   C46   A    
C1    O5    A    
C150  O102  S    
N4    N15   A    
C158  C174  A    
O42   Zn11  S    
O23   Zn1   S    
N5    N10   A    
C167  O119  S    
C156  O108  S    
C208  O160  S    
N8    N11   A    
C79   O43   A    
C74   O34   A    
C147  C163  A    
O121  H57   S    
C97   O57   S    
C54   C64   A    
C206  O156  S    
C20   C150  A    
C142  N7    A    
O28   Zn8   S    
C145  O97   S    
O148  H74   S    
C168  O120  S    
O150  H75   S    
O11   Zn7   S    
C8    C16   S    
C202  O147  D    
C89   C105  A    
O166  H86   S    
C200  O144  S    
O169  H89   S    
C22   C70   S    
C36   C72   A    
C93   C109  A    
C82   O18   A    
C63   C78   S    
C119  C127  A    
O24   Zn4   S    
C181  O74   S    
C193  O129  D    
C32   C48   A    
O162  H82   S    
C100  C116  A    
O94   H31   S    
O99   H35   S    
O112  H48   S    
O31   Zn5   S    
C146  C162  A    
C26   C42   A    
O97   H33   S    
C27   C195  S    
C101  O61   S    
O14   Zn6   S    
C99   C115  A    
C95   O55   S    
C33   C49   A    
O108  H44   S    
C180  O71   D    
C185  O82   S    
C163  O115  S    
C14   C176  A    
C190  O92   S    
O32   Zn8   S    
C39   C55   A    
O132  H66   S    
C29   C197  S    
C40   C56   A    
O104  H40   S    
O45   Zn12  S    
C169  O121  S    
C171  O123  S    
C114  C186  S    
C192  O96   S    
C139  N10   A    
C34   C70   A    
C26   C194  S    
C189  O90   S    
C94   O54   S    
O80   H24   S    
O142  H71   S    
C31   C47   A    
O57   H9    S    
C95   C131  A    
C204  O152  S    
C152  C168  A    
C30   C198  S    
C199  O142  S    
C38   C206  S    
C99   O59   S    
O10   Zn6   S    
C44   O164  S    
C109  C181  S    
C49   C61   A    
C158  O110  S    
C111  C123  A    
O146  H73   S    
C23   C71   S    
O176  H96   S    
C1    C9    S    
C88   C136  S    
C52   C64   A    
O70   H19   S    
C108  C180  S    
C94   C110  A    
C19   C147  A    
O154  H77   S    
C2    O2    A    
C17   C145  A    
O158  H79   S    
O161  H81   S    
C91   O51   S    
C87   C135  S    
C12   C164  A    
C137  N16   A    
C46   O166  S    
O92   H30   S    
C38   C54   A    
O56   H8    S    
C149  O101  S    
C51   C63   A    
C8    O14   A    
C117  C127  A    
C59   C74   S    
C90   C106  A    
C40   C70   A    
C50   O170  S    
O48   Zn12  S    
O27   Zn7   S    
C18   C66   S    
C107  C121  A    
O96   H32   S    
O7    Zn1   S    
C32   C66   A    
O115  H51   S    
C170  O122  S    
O5    Zn3   S    
C157  O109  S    
C159  O111  S    
C181  O73   D    
C116  C126  A    
C83   O23   A    
O120  H56   S    
C120  C128  A    
C48   C58   A    
C60   C75   S    
C101  C117  A    
C141  N8    A    
C9    C165  A    
O62   H14   S    
C41   C57   A    
O86   H27   S    
O88   H28   S    
C31   C199  S    
C5    O9    A    
O30   Zn6   S    
C184  O79   D    
O49   H1    S    
C26   C66   A    
C44   C60   A    
O171  H91   S    
C123  C142  S    
C187  O85   D    
C102  C136  A    
C31   C67   A    
O82   H25   S    
C90   C130  A    
C27   C43   A    
C111  C183  S    
C142  N5    A    
C144  N1    A    
C49   O169  S    
C182  O75   D    
C52   O172  S    
C153  C169  A    
O128  H64   S    
C77   O47   A    
C113  C185  S    
O105  H41   S    
C93   C131  A    
C30   C68   A    
O122  H58   S    
C87   O31   A    
C104  C120  A    
C90   O50   S    
C188  O87   D    
C92   C130  A    
O124  H60   S    
O43   Zn11  S    
C74   O38   A    
C194  O131  D    
C78   O46   A    
O118  H54   S    
C183  O77   D    
C96   C112  A    
C99   C133  A    
O175  H95   S    
C177  O65   D    
C22   C160  A    
O4    Zn4   S    
C2    O8    A    
O26   Zn6   S    
C3    O3    A    
O113  H49   S    
C6    O10   A    
C12   C166  A    
C24   C158  A    
C113  C125  A    
C36   C204  S    
O172  H92   S    
C35   C203  S    
C141  N6    A    
C201  O146  S    
C103  C135  A    
C85   O25   A    
C175  O127  S    
C191  O94   S    
N3    N16   A    
O74   H21   S    
C19   C67   S    
C186  O84   S    
C3    O7    A    
O168  H88   S    
C174  O126  S    
C82   C130  S    
O55   H7    S    
O37   Zn10  S    
C102  C118  A    
C96   C132  A    
C96   O56   S    
C195  O134  S    
C89   O49   S    
C166  O118  S    
C160  C176  A    
C185  O81   D    
C118  C128  A    
C83   O21   A    
C176  O128  S    
C84   O22   A    
C93   O53   S    
C205  O154  S    
C34   C50   A    
C197  O138  S    
C15   C171  A    
O21   Zn3   S    
C27   C67   A    
O134  H67   S    
O72   H20   S    
C86   O28   A    
O78   H23   S    
C208  O159  D    
C137  N14   A    
C55   C63   A    
C47   O167  S    
C128  C137  S    
C205  O153  D    
O106  H42   S    
C16   C172  A    
O156  H78   S    
C144  N3    A    
O126  H62   S    
O19   Zn3   S    
C77   O41   A    
O59   H11   S    
C105  C121  A    
C143  N4    A    
O111  H47   S    
O12   Zn8   S    
C32   C200  S    
O60   H12   S    
O66   H17   S    
C50   C62   A    
O40   Zn10  S    
C79   O45   A    
O44   Zn11  S    
C97   C113  A    
O50   H2    S    
C2    C10   S    
C56   O176  S    
O64   H16   S    
C178  O67   D    
O107  H43   S    
C22   C154  A    
O33   Zn9   S    
O2    Zn2   S    
C21   C157  A    
C103  C119  A    
C108  C122  A    
C18   C146  A    
C84   O24   A    
O103  H39   S    
C98   C134  A    
C17   C65   S    
C115  C125  A    
C15   C175  A    
O174  H94   S    
C80   O48   A    
O54   H6    S    
C116  C188  S    
C85   O27   A    
O144  H72   S    
C179  O70   S    
C95   C111  A    
O109  H45   S    
C73   O33   A    
C115  C187  S    
O98   H34   S    
C200  O143  D    
C51   O171  S    
C183  O78   S    
C13   C169  A    
C178  O68   S    
O152  H76   S    
C88   O30   A    
C203  O149  D    
C39   C207  S    
C5    O13   A    
O140  H70   S    
O41   Zn11  S    
C155  C171  A    
C172  O124  S    
C198  O139  D    
C191  O93   D    
C159  C175  A    
C110  C124  A    
C192  O95   D    
O38   Zn10  S    
O39   Zn10  S    
C103  O63   S    
O116  H52   S    
C58   C73   S    
