data_mof_unit_34050.cif
_audit_creation_date              2012-10-26T18:13:06-0400
_audit_creation_method            fapswitch 2.2
_symmetry_space_group_name_H-M    P1
_symmetry_Int_Tables_number       1
_space_group_crystal_system       triclinic
_cell_length_a                    18.596932
_cell_length_b                    19.278145
_cell_length_c                    18.817869
_cell_angle_alpha                 111.087838
_cell_angle_beta                  108.853622
_cell_angle_gamma                 110.176724
_cell_volume                      5079.80367274

loop_
_atom_site_label
_atom_site_type_symbol
_atom_type_description
_atom_site_fract_x
_atom_site_fract_y
_atom_site_fract_z
_atom_type_partial_charge
C1    C     C_R   0.620020 0.501093 0.620593 0.531610
C2    C     C_3   0.854033 0.813745 0.585672 -0.218405
C3    C     C_R   0.241357 0.697517 0.410100 -0.112470
C4    C     C_R   0.659670 0.363223 0.790796 0.072793
C5    C     C_R   0.678451 0.348234 0.861331 -0.055827
C6    C     C_R   0.640370 0.264225 0.846157 -0.144952
C7    C     C_R   0.581831 0.192160 0.760314 -0.117068
C8    C     C_R   0.560318 0.203914 0.689313 -0.104348
C9    C     C_R   0.598480 0.287670 0.703810 -0.120579
C10   C     C_R   0.335051 0.626214 0.199594 0.053889
C11   C     C_R   0.316030 0.637805 0.126811 -0.064187
C12   C     C_R   0.356056 0.720422 0.139152 -0.151166
C13   C     C_3   0.268965 0.171982 0.501152 -0.114513
C14   C     C_R   0.417597 0.793620 0.224066 -0.115741
C15   C     C_R   0.441395 0.784063 0.296599 -0.100534
C16   C     C_R   0.401695 0.701574 0.284807 -0.125705
C17   C     C_R   0.093953 0.425556 0.779133 0.060227
C18   C     C_R   0.170293 0.509879 0.840695 -0.057731
C19   C     C_R   0.180136 0.578304 0.826953 -0.098414
C20   C     C_R   0.114599 0.563593 0.751247 -0.101404
C21   C     C_R   0.039419 0.480213 0.688673 -0.118879
C22   C     C_R   0.029515 0.411347 0.701780 -0.087114
C23   C     C_R   0.908477 0.576423 0.223814 0.062664
C24   C     C_3   0.728350 0.825666 0.494399 -0.113454
C25   C     C_R   0.971480 0.591727 0.302792 -0.088671
C26   C     C_R   0.960778 0.523711 0.317481 -0.116026
C27   C     C_R   0.886480 0.439870 0.254552 -0.096004
C28   C     C_R   0.822473 0.423947 0.177031 -0.096645
C29   C     C_R   0.832940 0.491638 0.161906 -0.056712
C30   C     C_R   0.286069 0.428988 0.613323 0.035743
C31   C     C_R   0.201718 0.420839 0.581603 -0.093681
C32   C     C_R   0.193908 0.493831 0.613606 -0.107022
C33   C     C_R   0.269371 0.575774 0.679982 -0.107440
C34   C     C_R   0.352808 0.584787 0.715098 -0.119107
C35   C     C_3   0.764458 0.592926 0.763576 -0.208029
C36   C     C_R   0.361105 0.512101 0.682950 -0.068464
C37   C     C_R   0.722019 0.573298 0.395413 0.034593
C38   C     C_R   0.807586 0.584405 0.430998 -0.094449
C39   C     C_R   0.818444 0.512971 0.403290 -0.108208
C40   C     C_R   0.744922 0.429626 0.337491 -0.105588
C41   C     C_R   0.660469 0.417673 0.298387 -0.117600
C42   C     C_R   0.649140 0.488800 0.326137 -0.069489
C43   C     C_R   0.163252 0.301670 0.377101 -0.008022
C44   C     C_R   0.074497 0.249025 0.304248 -0.113612
C45   C     C_R   0.023679 0.285099 0.283114 -0.099829
C46   C     C_3   0.229267 0.409090 0.243313 -0.218940
C47   C     C_R   0.060707 0.374717 0.332171 -0.070146
C48   C     C_R   0.149093 0.428362 0.400667 -0.127227
C49   C     C_R   0.201202 0.392702 0.420298 -0.121571
C50   C     C_R   0.838213 0.707607 0.632660 -0.007637
C51   C     C_R   0.804838 0.617486 0.591705 -0.119656
C52   C     C_R   0.860950 0.586778 0.616211 -0.126889
C53   C     C_R   0.946988 0.643868 0.689082 -0.071529
C54   C     C_R   0.978399 0.732408 0.736706 -0.099852
C55   C     C_R   0.924818 0.764007 0.709200 -0.113492
C56   C     C_3   0.832231 0.592875 0.837170 0.151647
C57   C     C_3   0.161051 0.410248 0.171305 0.155561
C58   C     C_3   0.638770 0.461207 0.733044 -0.163110
C59   C     C_3   0.352273 0.523350 0.252949 -0.208011
C60   C     C_3   0.716700 0.441561 0.649685 -0.243277
C61   C     C_R   0.380609 0.499588 0.379106 0.536939
C62   C     C_3   0.290955 0.566574 0.352533 -0.239987
C63   C     C_3   0.684783 0.499804 0.690874 -0.041981
C64   C     C_3   0.314350 0.499830 0.308321 -0.035688
C65   C     C_R   0.376584 0.380216 0.497368 0.524957
C66   C     C_R   0.623875 0.619903 0.503212 0.526232
C67   C     C_3   0.801410 0.495995 0.813804 0.042022
C68   C     C_3   0.196868 0.506678 0.189766 0.076852
C69   C     C_3   0.703833 0.457822 0.808957 0.235628
C70   C     C_3   0.287027 0.533202 0.183706 0.236582
C71   C     C_3   0.791929 0.445699 0.719803 -0.143855
C72   C     C_3   0.337284 0.247735 0.502879 -0.238360
C73   C     C_3   0.215346 0.565069 0.285608 -0.158895
C74   C     C_3   0.008631 0.313731 0.816325 0.042729
C75   C     C_3   0.995037 0.687412 0.186750 0.043282
C76   C     C_R   0.999189 0.118078 0.620738 0.542094
C77   C     C_R   0.001633 0.882559 0.379605 0.542532
C78   C     C_R   0.120962 0.117366 0.498824 0.540450
C79   C     C_R   0.879097 0.883250 0.501792 0.540585
C80   C     C_R   0.997556 0.619420 0.118303 0.528422
C81   C     C_R   0.004463 0.380999 0.883691 0.555631
C82   C     C_R   0.877405 0.499362 0.881172 0.536771
C83   C     C_3   0.660215 0.749528 0.492541 -0.238201
C84   C     C_R   0.122226 0.502039 0.120396 0.580827
C85   C     C_3   0.914336 0.185737 0.657509 -0.232731
C86   C     C_3   0.087635 0.814266 0.345504 -0.230605
C87   C     C_3   0.020909 0.178976 0.774220 -0.238930
C88   C     C_3   0.983832 0.823078 0.228473 -0.237564
C89   C     C_3   0.085308 0.352337 0.796888 -0.093736
C90   C     C_3   0.917473 0.649226 0.205207 -0.089511
C91   C     C_3   0.024331 0.252977 0.847436 -0.259375
C92   C     C_3   0.983732 0.750763 0.157369 -0.253528
C93   C     C_3   0.917129 0.256553 0.731330 -0.235120
C94   C     C_3   0.304415 0.311661 0.495795 0.029673
C95   C     C_3   0.085758 0.743133 0.272512 -0.232468
C96   C     C_3   0.003322 0.188373 0.692312 0.040414
C97   C     C_3   0.998946 0.812678 0.309293 0.039679
C98   C     C_3   0.079408 0.277468 0.721981 -0.229799
C99   C     C_3   0.921908 0.723900 0.278550 -0.225840
C100  C     C_3   0.297053 0.349720 0.583183 -0.102797
C101  C     C_3   0.707740 0.650672 0.420943 -0.103312
C102  C     C_3   0.229279 0.275343 0.583592 -0.233760
C103  C     C_3   0.775312 0.725113 0.420602 -0.233188
C104  C     C_3   0.210057 0.254589 0.404330 -0.010089
C105  C     C_3   0.696113 0.689046 0.505402 0.029753
C106  C     C_3   0.788674 0.750126 0.599414 -0.009703
C107  C     C_R   0.312664 0.154735 0.572083 0.050857
C108  C     C_R   0.369802 0.220550 0.662799 -0.080936
C109  C     C_R   0.398052 0.199598 0.726257 -0.094175
C110  C     C_R   0.372449 0.113362 0.700186 -0.107597
C111  C     C_R   0.320588 0.048283 0.610438 -0.108370
C112  C     C_R   0.291607 0.068877 0.546866 -0.065236
C113  C     C_R   0.685436 0.840055 0.420628 0.052319
C114  C     C_R   0.631866 0.772725 0.330334 -0.082847
C115  C     C_R   0.605070 0.791246 0.264494 -0.097220
C116  C     C_3   0.191512 0.187104 0.501342 0.015150
C117  C     C_R   0.628539 0.876470 0.287599 -0.106543
C118  C     C_R   0.676810 0.942963 0.376644 -0.109079
C119  C     C_R   0.704499 0.924934 0.442716 -0.066311
C120  C     C_R   0.217540 0.204156 0.323033 0.031722
C121  C     C_R   0.251087 0.248983 0.285398 -0.052229
C122  C     C_R   0.258667 0.208257 0.212388 -0.113212
C123  C     C_R   0.231669 0.120534 0.173698 -0.115636
C124  C     C_R   0.196934 0.073612 0.207956 -0.121413
C125  C     C_R   0.189437 0.114255 0.281199 -0.114996
C126  C     C_R   0.776380 0.799884 0.677153 0.034505
C127  C     C_3   0.808698 0.813747 0.499672 0.015311
C128  C     C_R   0.744162 0.756453 0.716602 -0.050413
C129  C     C_R   0.733491 0.797219 0.787184 -0.114301
C130  C     C_R   0.755831 0.883524 0.821615 -0.115388
C131  C     C_R   0.789333 0.929116 0.785750 -0.121654
C132  C     C_R   0.800166 0.888530 0.715054 -0.115322
C133  C     C_3   0.965643 0.725602 0.912252 -0.122724
C134  C     C_3   0.022895 0.285514 0.105315 -0.119605
C135  C     C_3   0.764003 0.552377 0.969553 -0.153164
C136  C     C_3   0.329235 0.473757 0.078864 -0.165851
C137  C     C_R   0.780984 0.355094 0.677885 -0.002993
C138  C     C_3   0.145203 0.191309 0.418567 -0.217186
C139  C     C_R   0.781215 0.323841 0.597393 -0.113381
C140  C     C_R   0.748520 0.235530 0.542115 -0.124019
C141  C     C_R   0.715236 0.176606 0.566068 -0.118427
C142  C     C_R   0.720260 0.207031 0.647871 -0.133598
C143  C     C_R   0.757849 0.296312 0.705537 -0.090932
C144  C     C_R   0.233034 0.658537 0.325840 -0.007167
C145  C     C_R   0.250549 0.711315 0.290607 -0.086928
C146  C     C_R   0.289504 0.801647 0.343109 -0.131379
C147  C     C_R   0.302013 0.839443 0.427961 -0.118195
C148  C     C_R   0.275492 0.786924 0.460484 -0.120278
Cu1   Cu    Cu3+1 0.499950 0.562450 0.562440 0.876127
Cu2   Cu    Cu3+1 0.500050 0.437550 0.437560 0.875430
Cu3   Cu    Cu3+1 0.062480 0.999960 0.562430 0.890754
Cu4   Cu    Cu3+1 0.937520 0.000040 0.437570 0.891341
Cu5   Cu    Cu3+1 0.062470 0.562430 0.999950 0.911648
Cu6   Cu    Cu3+1 0.937530 0.437570 0.000050 0.892788
H1    H     H_    0.148697 0.380287 0.858026 0.109689
H2    H     H_    0.898217 0.880644 0.644984 0.105256
H3    H     H_    0.515419 0.147713 0.622356 0.115790
H4    H     H_    0.584133 0.290336 0.645002 0.100597
H5    H     H_    0.268278 0.583009 0.059648 0.164376
H6    H     H_    0.338818 0.727602 0.082567 0.090152
H7    H     H_    0.447888 0.857716 0.233614 0.103467
H8    H     H_    0.490116 0.840947 0.362532 0.120103
H9    H     H_    0.420954 0.699248 0.343881 0.101026
H10   H     H_    0.222199 0.523070 0.899983 0.073393
H11   H     H_    0.238883 0.642761 0.874943 0.083620
H12   H     H_    0.123081 0.616544 0.740314 0.084993
H13   H     H_    0.741070 0.634930 0.793704 0.092658
H14   H     H_    0.989425 0.468570 0.629132 0.084776
H15   H     H_    0.972730 0.347086 0.650120 0.094518
H16   H     H_    0.027663 0.656250 0.354582 0.091473
H17   H     H_    0.009514 0.536433 0.378508 0.083297
H18   H     H_    0.877527 0.387459 0.266491 0.084361
H19   H     H_    0.764394 0.359125 0.128703 0.083393
H20   H     H_    0.782125 0.477394 0.101279 0.068638
H21   H     H_    0.141623 0.358669 0.529706 0.110935
H22   H     H_    0.129105 0.486752 0.586387 0.106225
H23   H     H_    0.263094 0.632185 0.704692 0.096972
H24   H     H_    0.244987 0.360341 0.210694 0.080923
H25   H     H_    0.411238 0.648184 0.767566 0.092154
H26   H     H_    0.426686 0.521057 0.712369 0.111874
H27   H     H_    0.866213 0.647747 0.482791 0.111198
H28   H     H_    0.884087 0.522340 0.433376 0.101993
H29   H     H_    0.753514 0.374403 0.316224 0.095413
H30   H     H_    0.603605 0.353190 0.246212 0.089982
H31   H     H_    0.582865 0.477522 0.293538 0.105951
H32   H     H_    0.043110 0.178869 0.265569 0.102683
H33   H     H_    0.955101 0.243253 0.229270 0.088406
H34   H     H_    0.021402 0.402759 0.316508 0.117596
H35   H     H_    0.797363 0.622060 0.733535 0.163409
H36   H     H_    0.177074 0.497887 0.439383 0.095328
H37   H     H_    0.269024 0.437616 0.472126 0.166435
H38   H     H_    0.738001 0.570118 0.537595 0.159938
H39   H     H_    0.838266 0.518505 0.577811 0.093333
H40   H     H_    0.988912 0.619328 0.708925 0.117650
H41   H     H_    0.045070 0.776989 0.793890 0.090228
H42   H     H_    0.952321 0.833652 0.746154 0.103712
H43   H     H_    0.200083 0.387716 0.279528 0.169235
H44   H     H_    0.833212 0.628125 0.899404 0.120492
H45   H     H_    0.153487 0.369064 0.106602 0.144686
H46   H     H_    0.143960 0.280044 0.746441 0.104632
H47   H     H_    0.857571 0.721548 0.252448 0.105106
H48   H     H_    0.613432 0.503150 0.759567 0.171028
H49   H     H_    0.854898 0.621416 0.144115 0.083976
H50   H     H_    0.361916 0.470052 0.218265 0.136858
H51   H     H_    0.658340 0.373601 0.602811 0.146912
H52   H     H_    0.352468 0.632387 0.395704 0.144650
H53   H     H_    0.739319 0.459985 0.608443 0.126501
H54   H     H_    0.270705 0.553555 0.397728 0.128362
H55   H     H_    0.855044 0.488127 0.725959 0.182352
H56   H     H_    0.153855 0.528843 0.285480 0.177001
H57   H     H_    0.574644 0.399796 0.681353 0.066235
H58   H     H_    0.421225 0.580497 0.296649 0.073347
H59   H     H_    0.866497 0.224326 0.745938 0.134895
H60   H     H_    0.349186 0.219226 0.448137 0.144905
H61   H     H_    0.136875 0.775397 0.258612 0.136655
H62   H     H_    0.858423 0.120913 0.633144 0.104785
H63   H     H_    0.144003 0.878615 0.369992 0.106085
H64   H     H_    0.068277 0.284331 0.663709 0.113708
H65   H     H_    0.931001 0.716946 0.336550 0.113752
H66   H     H_    0.900773 0.195557 0.600921 0.136981
H67   H     H_    0.100082 0.804660 0.402160 0.135398
H68   H     H_    0.900577 0.297786 0.709683 0.146181
H69   H     H_    0.102383 0.701869 0.294300 0.141005
H70   H     H_    0.085228 0.181730 0.801780 0.134755
H71   H     H_    0.644987 0.777616 0.544587 0.144120
H72   H     H_    0.919048 0.819049 0.198856 0.133672
H73   H     H_    0.967314 0.114590 0.753924 0.104973
H74   H     H_    0.037292 0.888194 0.250111 0.102038
H75   H     H_    0.972800 0.223670 0.862633 0.120990
H76   H     H_    0.038886 0.781771 0.146934 0.125689
H77   H     H_    0.090026 0.291127 0.909595 0.124166
H78   H     H_    0.921723 0.715407 0.093224 0.078173
H79   H     H_    0.362821 0.373138 0.638255 0.099680
H80   H     H_    0.642498 0.624781 0.363428 0.098131
H81   H     H_    0.260316 0.276615 0.645506 0.115755
H82   H     H_    0.403749 0.284970 0.563800 0.099850
H83   H     H_    0.745366 0.721380 0.357010 0.114428
H84   H     H_    0.173136 0.282946 0.584735 0.104409
H85   H     H_    0.833558 0.719787 0.423493 0.106605
H86   H     H_    0.099195 0.213119 0.429030 0.135991
H87   H     H_    0.902880 0.794371 0.579877 0.138821
H88   H     H_    0.392607 0.288150 0.685562 0.087407
H89   H     H_    0.440595 0.250497 0.795763 0.110369
H90   H     H_    0.394474 0.097324 0.749458 0.092596
H91   H     H_    0.301862 0.981612 0.590127 0.088277
H92   H     H_    0.250104 0.017204 0.477944 0.075626
H93   H     H_    0.594907 0.709770 0.429734 0.097604
H94   H     H_    0.610920 0.705822 0.309785 0.077930
H95   H     H_    0.565285 0.739227 0.195403 0.101538
H96   H     H_    0.607619 0.890601 0.236465 0.092547
H97   H     H_    0.693911 0.008816 0.394514 0.086988
H98   H     H_    0.744011 0.978124 0.511177 0.077284
H99   H     H_    0.272369 0.316720 0.313849 0.131090
H100  H     H_    0.285569 0.244917 0.185829 0.096695
H101  H     H_    0.237375 0.088827 0.117012 0.096535
H102  H     H_    0.175378 0.005173 0.177491 0.093822
H103  H     H_    0.161184 0.072965 0.302644 0.081454
H104  H     H_    0.238678 0.112102 0.436777 0.089396
H105  H     H_    0.726602 0.689839 0.691863 0.129958
H106  H     H_    0.707956 0.761688 0.815250 0.097400
H107  H     H_    0.747706 0.915258 0.876425 0.096974
H108  H     H_    0.807586 0.996583 0.813163 0.094626
H109  H     H_    0.827894 0.928976 0.692650 0.081003
H110  H     H_    0.981107 0.735532 0.978621 0.109619
H111  H     H_    0.929002 0.757744 0.895714 0.104471
H112  H     H_    0.030026 0.757277 0.915646 0.133268
H113  H     H_    0.054611 0.248948 0.119612 0.105096
H114  H     H_    0.004488 0.272950 0.037602 0.116406
H115  H     H_    0.755584 0.885952 0.557078 0.089048
H116  H     H_    0.960224 0.260905 0.106565 0.131626
H117  H     H_    0.734283 0.520982 0.000009 0.117374
H118  H     H_    0.826779 0.555588 0.981256 0.132625
H119  H     H_    0.778759 0.619888 0.004734 0.117346
H120  H     H_    0.333575 0.415773 0.071289 0.118316
H121  H     H_    0.395725 0.533542 0.130892 0.109105
H122  H     H_    0.312892 0.470633 0.015212 0.121049
H123  H     H_    0.802151 0.367365 0.574850 0.089411
H124  H     H_    0.746950 0.212559 0.479695 0.097143
H125  H     H_    0.688194 0.107912 0.522703 0.098343
H126  H     H_    0.097932 0.125624 0.357842 0.109079
H127  H     H_    0.698218 0.161829 0.668306 0.106099
H128  H     H_    0.765405 0.316748 0.769578 0.164178
H129  H     H_    0.238101 0.685674 0.224561 0.165188
H130  H     H_    0.306931 0.841952 0.316460 0.104550
H131  H     H_    0.330167 0.908968 0.467431 0.099132
H132  H     H_    0.283168 0.815684 0.525561 0.095298
H133  H     H_    0.224859 0.658977 0.438702 0.090496
H134  H     H_    0.725708 0.399854 0.929030 0.132031
H135  H     H_    0.657369 0.255078 0.901465 0.089337
H136  H     H_    0.553113 0.127120 0.748748 0.102956
O1    O     O_R   0.591120 0.552750 0.643890 -0.531431
O2    O     O_R   0.408790 0.552730 0.461580 -0.518412
O3    O     O_R   0.408810 0.461590 0.552740 -0.525637
O4    O     O_R   0.591190 0.538410 0.447260 -0.523681
O5    O     O_R   0.408900 0.356100 0.447280 -0.510324
O6    O     O_R   0.591100 0.643900 0.552720 -0.510097
O7    O     O_R   0.052750 0.091090 0.643890 -0.518263
O8    O     O_R   0.947250 0.908910 0.356110 -0.516980
O9    O     O_R   0.947230 0.091150 0.538450 -0.520880
O10   O     O_R   0.052770 0.908850 0.461550 -0.520448
O11   O     O_R   0.143910 0.091120 0.552710 -0.490742
O12   O     O_R   0.408880 0.447250 0.356110 -0.529237
O13   O     O_R   0.856090 0.908880 0.447290 -0.489629
O14   O     O_R   0.038380 0.091180 0.447270 -0.531964
O15   O     O_R   0.961620 0.908820 0.552730 -0.531415
O16   O     O_R   0.052740 0.643910 0.091070 -0.531328
O17   O     O_R   0.947260 0.356090 0.908930 -0.531184
O18   O     O_3   0.917258 0.635948 0.846682 -0.555303
O19   O     O_3   0.079078 0.375682 0.169854 -0.558315
O20   O     O_3   0.699501 0.512918 0.880983 -0.608151
O21   O     O_3   0.259055 0.470064 0.095412 -0.612297
O22   O     O_R   0.947240 0.538460 0.091150 -0.514757
O23   O     O_R   0.052760 0.461540 0.908850 -0.500891
O24   O     O_R   0.961590 0.552710 0.908800 -0.443919
O25   O     O_R   0.038410 0.447290 0.091200 -0.453708
O26   O     O_R   0.856080 0.447270 0.908890 -0.560690
O27   O     O_R   0.143920 0.552730 0.091110 -0.538524
O28   O     O_R   0.591210 0.447270 0.538420 -0.515964

loop_
_geom_bond_atom_site_label_1
_geom_bond_atom_site_label_2
_ccdc_geom_bond_type
C133  H110  S    
Cu1   O1    S    
C87   C91   S    
C107  C112  A    
C19   C20   A    
C69   O20   S    
C129  H106  S    
C145  C146  A    
C75   C95   S    
C71   C137  S    
C78   O14   A    
C38   H27   S    
C113  C114  A    
C5    C6    A    
C85   C96   S    
C60   H51   S    
C89   H1    S    
C92   H78   S    
C108  C109  A    
C37   C42   A    
C110  C111  A    
C62   C64   S    
C75   C90   S    
C24   C127  S    
C88   C97   S    
C131  H108  S    
C72   C94   S    
C94   C104  S    
C101  C103  S    
C148  H132  S    
C21   C22   A    
C53   H40   S    
C74   C93   S    
C34   H25   S    
C8    H3    S    
C62   H54   S    
C4    C69   S    
C139  H123  S    
C114  C115  A    
C56   H44   S    
C45   C47   A    
Cu3   O15   S    
Cu3   O10   S    
C11   H5    S    
C51   C52   A    
Cu2   O4    S    
C140  H124  S    
C17   C89   S    
C140  C141  A    
C141  H125  S    
C120  C125  A    
C4    C5    A    
C72   H82   S    
C43   C44   A    
C79   O15   A    
C37   C38   A    
Cu6   O25   S    
C65   O5    A    
C66   O6    A    
C117  H96   S    
C135  H117  S    
C121  H99   S    
C132  H109  S    
C98   H64   S    
C74   C81   S    
C70   O21   S    
C146  C147  A    
C134  H113  S    
C79   C127  S    
C2    H2    S    
C138  H126  S    
C85   H66   S    
C144  C145  A    
C139  C140  A    
C60   H53   S    
C133  H111  S    
C6    C7    A    
C13   C72   S    
C30   C36   A    
C5    H134  S    
C14   H7    S    
C57   O19   S    
C130  C131  A    
C10   C16   A    
C87   H70   S    
C9    H4    S    
C28   H19   S    
C130  H107  S    
C86   C95   S    
C20   C21   A    
C58   H48   S    
C83   H93   S    
C101  H80   S    
C35   C63   S    
C19   H11   S    
C109  C110  A    
C62   H52   S    
C76   C96   S    
C73   C144  S    
Cu6   O22   S    
C147  C148  A    
Cu3   O7    S    
C128  C129  A    
C123  C124  A    
C58   H57   S    
C21   H14   S    
C23   C29   A    
C80   O22   A    
C38   C39   A    
C7    H136  S    
C66   O4    A    
C30   C100  S    
C1    O1    A    
Cu4   O9    S    
C43   C104  S    
C85   C93   S    
C59   H50   S    
C88   H72   S    
C71   H55   S    
C96   C98   S    
C107  C108  A    
C41   H30   S    
C77   C97   S    
C126  C132  A    
C103  C127  S    
C40   H29   S    
C2    C127  S    
C55   H42   S    
C57   H45   S    
C18   H10   S    
C33   H23   S    
C22   H15   S    
C39   C40   A    
Cu5   O16   S    
C45   H33   S    
C134  O19   S    
C25   C26   A    
C2    C106  S    
C95   H69   S    
C91   H77   S    
C135  H119  S    
C31   C32   A    
C94   C100  S    
C17   C18   A    
Cu5   O23   S    
C42   H31   S    
C136  H121  S    
C66   C105  S    
C145  H129  S    
C90   C99   S    
C146  H130  S    
C120  C121  A    
C81   O17   A    
C129  C130  A    
C54   C55   A    
C40   C41   A    
C126  C128  A    
C35   C56   S    
C123  H101  S    
C78   C116  S    
C52   H39   S    
C80   O16   A    
C76   O9    A    
C115  H95   S    
C134  H116  S    
C89   C98   S    
C117  C118  A    
C37   C101  S    
C88   H74   S    
C34   C36   A    
C39   H28   S    
C10   C11   A    
C147  H131  S    
C14   C15   A    
C57   C68   S    
C4    C9    A    
C27   H18   S    
Cu4   O14   S    
C25   H16   S    
C72   H60   S    
C41   C42   A    
C36   H26   S    
C29   H20   S    
Cu6   O17   S    
C52   C53   A    
C3    H133  S    
C137  C139  A    
C26   C27   A    
C91   H75   S    
Cu2   O5    S    
C28   C29   A    
C24   C83   S    
C118  H97   S    
C30   C31   A    
Cu1   O3    S    
C18   C19   A    
C113  C119  A    
Cu6   O26   S    
C114  H94   S    
C111  C112  A    
C115  C117  A    
Cu3   Cu4   S    
C93   H68   S    
Cu3   O11   S    
C86   H67   S    
Cu4   O8    S    
C48   H36   S    
C124  H102  S    
C102  H81   S    
C35   H35   S    
Cu1   O2    S    
C99   H47   S    
C100  H79   S    
C134  H114  S    
C93   H59   S    
C68   C84   S    
C128  H105  S    
C7    C8    A    
C85   H62   S    
C46   H43   S    
C60   C71   S    
C53   C54   A    
C61   O12   A    
C74   C91   S    
C61   C64   S    
C133  O18   S    
C111  H91   S    
C1    O28   A    
C50   C51   A    
C23   C90   S    
C12   H6    S    
Cu1   O6    S    
C121  C122  A    
C10   C70   S    
C136  O21   S    
C81   O23   A    
C48   C49   A    
C99   H65   S    
C26   H17   S    
C87   H73   S    
C131  C132  A    
C79   O13   A    
C44   C45   A    
C90   H49   S    
C54   H41   S    
C136  H120  S    
C3    C144  A    
C122  H100  S    
C58   C69   S    
C61   O2    A    
C20   H12   S    
C105  C106  S    
C106  C126  S    
C17   C22   A    
C98   H46   S    
C24   H115  S    
C32   C33   A    
Cu5   O27   S    
Cu1   Cu2   S    
C76   O7    A    
C135  H118  S    
Cu2   O12   S    
C67   C71   S    
C13   C116  S    
C59   C70   S    
C83   C105  S    
C103  H85   S    
C108  H88   S    
C50   C106  S    
C142  C143  A    
C119  H98   S    
C44   H32   S    
C77   O8    A    
C104  C120  S    
C78   O11   A    
C95   H61   S    
C46   H24   S    
C15   H8    S    
C13   C107  S    
C133  H112  S    
C31   H21   S    
C112  H92   S    
C32   H22   S    
C59   C64   S    
C60   C63   S    
C74   C89   S    
C142  H127  S    
C109  H89   S    
C15   C16   A    
C125  H103  S    
C86   C97   S    
C118  C119  A    
C84   O25   A    
C135  O20   S    
C88   C92   S    
C82   O26   A    
C8    C9    A    
C35   H13   S    
C138  H86   S    
C75   C80   S    
C6    H135  S    
C137  C143  A    
C3    C148  A    
Cu5   Cu6   S    
C136  H122  S    
C1    C63   S    
C97   C99   S    
C116  C138  S    
C16   H9    S    
C101  C105  S    
C102  H84   S    
C73   H56   S    
C56   O18   S    
C43   C49   A    
C68   C73   S    
C46   C64   S    
C67   C69   S    
C86   H63   S    
C13   H104  S    
C65   O3    A    
C47   C48   A    
C92   H76   S    
C103  H83   S    
C87   C96   S    
C100  C102  S    
C33   C34   A    
C62   C73   S    
C75   C92   S    
C77   O10   A    
C65   C94   S    
C12   C14   A    
C46   C57   S    
C59   H58   S    
C83   H71   S    
C58   C63   S    
C143  H128  S    
C11   C12   A    
C49   H37   S    
Cu2   O28   S    
C56   C67   S    
C50   C55   A    
C122  C123  A    
C84   O27   A    
C141  C142  A    
C82   O24   A    
C104  C138  S    
C23   C25   A    
C2    H87   S    
C102  C116  S    
Cu5   O24   S    
C110  H90   S    
C24   C113  S    
C67   C82   S    
C68   C70   S    
C27   C28   A    
C47   H34   S    
Cu4   O13   S    
C51   H38   S    
C124  C125  A    
