data_mof_unit_26320.cif
_audit_creation_date              2012-12-10T18:01:43-0500
_audit_creation_method            fapswitch 2.2
_symmetry_space_group_name_H-M    P1
_symmetry_Int_Tables_number       1
_space_group_crystal_system       triclinic
_cell_length_a                    10.928604
_cell_length_b                    9.454983
_cell_length_c                    19.49341
_cell_angle_alpha                 89.580435
_cell_angle_beta                  89.958718
_cell_angle_gamma                 89.952483
_cell_volume                      2014.1942632

loop_
_atom_site_label
_atom_site_type_symbol
_atom_type_description
_atom_site_fract_x
_atom_site_fract_y
_atom_site_fract_z
_atom_type_partial_charge
C1    C     C_R   0.262167 0.500158 0.499760 0.809840
C2    C     C_R   0.738495 0.500194 0.500287 0.800406
C3    C     C_R   0.523202 0.494829 0.930899 0.396797
C4    C     C_R   0.522501 0.496444 0.069180 0.412962
C5    C     C_R   0.503510 0.500142 0.366770 0.762164
C6    C     C_R   0.500791 0.499593 0.633301 0.783853
C7    C     C_R   0.062557 0.382663 0.475484 0.056189
C8    C     C_R   0.939876 0.630442 0.504656 0.047909
C9    C     C_R   0.940074 0.372689 0.495321 0.043618
C10   C     C_R   0.063283 0.620003 0.523120 0.036653
C11   C     C_R   0.873010 0.501258 0.500012 -0.134837
C12   C     C_R   0.128792 0.501027 0.499140 -0.120223
C13   C     C_R   0.430760 0.075305 0.453960 -0.010286
C14   C     C_R   0.569514 0.924662 0.545925 -0.031950
C15   C     C_R   0.568748 0.073836 0.546203 0.013960
C16   C     C_R   0.429418 0.926144 0.454557 0.010594
C17   C     C_R   0.511432 0.628516 0.251302 -0.041895
C18   C     C_R   0.519437 0.368948 0.747744 -0.030686
C19   C     C_R   0.502153 0.628363 0.748067 -0.025559
C20   C     C_R   0.521346 0.368615 0.253329 -0.030840
C21   C     C_R   0.522455 0.627419 0.179103 0.035089
C22   C     C_R   0.534482 0.369058 0.819701 0.026123
C23   C     C_R   0.505986 0.626817 0.820638 0.060315
C24   C     C_R   0.519491 0.367826 0.180780 0.038699
C25   C     C_R   0.521820 0.497212 0.144437 -0.026934
C26   C     C_R   0.523125 0.497212 0.855719 -0.009676
C27   C     C_R   0.511686 0.499256 0.289585 -0.240724
C28   C     C_R   0.505210 0.498823 0.710592 -0.212825
Cu1   Cu    Cu3+1 0.500000 0.640660 0.500000 0.940600
Cu2   Cu    Cu3+1 0.500000 0.359340 0.500000 0.954723
H1    H     H_    0.376550 0.132476 0.416804 0.150475
H2    H     H_    0.625384 0.867408 0.582417 0.154382
H3    H     H_    0.622707 0.130075 0.583263 0.134886
H4    H     H_    0.371658 0.870235 0.418974 0.110749
N1    N     N_R   0.500000 0.852070 0.500000 -0.170796
N2    N     N_R   0.500000 0.147930 0.500000 -0.170830
N3    N     N_R   0.416012 0.507413 0.033968 -0.248520
N4    N     N_R   0.629736 0.483948 0.966099 -0.244100
N5    N     N_R   0.416367 0.506608 0.965782 -0.239814
N6    N     N_R   0.629354 0.484373 0.034312 -0.252737
O1    O     O_R   0.319640 0.618740 0.500000 -0.598106
O2    O     O_R   0.680360 0.381260 0.500000 -0.597821
O3    O     O_R   0.680360 0.618740 0.500000 -0.580918
O4    O     O_R   0.319640 0.381260 0.500000 -0.573152
O5    O     O_R   0.499980 0.618820 0.400140 -0.574168
O6    O     O_R   0.500020 0.381180 0.599860 -0.547067
O7    O     O_R   0.500020 0.618820 0.599860 -0.594872
O8    O     O_R   0.499980 0.381180 0.400140 -0.588095
C29   C     C_3   0.114058 0.272966 0.426455 -0.408552
C30   C     C_3   0.161556 0.342077 0.359911 -0.347778
C31   C     C_3   0.177730 0.233563 0.303027 -0.815870
H5    H     H_    0.235579 0.144191 0.320869 0.273931
H6    H     H_    0.087301 0.191681 0.287009 0.239308
H7    H     H_    0.222029 0.284674 0.257974 0.248920
H8    H     H_    0.095788 0.424038 0.341788 0.211238
H9    H     H_    0.250750 0.394213 0.369205 0.223343
H10   H     H_    0.185347 0.208055 0.451795 0.205582
H11   H     H_    0.040662 0.198221 0.411340 0.188690
C32   C     C_3   0.889475 0.776663 0.486228 -0.393263
C33   C     C_3   0.856218 0.787034 0.409712 -0.306951
C34   C     C_3   0.811301 0.935210 0.390839 -0.791143
H12   H     H_    0.725222 0.959712 0.418632 0.269052
H13   H     H_    0.881658 0.015187 0.403736 0.212526
H14   H     H_    0.793973 0.941708 0.334836 0.271192
H15   H     H_    0.938776 0.763047 0.378483 0.197468
H16   H     H_    0.784460 0.709441 0.395867 0.245572
H17   H     H_    0.812547 0.806692 0.520050 0.211674
H18   H     H_    0.959974 0.859368 0.494347 0.177310
C35   C     C_3   0.895795 0.230287 0.523215 -0.388533
C36   C     C_3   0.873466 0.238087 0.601113 -0.336816
C37   C     C_3   0.874591 0.091412 0.634653 -0.863453
H19   H     H_    0.811818 0.018508 0.607713 0.242177
H20   H     H_    0.968440 0.046318 0.633133 0.256134
H21   H     H_    0.845535 0.099619 0.689071 0.248131
H22   H     H_    0.946464 0.302202 0.625641 0.222610
H23   H     H_    0.784597 0.290516 0.611673 0.211724
H24   H     H_    0.814549 0.190594 0.495481 0.209865
H25   H     H_    0.967046 0.148081 0.515394 0.189773
C38   C     C_3   0.114350 0.722357 0.576086 -0.398236
C39   C     C_3   0.154233 0.643176 0.641624 -0.317917
C40   C     C_3   0.153309 0.739716 0.704030 -0.878294
H26   H     H_    0.207908 0.836583 0.693930 0.257239
H27   H     H_    0.058002 0.771173 0.716680 0.265291
H28   H     H_    0.192404 0.682059 0.748712 0.238745
H29   H     H_    0.091205 0.553289 0.652324 0.219726
H30   H     H_    0.247710 0.599704 0.634784 0.215610
H31   H     H_    0.190295 0.786913 0.554846 0.212893
H32   H     H_    0.042475 0.798763 0.591632 0.198626
C41   C     C_2   0.496670 0.766212 0.285699 0.429493
H33   H     H_    0.408679 0.794589 0.307242 0.054935
O9    O     O_2   0.582705 0.847672 0.290212 -0.553875
C42   C     C_2   0.518367 0.230206 0.712962 0.397640
H34   H     H_    0.601696 0.168308 0.709552 0.071951
O10   O     O_2   0.422736 0.181926 0.690832 -0.527838
C43   C     C_2   0.494999 0.767352 0.712408 0.371763
H35   H     H_    0.416947 0.793085 0.680489 0.106536
O11   O     O_2   0.578602 0.852332 0.716956 -0.585746
C44   C     C_2   0.540512 0.232649 0.290415 0.398005
H36   H     H_    0.619033 0.219867 0.323979 0.087995
O12   O     O_2   0.467716 0.135641 0.285021 -0.578819
C45   C     C_3   0.538416 0.764532 0.138092 -0.385644
C46   C     C_3   0.674868 0.792557 0.124573 -0.290562
C47   C     C_3   0.693529 0.897585 0.065854 -0.879347
H37   H     H_    0.653423 0.855663 0.017761 0.262738
H38   H     H_    0.650086 0.000158 0.078068 0.251552
H39   H     H_    0.792913 0.915247 0.057640 0.250941
H40   H     H_    0.718062 0.834716 0.171780 0.240499
H41   H     H_    0.722955 0.692941 0.111199 0.233183
H42   H     H_    0.487267 0.758656 0.089015 0.194754
H43   H     H_    0.497942 0.857117 0.164366 0.212129
C48   C     C_3   0.563890 0.231945 0.858453 -0.414030
C49   C     C_3   0.702808 0.208542 0.861097 -0.328583
C50   C     C_3   0.736549 0.090555 0.911316 -0.824712
H44   H     H_    0.707861 0.119906 0.963978 0.260924
H45   H     H_    0.691567 0.990105 0.896658 0.251926
H46   H     H_    0.837185 0.074388 0.911014 0.245376
H47   H     H_    0.737178 0.180960 0.809239 0.205762
H48   H     H_    0.749588 0.307018 0.877450 0.241385
H49   H     H_    0.525802 0.233476 0.911223 0.203682
H50   H     H_    0.519425 0.139155 0.834474 0.205102
C51   C     C_3   0.485920 0.763159 0.861087 -0.387988
C52   C     C_3   0.349772 0.802992 0.862124 -0.344020
C53   C     C_3   0.322195 0.911502 0.917369 -0.831272
H51   H     H_    0.340857 0.865036 0.968790 0.261509
H52   H     H_    0.379224 0.007329 0.909740 0.252619
H53   H     H_    0.224247 0.942392 0.914867 0.248579
H54   H     H_    0.323243 0.848147 0.811565 0.221828
H55   H     H_    0.293046 0.707486 0.872251 0.236172
H56   H     H_    0.520253 0.753792 0.914456 0.198915
H57   H     H_    0.540017 0.851646 0.839337 0.227388
C54   C     C_3   0.511932 0.229690 0.140900 -0.369262
C55   C     C_3   0.377633 0.192688 0.125869 -0.298035
C56   C     C_3   0.365758 0.101099 0.062327 -0.881783
H58   H     H_    0.398167 0.160258 0.016373 0.265917
H59   H     H_    0.420311 0.003071 0.068274 0.254859
H60   H     H_    0.268335 0.072089 0.054625 0.251772
H61   H     H_    0.337798 0.135386 0.170507 0.242939
H62   H     H_    0.322576 0.290175 0.117328 0.229974
H63   H     H_    0.564991 0.238224 0.092490 0.194238
H64   H     H_    0.556696 0.140451 0.168235 0.215435

loop_
_geom_bond_atom_site_label_1
_geom_bond_atom_site_label_2
_ccdc_geom_bond_type
C49   H48   S    
C45   C46   S    
C35   H24   S    
C43   H35   S    
C51   H57   S    
C38   H31   S    
C4    C25   S    
C53   H51   S    
C23   C51   S    
C39   H29   S    
Cu1   O7    S    
Cu2   O8    S    
C9    C35   S    
C35   C36   S    
C8    C32   S    
C49   H47   S    
C8    C10   A    
C53   H52   S    
C45   H42   S    
C29   H10   S    
C48   H49   S    
C23   C26   A    
C52   H54   S    
C34   H13   S    
C20   C24   A    
C49   C50   S    
C39   H30   S    
C54   H64   S    
C16   H4    S    
C5    C27   S    
C6    C28   S    
C48   C49   S    
C3    N4    A    
C55   C56   S    
C56   H60   S    
C22   C48   S    
C46   H41   S    
C36   C37   S    
C41   O9    D    
C50   H46   S    
C32   H17   S    
C33   H16   S    
C32   C33   S    
Cu1   O3    S    
Cu2   O4    S    
C35   H25   S    
C46   C47   S    
C1    C12   S    
C2    C11   S    
C38   H32   S    
C40   H27   S    
Cu2   O6    S    
C40   H26   S    
C7    C12   A    
C5    O8    A    
C6    O7    A    
C31   H5    S    
C17   C27   A    
C4    N6    A    
C18   C28   A    
C24   C25   A    
C7    C29   S    
C13   N2    A    
C51   H56   S    
C14   N1    A    
C37   H20   S    
C53   H53   S    
C55   H61   S    
C5    O5    A    
C30   H9    S    
C29   H11   S    
Cu1   O5    S    
C48   H50   S    
C31   H6    S    
C34   H14   S    
C19   C23   A    
Cu1   Cu2   S    
C32   H18   S    
C1    O4    A    
C2    O3    A    
C42   O10   D    
C30   C31   S    
C17   C41   S    
C46   H40   S    
C47   H38   S    
C19   C28   A    
C9    C11   A    
C51   C52   S    
C10   C12   A    
C1    O1    A    
C33   H15   S    
C29   C30   S    
C44   O12   D    
C36   H23   S    
C56   H58   S    
C54   C55   S    
C15   N2    A    
C47   H37   S    
C40   H28   S    
C19   C43   S    
C50   H44   S    
C7    C9    A    
C21   C25   A    
C6    O6    A    
Cu1   O1    S    
C18   C22   A    
C13   H1    S    
C3    C26   S    
Cu2   O2    S    
C14   H2    S    
C39   C40   S    
C37   H21   S    
C10   C38   S    
C43   O11   D    
C52   C53   S    
C20   C27   A    
Cu1   N1    S    
C30   H8    S    
Cu2   N2    S    
C31   H7    S    
C18   C42   S    
C45   H43   S    
C21   C45   S    
C37   H19   S    
C16   N1    A    
N4    N6    A    
C24   C54   S    
C2    O2    A    
C8    C11   A    
C42   H34   S    
C47   H39   S    
C52   H55   S    
C34   H12   S    
C17   C21   A    
C54   H63   S    
C3    N5    A    
C38   C39   S    
C20   C44   S    
C4    N3    A    
N3    N5    A    
C44   H36   S    
C22   C26   A    
C13   C16   A    
C36   H22   S    
C56   H59   S    
C14   C15   A    
C33   C34   S    
C41   H33   S    
C55   H62   S    
C15   H3    S    
C50   H45   S    
