data_mof_unit_22941.cif
_audit_creation_date              2012-12-10T18:16:20-0500
_audit_creation_method            fapswitch 2.2
_symmetry_space_group_name_H-M    P1
_symmetry_Int_Tables_number       1
_space_group_crystal_system       triclinic
_cell_length_a                    12.674951
_cell_length_b                    13.047645
_cell_length_c                    27.711061
_cell_angle_alpha                 92.500845
_cell_angle_beta                  103.385224
_cell_angle_gamma                 81.365612
_cell_volume                      4407.60152117

loop_
_atom_site_label
_atom_site_type_symbol
_atom_type_description
_atom_site_fract_x
_atom_site_fract_y
_atom_site_fract_z
_atom_type_partial_charge
C1    C     C_R   0.438664 0.691562 0.496451 0.846360
C2    C     C_R   0.485469 0.601057 0.026266 0.044957
C3    C     C_R   0.513352 0.409454 0.024753 0.045332
C4    C     C_R   0.501645 0.500758 0.593879 0.854517
C5    C     C_R   0.496119 0.504928 0.050363 0.071473
C6    C     C_R   0.474905 0.693692 0.054355 -0.213523
C7    C     C_R   0.470797 0.691971 0.103865 -0.135428
C8    C     C_R   0.477502 0.598026 0.127325 -0.022509
C9    C     C_R   0.489872 0.504227 0.100733 -0.051705
C10   C     C_R   0.496627 0.409689 0.124715 -0.022776
C11   C     C_R   0.492575 0.410680 0.174754 0.505441
C12   C     C_R   0.606386 0.516629 0.731948 -0.147802
C13   C     C_R   0.473999 0.595450 0.177326 0.503564
C14   C     C_R   0.579248 0.525129 0.285652 -0.111771
C15   C     C_R   0.583395 0.524303 0.336115 -0.180740
C16   C     C_R   0.561402 0.308619 0.506417 0.934858
C17   C     C_R   0.400324 0.475987 0.318478 -0.220224
C18   C     C_R   0.396498 0.476828 0.267947 -0.095356
C19   C     C_R   0.485855 0.501625 0.251601 0.318954
C20   C     C_R   0.486328 0.601529 0.975228 0.045465
C21   C     C_R   0.509205 0.506099 0.950391 0.071181
C22   C     C_R   0.526216 0.410191 0.975355 0.044929
C23   C     C_R   0.512556 0.505831 0.748413 0.323470
C24   C     C_R   0.464005 0.694383 0.947813 -0.213564
C25   C     C_R   0.563068 0.319452 0.900772 -0.137729
C26   C     C_R   0.515892 0.316161 0.049450 -0.214003
C27   C     C_R   0.507955 0.316494 0.098516 -0.136234
C28   C     C_R   0.498117 0.499880 0.406108 0.913428
C29   C     C_R   0.556456 0.317992 0.949965 -0.213636
C30   C     C_R   0.707462 0.068715 0.575148 0.195347
C31   C     C_R   0.598598 0.200034 0.517803 -0.079329
C32   C     C_R   0.298371 0.839252 0.463706 -0.185570
C33   C     C_R   0.269942 0.944541 0.454210 -0.133256
C34   C     C_R   0.514455 0.506490 0.899890 -0.050708
C35   C     C_R   0.344756 0.012154 0.473347 -0.178751
C36   C     C_R   0.447958 0.975404 0.504630 0.103484
C37   C     C_R   0.467894 0.872219 0.520595 0.095310
C38   C     C_R   0.532102 0.037472 0.520428 0.037266
C39   C     C_R   0.625978 0.003272 0.558532 0.152764
C40   C     C_R   0.495159 0.598762 0.823639 0.503618
C41   C     C_R   0.634728 0.905526 0.579287 -0.231777
C42   C     C_R   0.557045 0.840973 0.560513 -0.200944
C43   C     C_R   0.525808 0.131993 0.498100 -0.246990
C44   C     C_R   0.691267 0.168238 0.555157 -0.166343
C45   C     C_R   0.492943 0.600513 0.873897 -0.022313
C46   C     C_R   0.398942 0.802289 0.495489 -0.115490
C47   C     C_R   0.077013 0.401969 0.410164 -0.267852
C48   C     C_R   0.804414 0.616284 0.565803 0.024152
C49   C     C_R   0.909689 0.641834 0.580585 -0.244283
C50   C     C_R   0.988042 0.603244 0.554072 -0.160790
C51   C     C_R   0.961224 0.539157 0.512026 -0.028988
C52   C     C_R   0.542271 0.414659 0.824950 0.505172
C53   C     C_R   0.852171 0.515029 0.497659 0.142779
C54   C     C_R   0.039415 0.495455 0.484452 -0.015275
C55   C     C_R   0.002996 0.448170 0.437800 0.124677
C56   C     C_R   0.467477 0.693651 0.898159 -0.139451
C57   C     C_R   0.894090 0.437987 0.420998 -0.305825
C58   C     C_R   0.825754 0.453054 0.453732 0.367618
C59   C     C_R   0.152984 0.493465 0.501545 -0.025586
C60   C     C_R   0.187620 0.400044 0.429648 0.011602
C61   C     C_R   0.413829 0.493792 0.714375 0.234480
C62   C     C_R   0.411041 0.492185 0.663708 -0.203711
C63   C     C_R   0.602988 0.515184 0.681507 -0.224900
C64   C     C_3   0.312256 0.482834 0.731937 -0.894020
C65   C     C_3   0.808823 0.036219 0.615100 -0.914488
C66   C     C_R   0.540406 0.412759 0.875153 -0.023677
C67   C     C_R   0.505390 0.502642 0.647055 -0.076541
C68   C     C_R   0.493869 0.499855 0.352925 -0.034220
Cl1   Cl    Cl    0.751070 0.349029 0.445839 -0.613145
H1    H     H_    0.676797 0.523508 0.669582 0.167690
H2    H     H_    0.682010 0.525924 0.758406 0.146785
H3    H     H_    0.461187 0.157087 0.466288 0.156690
H4    H     H_    0.243442 0.786500 0.444957 0.164100
H5    H     H_    0.318708 0.092917 0.464144 0.137734
H6    H     H_    0.191752 0.973289 0.430133 0.154027
H7    H     H_    0.566753 0.766475 0.577942 0.155721
H8    H     H_    0.246281 0.367119 0.408374 0.131749
H9    H     H_    0.868898 0.396518 0.386336 0.193185
H10   H     H_    0.049702 0.365673 0.374406 0.147933
H11   H     H_    0.188381 0.530079 0.535872 0.120795
H12   H     H_    0.585478 0.246662 0.882795 0.190885
H13   H     H_    0.743875 0.645568 0.586694 0.122571
H14   H     H_    0.449223 0.766764 0.878736 0.190113
H15   H     H_    0.068145 0.626654 0.566403 0.137071
H16   H     H_    0.930593 0.691556 0.612630 0.148549
H17   H     H_    0.656416 0.543187 0.361804 0.168032
H18   H     H_    0.648530 0.543946 0.272879 0.139108
H19   H     H_    0.462883 0.765013 0.123787 0.191760
H20   H     H_    0.472164 0.769265 0.039616 0.143132
H21   H     H_    0.440645 0.769257 0.963177 0.143053
H22   H     H_    0.335179 0.482993 0.637353 0.161063
H23   H     H_    0.521670 0.241181 0.031627 0.143005
H24   H     H_    0.241657 0.474669 0.700408 0.234603
H25   H     H_    0.327525 0.413058 0.755473 0.256743
H26   H     H_    0.289623 0.552423 0.753924 0.251351
H27   H     H_    0.856076 0.964736 0.603247 0.243809
H28   H     H_    0.863404 0.096976 0.622794 0.248927
H29   H     H_    0.785301 0.021510 0.650082 0.245875
H30   H     H_    0.330268 0.456739 0.330473 0.158748
H31   H     H_    0.511169 0.242950 0.115903 0.190545
H32   H     H_    0.324252 0.458584 0.241471 0.141424
H33   H     H_    0.577708 0.243125 0.967299 0.143891
H34   H     H_    0.747679 0.222463 0.570278 0.167414
H35   H     H_    0.702386 0.877018 0.609408 0.158116
N1    N     N_R   0.518114 0.506591 0.800351 -0.350569
N2    N     N_R   0.482479 0.502651 0.199887 -0.357140
N3    N     N_R   0.222180 0.444690 0.474320 -0.105528
N4    N     N_R   0.776980 0.554780 0.525420 -0.116707
O1    O     O_R   0.366730 0.627160 0.487740 -0.612916
O2    O     O_R   0.410930 0.482330 0.420550 -0.635636
O3    O     O_R   0.589030 0.517690 0.436960 -0.582384
O4    O     O_2   0.473377 0.688008 0.797986 -0.561220
O5    O     O_2   0.462468 0.684743 0.203340 -0.555592
O6    O     O_2   0.566504 0.325508 0.800609 -0.558254
O7    O     O_2   0.500429 0.320608 0.198408 -0.553207
O8    O     O_R   0.544830 0.662520 0.504140 -0.612981
O9    O     O_R   0.410970 0.482310 0.563040 -0.624287
O10   O     O_R   0.589070 0.517670 0.579450 -0.640586
O11   O     O_R   0.455170 0.337480 0.495860 -0.623770
O12   O     O_R   0.633270 0.372840 0.512260 -0.552069
Zn1   Zn    Zn3+2 0.381080 0.476390 0.489050 0.944911
Zn2   Zn    Zn3+2 0.618920 0.523610 0.510950 0.980761

loop_
_geom_bond_atom_site_label_1
_geom_bond_atom_site_label_2
_ccdc_geom_bond_type
C10   C27   A    
C35   H5    S    
C43   H3    S    
C22   C29   A    
C41   C42   A    
C35   C36   A    
C47   H10   S    
C4    O10   A    
C34   C66   A    
C50   H15   S    
C7    C8    A    
C39   C41   A    
C16   C31   S    
C12   C23   A    
C26   C27   A    
C8    C13   A    
C31   C43   A    
C62   C67   A    
C36   C37   A    
C28   C68   S    
C65   H29   S    
C16   O12   A    
O2    Zn1   S    
C38   C39   A    
C14   H18   S    
C1    C46   S    
C26   H23   S    
C23   N1    S    
C18   C19   A    
O10   Zn2   S    
C37   C42   A    
O9    Zn1   S    
C1    O1    A    
C47   C60   A    
C33   H6    S    
C65   H27   S    
C20   C24   A    
C45   C56   A    
C8    C9    A    
C30   C39   A    
C1    O8    A    
C11   O7    S    
C9    C10   A    
C21   C22   A    
O3    Zn2   S    
C25   H12   S    
C30   C44   A    
C2    C6    A    
C14   C19   A    
C44   H34   S    
O12   Zn2   S    
C50   C51   A    
C54   C59   A    
O11   Zn1   S    
C28   O3    A    
C25   C29   A    
C40   C45   A    
C27   H31   S    
C63   C67   A    
C60   H8    S    
C31   C44   A    
C2    C20   A    
C49   H16   S    
C40   O4    S    
C16   O11   A    
C32   H4    S    
C12   C63   A    
C21   C34   A    
C28   O2    A    
C59   N3    A    
C51   C53   A    
C18   H32   S    
C61   C64   S    
C5    C9    A    
C7    H19   S    
C63   H1    S    
C62   H22   S    
C11   N2    A    
C17   C18   A    
C34   C45   A    
C17   H30   S    
C60   N3    A    
O8    Zn2   S    
C15   H17   S    
C48   C49   A    
C12   H2    S    
C52   N1    A    
C55   C57   A    
C4    O9    A    
C2    C5    A    
N3    Zn1   S    
C52   C66   A    
C56   H14   S    
C47   C55   A    
C54   C55   A    
C17   C68   A    
C32   C46   A    
C57   H9    S    
C3    C26   A    
C25   C66   A    
C64   H26   S    
N4    Zn2   S    
C13   N2    A    
C3    C5    A    
C24   H21   S    
C59   H11   S    
C64   H24   S    
C4    C67   S    
C53   C58   A    
C58   Cl1   S    
C6    C7    A    
C52   O6    S    
C24   C56   A    
C6    H20   S    
C42   H7    S    
C41   H35   S    
C51   C54   A    
C32   C33   A    
C36   C38   A    
C65   H28   S    
C38   C43   A    
C53   N4    A    
O1    Zn1   S    
C57   C58   A    
C48   N4    A    
C15   C68   A    
C33   C35   A    
C48   H13   S    
C29   H33   S    
C61   C62   A    
C30   C65   S    
C10   C11   A    
C64   H25   S    
C19   N2    S    
C23   C61   A    
C20   C21   A    
C49   C50   A    
C14   C15   A    
C3    C22   A    
C37   C46   A    
C13   O5    S    
C40   N1    A    
