data_mof_unit_68511.cif
_audit_creation_date              2012-12-11T17:40:59-0500
_audit_creation_method            fapswitch 2.2
_symmetry_space_group_name_H-M    P1
_symmetry_Int_Tables_number       1
_space_group_crystal_system       triclinic
_cell_length_a                    8.407338
_cell_length_b                    13.438507
_cell_length_c                    14.672933
_cell_angle_alpha                 94.693199
_cell_angle_beta                  91.161722
_cell_angle_gamma                 98.906196
_cell_volume                      1631.38562632

loop_
_atom_site_label
_atom_site_type_symbol
_atom_type_description
_atom_site_fract_x
_atom_site_fract_y
_atom_site_fract_z
_atom_type_partial_charge
Ba1   Ba    Ba6+2 0.855630 0.555280 0.454520 1.834125
Ba2   Ba    Ba6+2 0.334200 0.444810 0.545490 1.825447
C1    C     C_3   0.654280 0.919130 0.138501 0.403378
C2    C     C_R   0.188361 0.482537 0.191093 -0.044295
C3    C     C_R   0.353419 0.514584 0.214814 0.094425
C4    C     C_3   0.163885 0.770304 0.220981 0.348759
C5    C     C_R   0.455141 0.576398 0.160073 -0.056558
C6    C     C_R   0.401995 0.589572 0.071434 -0.155532
C7    C     C_R   0.248225 0.543512 0.036616 0.031408
C8    C     C_R   0.137938 0.490831 0.096178 -0.049625
C9    C     C_R   0.056910 0.502008 0.901836 -0.051554
C10   C     C_R   0.945431 0.451324 0.961816 0.005927
C11   C     C_R   0.013397 0.500665 0.804363 0.053040
C12   C     C_3   0.616997 0.825779 0.191782 0.282641
C13   C     C_R   0.862359 0.446117 0.773622 -0.164315
C14   C     C_R   0.750919 0.400258 0.833511 0.016623
C15   C     C_R   0.792325 0.405128 0.926746 -0.109490
C16   C     C_3   0.153478 0.848761 0.151772 0.589481
C17   C     C_R   0.205723 0.550402 0.942545 -0.016196
C18   C     C_R   0.772977 0.171279 0.549002 -0.247514
C19   C     C_R   0.460742 0.821943 0.464668 -0.181571
C20   C     C_R   0.409953 0.992051 0.459589 -0.130208
C21   C     C_R   0.355516 0.887701 0.440667 0.191303
C22   C     C_R   0.594964 0.851997 0.522813 -0.054856
C23   C     C_3   0.529048 0.230759 0.265712 0.648683
C24   C     C_R   0.657916 0.959604 0.541914 -0.089431
C25   C     C_R   0.562697 0.030520 0.503521 0.014461
C26   C     C_R   0.618801 0.138751 0.512483 0.072491
C27   C     C_R   0.870988 0.106960 0.583703 0.031312
C28   C     C_3   0.248085 0.753151 0.676841 0.269162
C29   C     C_R   0.811090 0.002702 0.590791 0.280696
C30   C     C_3   0.346548 0.850055 0.718450 -0.235388
C31   C     C_3   0.948068 0.253466 0.352680 0.739452
C32   C     C_3   0.925803 0.138994 0.336610 -0.227071
C33   C     C_3   0.667845 0.665062 0.731726 0.650469
C34   C     C_3   0.649676 0.200032 0.197970 0.365673
C35   C     C_3   0.634549 0.681936 0.833060 0.175982
C36   C     C_3   0.073288 0.245951 0.800549 0.399861
C37   C     C_3   0.025874 0.215636 0.895441 -0.255888
C38   C     C_3   0.482567 0.173271 0.853562 0.676637
C39   C     C_3   0.353813 0.098843 0.894865 -0.148861
C40   C     C_R   0.985722 0.446732 0.056659 -0.019766
H1    H     H_    0.621967 0.849900 0.266275 -0.046610
H2    H     H_    0.763992 0.968822 0.165335 0.091578
H3    H     H_    0.703905 0.756385 0.858302 0.176436
H4    H     H_    0.504593 0.684173 0.841111 0.067167
H5    H     H_    0.493823 0.787599 0.171686 0.050478
H6    H     H_    0.555756 0.963319 0.147352 0.045148
H7    H     H_    0.573735 0.308600 0.285346 0.046220
H8    H     H_    0.759299 0.257197 0.200805 -0.055358
H9    H     H_    0.680507 0.125727 0.211529 -0.017436
H10   H     H_    0.169511 0.312351 0.806939 0.069488
H11   H     H_    0.973422 0.275938 0.769279 -0.043078
H12   H     H_    0.442610 0.832342 0.764003 0.130455
H13   H     H_    0.109617 0.259896 0.948776 0.087064
H14   H     H_    0.902827 0.230821 0.908548 0.142419
H15   H     H_    0.024660 0.133898 0.901479 0.204700
H16   H     H_    0.578877 0.205887 0.902833 0.078237
H17   H     H_    0.406699 0.035697 0.920800 0.144511
H18   H     H_    0.260587 0.063683 0.842729 0.145368
H19   H     H_    0.036749 0.738787 0.233254 0.045230
H20   H     H_    0.294768 0.138159 0.950686 0.153830
H21   H     H_    0.482294 0.634816 0.029006 0.147146
H22   H     H_    0.704222 0.372798 0.972287 0.119975
H23   H     H_    0.399709 0.894779 0.663527 0.140881
H24   H     H_    0.826864 0.443925 0.702086 0.053435
H25   H     H_    0.898834 0.405265 0.098618 0.097495
H26   H     H_    0.291585 0.592002 0.900710 0.118010
H27   H     H_    0.330887 0.043288 0.440422 0.126442
H28   H     H_    0.815543 0.251349 0.554064 -0.022142
H29   H     H_    0.214169 0.706370 0.186426 -0.068523
H30   H     H_    0.421549 0.742846 0.449782 0.103944
H31   H     H_    0.051151 0.817245 0.103637 0.064888
H32   H     H_    0.325998 0.711090 0.632827 -0.014201
H33   H     H_    0.145804 0.771099 0.637368 0.167409
H34   H     H_    0.270389 0.894326 0.761188 0.191012
H35   H     H_    0.995785 0.326585 0.471801 0.293214
H36   H     H_    0.894889 0.686564 0.763805 0.321445
H37   H     H_    0.713106 0.634862 0.944341 0.335155
H38   H     H_    0.293695 0.207062 0.275741 0.377531
H39   H     H_    0.544282 0.344502 0.103316 0.305983
H40   H     H_    0.463030 0.861945 0.931275 0.348477
H41   H     H_    0.265969 0.902393 0.049066 0.350973
H42   H     H_    0.712025 0.226960 0.709176 0.275908
H43   H     H_    0.325803 0.602960 0.373949 0.280601
H44   H     H_    0.118560 0.945136 0.577156 0.284762
H45   H     H_    0.829133 0.277915 0.362169 -0.211378
H46   H     H_    0.364220 0.993578 0.248318 0.345791
H47   H     H_    0.814129 0.103279 0.367094 -0.018497
H48   H     H_    0.029438 0.109271 0.366798 0.150592
H49   H     H_    0.920005 0.116610 0.262452 0.173969
H50   H     H_    0.578709 0.601045 0.702090 0.072242
O1    O     O_2   0.887370 0.460630 0.272300 -0.463604
O2    O     O_2   0.216931 0.137003 0.577889 -0.419582
O3    O     O_3   0.122503 0.163844 0.747318 -0.484061
O4    O     O_3   0.129410 0.451380 0.388510 -0.397749
O5    O     O_3   0.575400 0.626570 0.547370 -0.447220
O6    O     O_2   0.344320 0.238700 0.455090 -0.376209
O7    O     O_3   0.533977 0.171838 0.338547 -0.715319
O8    O     O_2   0.446679 0.441790 0.822204 -0.447421
O9    O     O_3   0.407969 0.250517 0.822387 -0.620512
O10   O     O_3   0.670210 0.653170 0.329170 -0.404843
O11   O     O_2   0.787821 0.581159 0.174939 -0.473951
O12   O     O_3   0.655391 0.755271 0.692338 -0.626520
O13   O     O_3   0.018014 0.294623 0.274429 -0.607020
O14   O     O_3   0.730018 0.761561 0.172267 -0.577763
O15   O     O_2   0.845380 0.761330 0.544970 -0.436999
O16   O     O_3   0.088930 0.704860 0.376040 -0.414860
O17   O     O_2   0.160476 0.786803 0.485889 -0.540194
O18   O     O_3   0.048114 0.279781 0.431088 -0.675981
O19   O     O_3   0.821486 0.641050 0.719394 -0.734881
O20   O     O_3   0.680813 0.605013 0.881416 -0.747815
O21   O     O_3   0.371818 0.217606 0.226487 -0.606805
O22   O     O_2   0.719265 0.174510 0.028138 -0.322773
O23   O     O_3   0.260023 0.804730 0.303331 -0.641756
O24   O     O_2   0.453919 0.093461 0.076476 -0.267634
O25   O     O_3   0.492797 0.287468 0.060217 -0.542021
O26   O     O_2   0.717905 0.981786 0.971565 -0.179215
O27   O     O_2   0.813221 0.827353 0.007424 -0.303999
O28   O     O_3   0.505861 0.818958 0.974415 -0.565560
O29   O     O_3   0.292408 0.865123 0.101641 -0.757660
O30   O     O_2   0.597538 0.005022 0.794657 -0.258487
O31   O     O_2   0.453057 0.086894 0.682500 -0.304819
O32   O     O_3   0.739669 0.170602 0.741764 -0.580765
O33   O     O_2   0.355208 0.377882 0.339247 -0.300788
O34   O     O_2   0.302330 0.539400 0.727760 -0.498902
O35   O     O_2   0.608281 0.472676 0.308549 -0.275543
O36   O     O_3   0.408467 0.566951 0.399147 -0.462959
O37   O     O_2   0.920416 0.010302 0.764328 -0.182186
O38   O     O_2   0.913613 0.845527 0.698141 -0.275492
O39   O     O_3   0.124423 0.969483 0.642638 -0.531147
O40   O     O_2   0.075583 0.032466 0.133713 -0.228599
O41   O     O_2   0.969330 0.940362 0.263457 -0.445811
O42   O     O_3   0.269556 0.021558 0.271684 -0.526863
O43   O     O_3   0.060300 0.548700 0.611500 -0.468228
O44   O     O_3   0.519500 0.346920 0.670840 -0.475787
O45   O     O_3   0.184754 0.700561 0.748394 -0.635893
O46   O     O_3   0.614310 0.373510 0.452640 -0.407782
O47   O     O_3   0.100780 0.295230 0.623970 -0.507109
P1    P     P_3+3 0.054400 0.427280 0.286870 1.094698
P2    P     P_3+3 0.668300 0.742890 0.573060 1.081334
P3    P     P_3+3 0.138571 0.835837 0.396317 0.941013
P4    P     P_3+3 0.135310 0.572810 0.713130 1.012430
P5    P     P_3+3 0.075174 0.170106 0.631306 1.172688
P6    P     P_3+3 0.656693 0.643086 0.207898 1.041763
P7    P     P_3+3 0.531714 0.237263 0.446507 1.019245
P8    P     P_3+3 0.539151 0.355718 0.790464 1.001646
S1    S     S_3+6 0.577490 0.187040 0.085722 -0.100587
S2    S     S_3+6 0.677644 0.887323 0.019684 -0.020256
S3    S     S_3+6 0.565398 0.104168 0.764604 -0.086780
S4    S     S_3+6 0.434540 0.478962 0.316126 -0.056007
S5    S     S_3+6 0.933327 0.950980 0.674628 -0.033917
S6    S     S_3+6 0.112227 0.964411 0.205093 -0.091886

loop_
_geom_bond_atom_site_label_1
_geom_bond_atom_site_label_2
_ccdc_geom_bond_type
O27   S2    D    
C29   S5    S    
C8    C40   A    
C9    C11   A    
C1    H6    S    
H40   O28   S    
O16   P3    S    
C33   O19   S    
C5    C6    A    
C9    C17   A    
C24   C25   A    
O14   P6    S    
H37   O20   S    
C14   P8    S    
O41   S6    D    
Ba2   O47   S    
O30   S3    D    
C4    H19   S    
C33   C35   S    
C22   C24   A    
C15   H22   S    
C36   C37   S    
C28   H32   S    
H44   O39   S    
O42   S6    S    
C36   H10   S    
O8    P8    D    
C13   C14   A    
C37   H15   S    
H39   O25   S    
O34   P4    D    
Ba1   Ba2   S    
C32   H49   S    
C35   O20   S    
C10   C40   A    
O33   S4    D    
O35   S4    D    
C38   O9    S    
C7    C17   A    
C37   H13   S    
Ba2   O5    S    
C6    C7    A    
C36   O3    S    
C21   P3    S    
O17   P3    D    
O15   P2    D    
C7    C8    A    
C20   H27   S    
C33   H50   S    
O43   P4    S    
O45   P4    S    
O23   P3    S    
O3    P5    S    
C28   O45   S    
Ba2   P4    S    
C18   H28   S    
O39   S5    S    
C39   H20   S    
C30   H12   S    
C34   S1    S    
C31   C32   S    
C18   C27   A    
C4    H29   S    
C4    C16   S    
C1    H2    S    
C1    S2    S    
C38   H16   S    
C19   H30   S    
Ba2   O46   S    
C31   O13   S    
C39   H17   S    
O37   S5    D    
C33   O12   S    
Ba1   O5    S    
O24   S1    D    
C14   C15   A    
O25   S1    S    
O6    P7    D    
C27   P5    S    
Ba2   O44   S    
C10   C15   A    
O26   S2    D    
C32   H48   S    
O4    P1    S    
C23   O21   S    
C2    P1    S    
O47   P5    S    
O36   S4    S    
C37   H14   S    
C22   P2    S    
C27   C29   A    
C16   S6    S    
O40   S6    D    
O28   S2    S    
C38   S3    S    
C17   H26   S    
H41   O29   S    
Ba1   P1    S    
O5    P2    S    
H36   O19   S    
C34   H9    S    
Ba1   O15   S    
Ba2   O34   S    
C38   C39   S    
O7    P7    S    
C16   H31   S    
C20   C25   A    
C19   C21   A    
O38   S5    D    
C40   H25   S    
C6    H21   S    
C35   H3    S    
C34   H8    S    
O11   P6    D    
C3    C5    A    
O32   S3    S    
O9    P8    S    
C23   C34   S    
O12   P2    S    
C24   C29   A    
C39   H18   S    
C2    C3    A    
C30   H34   S    
C9    C10   A    
C12   H5    S    
C1    C12   S    
H42   O32   S    
C18   C26   A    
C16   O29   S    
C26   P7    S    
Ba2   O43   S    
C3    S4    S    
O2    P5    D    
C11   C13   A    
C31   H45   S    
C32   H47   S    
H46   O42   S    
O10   P6    S    
O1    P1    D    
O13   P1    S    
C28   C30   S    
C28   H33   S    
C13   H24   S    
C36   H11   S    
O46   P7    S    
Ba1   O4    S    
Ba2   O4    S    
C11   P4    S    
H35   O18   S    
C23   H7    S    
C4    O23   S    
O31   S3    D    
O44   P8    S    
Ba1   P2    S    
Ba1   O16   S    
O22   S1    D    
C23   O7    S    
C12   O14   S    
H38   O21   S    
Ba2   O6    S    
Ba1   O1    S    
C19   C22   A    
C25   C26   A    
C20   C21   A    
C12   H1    S    
H43   O36   S    
C31   O18   S    
C35   H4    S    
Ba1   O43   S    
C2    C8    A    
Ba1   O10   S    
Ba1   O46   S    
C30   H23   S    
C5    P6    S    
