data_mof_unit_31180.cif
_audit_creation_date              2012-12-10T18:52:56-0500
_audit_creation_method            fapswitch 2.2
_symmetry_space_group_name_H-M    P1
_symmetry_Int_Tables_number       1
_space_group_crystal_system       triclinic
_cell_length_a                    9.892122
_cell_length_b                    10.782435
_cell_length_c                    16.828703
_cell_angle_alpha                 92.205731
_cell_angle_beta                  85.83734
_cell_angle_gamma                 88.957467
_cell_volume                      1788.51071638

loop_
_atom_site_label
_atom_site_type_symbol
_atom_type_description
_atom_site_fract_x
_atom_site_fract_y
_atom_site_fract_z
_atom_type_partial_charge
C1    C     C_R   0.498123 0.739663 0.496157 0.873734
C2    C     C_R   0.502196 0.259692 0.495673 0.873415
C3    C     C_R   0.618503 0.928202 0.474950 -0.259333
C4    C     C_R   0.379587 0.068709 0.490098 -0.270481
C5    C     C_R   0.627110 0.055166 0.472292 0.184666
C6    C     C_R   0.370863 0.941337 0.485882 0.108608
C7    C     C_R   0.505369 0.126379 0.486647 -0.093979
C8    C     C_R   0.493680 0.871277 0.486174 -0.101767
C9    C     C_R   0.933937 0.428179 0.446402 -0.136151
C10   C     C_R   0.065957 0.569420 0.555223 -0.147811
C11   C     C_R   0.077096 0.429163 0.444289 0.210409
C12   C     C_R   0.922815 0.574600 0.553908 0.162515
C13   C     C_R   0.481717 0.495969 0.652610 0.862466
C14   C     C_R   0.518858 0.500012 0.347157 0.837062
C15   C     C_R   0.470406 0.464114 0.735529 -0.025492
C16   C     C_R   0.533871 0.484918 0.261182 -0.020030
C17   C     C_R   0.572447 0.390297 0.764354 -0.213484
C18   C     C_R   0.438428 0.537075 0.214576 -0.250788
C19   C     C_R   0.557824 0.349712 0.841443 -0.158588
C20   C     C_R   0.443835 0.506695 0.133628 -0.145670
C21   C     C_R   0.442886 0.386206 0.891151 0.208501
C22   C     C_R   0.546555 0.425742 0.099091 0.201872
C23   C     C_R   0.337615 0.454249 0.861050 -0.175138
C24   C     C_R   0.648725 0.382660 0.144451 -0.174207
C25   C     C_R   0.351137 0.492991 0.783211 -0.201317
C26   C     C_R   0.642187 0.411843 0.225490 -0.200924
C27   C     C_2   0.440320 0.373400 0.977070 -0.245164
C28   C     C_2   0.553221 0.392321 0.014518 -0.241346
N1    N     N_R   0.142790 0.500030 0.500020 -0.111292
N2    N     N_R   0.857210 0.499970 0.499980 -0.112605
O1    O     O_R   0.385380 0.683250 0.500010 -0.622922
O2    O     O_R   0.614620 0.316750 0.499990 -0.626845
O3    O     O_R   0.614710 0.683220 0.500000 -0.630146
O4    O     O_R   0.385290 0.316780 0.500000 -0.639176
O5    O     O_R   0.371780 0.500040 0.615800 -0.610854
O6    O     O_R   0.628220 0.499960 0.384200 -0.620943
O7    O     O_R   0.601110 0.500010 0.615800 -0.642156
O8    O     O_R   0.398890 0.499990 0.384200 -0.636411
Zn1   Zn    Zn3+2 0.346870 0.500020 0.500000 0.922215
Zn2   Zn    Zn3+2 0.653130 0.499980 0.500000 0.919032
H1    H     H_    0.662479 0.362368 0.726955 0.155322
H2    H     H_    0.359678 0.600046 0.240770 0.134956
H3    H     H_    0.719325 0.374044 0.260492 0.143454
H4    H     H_    0.269889 0.547137 0.760725 0.142848
H5    H     H_    0.652079 0.394852 0.982118 0.150216
H6    H     H_    0.342402 0.372857 0.010900 0.148897
H7    H     H_    0.248340 0.482776 0.898938 0.121972
H8    H     H_    0.730957 0.323761 0.117636 0.128580
H9    H     H_    0.368588 0.546904 0.098075 0.131551
H10   H     H_    0.638165 0.293319 0.862873 0.127247
H11   H     H_    0.710792 0.872632 0.465262 0.175176
H12   H     H_    0.286124 0.123357 0.494579 0.165533
C29   C     C_3   0.765370 0.105226 0.446130 -0.398836
C30   C     C_3   0.769807 0.147980 0.360024 -0.356193
C31   C     C_3   0.741202 0.043670 0.299805 -0.837687
H13   H     H_    0.811432 0.963355 0.305192 0.256665
H14   H     H_    0.634850 0.013047 0.309247 0.266028
H15   H     H_    0.756202 0.078000 0.238476 0.236978
H16   H     H_    0.695536 0.225192 0.355634 0.224358
H17   H     H_    0.872785 0.181814 0.343664 0.196796
H18   H     H_    0.796704 0.179537 0.487676 0.194217
H19   H     H_    0.846310 0.032879 0.448754 0.170435
C32   C     C_3   0.230604 0.888469 0.476390 -0.388634
C33   C     C_3   0.219350 0.836743 0.390704 -0.306086
C34   C     C_3   0.077853 0.788760 0.378590 -0.906192
H20   H     H_    0.000846 0.864623 0.390305 0.248365
H21   H     H_    0.073547 0.752844 0.316119 0.248298
H22   H     H_    0.053531 0.712252 0.418948 0.275144
H23   H     H_    0.241327 0.911675 0.348332 0.210195
H24   H     H_    0.294432 0.760171 0.375701 0.235372
H25   H     H_    0.203804 0.819321 0.521546 0.213240
H26   H     H_    0.150829 0.962320 0.488203 0.173604
H27   H     H_    0.883130 0.371870 0.404144 0.145153
H28   H     H_    0.116528 0.623700 0.599153 0.137604
C35   C     C_3   0.151077 0.349544 0.378637 -0.405470
C36   C     C_3   0.157760 0.412630 0.298012 -0.314310
C37   C     C_3   0.028623 0.402075 0.253911 -0.920231
H29   H     H_    0.996480 0.304190 0.249293 0.254988
H30   H     H_    0.946087 0.461383 0.284052 0.267858
H31   H     H_    0.048386 0.435326 0.192595 0.249745
H32   H     H_    0.179832 0.512459 0.307088 0.238755
H33   H     H_    0.241822 0.367866 0.259148 0.223836
H34   H     H_    0.254528 0.326861 0.393015 0.230607
H35   H     H_    0.101945 0.257948 0.373314 0.159465
C38   C     C_3   0.848932 0.665697 0.613309 -0.384792
C39   C     C_3   0.893938 0.799851 0.600709 -0.398422
C40   C     C_3   0.802298 0.893252 0.650552 -0.876709
H36   H     H_    0.695649 0.885361 0.634771 0.266281
H37   H     H_    0.807316 0.876736 0.715019 0.261306
H38   H     H_    0.836225 0.988909 0.638934 0.247925
H39   H     H_    0.999183 0.811547 0.618150 0.210280
H40   H     H_    0.892189 0.821238 0.536834 0.228524
H41   H     H_    0.739591 0.664010 0.609708 0.273842
H42   H     H_    0.869193 0.639422 0.674639 0.172474

loop_
_geom_bond_atom_site_label_1
_geom_bond_atom_site_label_2
_ccdc_geom_bond_type
C40   H36   S    
C1    C8    S    
C38   H41   S    
C2    C7    S    
C10   N1    A    
C31   H13   S    
C1    O3    A    
C30   H17   S    
C37   H29   S    
C12   C38   S    
C4    H12   S    
C22   C24   A    
C5    C29   S    
C19   C21   A    
C24   C26   A    
C13   O5    A    
O7    Zn2   S    
C39   H39   S    
C18   H2    S    
C14   O6    A    
O8    Zn1   S    
C35   H35   S    
C15   C25   A    
C1    O1    A    
C2    O2    A    
C29   H19   S    
C29   H18   S    
C34   H21   S    
C33   H24   S    
C13   O7    A    
C2    O4    A    
C23   C25   A    
C21   C27   S    
C22   C28   S    
C9    H27   S    
C4    C7    A    
C25   H4    S    
C26   H3    S    
C30   H16   S    
C37   H30   S    
C21   C23   A    
C16   C26   A    
C28   H5    S    
O3    Zn2   S    
C23   H7    S    
O4    Zn1   S    
C24   H8    S    
O6    Zn2   S    
C36   C37   S    
C4    C6    A    
C3    C8    A    
C36   H33   S    
C5    C7    A    
C3    H11   S    
C39   C40   S    
C6    C8    A    
C38   C39   S    
C6    C32   S    
O5    Zn1   S    
C35   C36   S    
C20   H9    S    
C14   O8    A    
C38   H42   S    
C34   H22   S    
N1    Zn1   S    
N2    Zn2   S    
C33   H23   S    
C9    C11   A    
C10   C12   A    
C9    N2    A    
C27   H6    S    
C32   H25   S    
C13   C15   S    
C14   C16   S    
C31   H15   S    
C37   H31   S    
C15   C17   A    
C30   C31   S    
C12   N2    A    
C20   C22   A    
C3    C5    A    
C36   H32   S    
C29   C30   S    
C33   C34   S    
C31   H14   S    
C11   C35   S    
C10   H28   S    
C19   H10   S    
C35   H34   S    
C17   C19   A    
O1    Zn1   S    
C18   C20   A    
O2    Zn2   S    
C17   H1    S    
C32   C33   S    
C32   H26   S    
C11   N1    A    
C16   C18   A    
C34   H20   S    
C40   H38   S    
C27   C28   D    
C40   H37   S    
C39   H40   S    
