data_mof_unit_11365.cif
_audit_creation_date              2012-12-11T15:45:02-0500
_audit_creation_method            fapswitch 2.2
_symmetry_space_group_name_H-M    P1
_symmetry_Int_Tables_number       1
_space_group_crystal_system       triclinic
_cell_length_a                    19.332487
_cell_length_b                    11.00374
_cell_length_c                    18.679961
_cell_angle_alpha                 89.975565
_cell_angle_beta                  90.752588
_cell_angle_gamma                 90.031994
_cell_volume                      3973.43799609

loop_
_atom_site_label
_atom_site_type_symbol
_atom_type_description
_atom_site_fract_x
_atom_site_fract_y
_atom_site_fract_z
_atom_type_partial_charge
C1    C     C_R   0.773869 0.482399 0.638208 0.565079
C2    C     C_R   0.166330 0.082971 0.554798 -0.158380
C3    C     C_R   0.522258 0.949818 0.956916 0.030138
C4    C     C_R   0.012528 0.230378 0.957453 -0.171597
C5    C     C_R   0.014666 0.230676 0.032273 -0.168117
C6    C     C_R   0.517565 0.730601 0.955778 -0.165678
C7    C     C_R   0.521779 0.730264 0.030612 -0.161117
C8    C     C_3   0.988771 0.567033 0.038677 -0.279417
C9    C     C_3   0.984456 0.569667 0.958028 -0.269181
C10   C     C_3   0.489698 0.066271 0.038616 -0.278536
C11   C     C_3   0.484870 0.069817 0.957943 -0.268472
C12   C     C_R   0.760269 0.533263 0.851546 0.555440
C13   C     C_R   0.333658 0.582939 0.445232 -0.158331
C14   C     C_R   0.237602 0.526751 0.145771 0.546287
C15   C     C_R   0.261559 0.029154 0.853289 0.544845
C16   C     C_R   0.737322 0.025790 0.145423 0.554257
C17   C     C_R   0.772355 0.124010 0.852001 0.545952
C18   C     C_R   0.227352 0.126195 0.147294 0.557368
C19   C     C_R   0.272583 0.624412 0.852143 0.553133
C20   C     C_R   0.725221 0.631470 0.145010 0.547848
C21   C     C_R   0.971496 0.347071 0.852437 0.544459
C22   C     C_R   0.032094 0.346965 0.144976 0.544867
C23   C     C_R   0.471764 0.847098 0.852232 0.546389
C24   C     C_R   0.725844 0.435623 0.517784 -0.175947
C25   C     C_R   0.533384 0.846969 0.144261 0.542635
C26   C     C_R   0.734800 0.011255 0.437059 0.004864
C27   C     C_R   0.229574 0.115441 0.588232 0.001875
C28   C     C_R   0.270439 0.615367 0.411768 0.001860
C29   C     C_R   0.765233 0.511178 0.562953 0.005139
C30   C     C_R   0.699988 0.108218 0.466266 0.034327
C31   C     C_R   0.265563 0.207688 0.554969 0.002434
C32   C     C_R   0.234498 0.707622 0.444978 0.002373
C33   C     C_R   0.799993 0.608292 0.533730 0.034343
C34   C     C_R   0.708172 0.136029 0.538253 -0.015616
C35   C     C_3   0.624150 0.112884 0.471210 -0.231573
C36   C     C_R   0.251892 0.239869 0.483375 -0.002444
C37   C     C_R   0.248170 0.739820 0.516555 -0.002515
C38   C     C_R   0.791784 0.636117 0.461743 -0.015776
C39   C     C_1   0.811531 0.875293 0.604748 0.196875
C40   C     C_1   0.104628 0.028844 0.445577 0.229916
C41   C     C_1   0.395363 0.528921 0.554469 0.230093
C42   C     C_1   0.688372 0.375266 0.395336 0.196691
C43   C     C_3   0.339929 0.213838 0.546557 -0.263033
C44   C     C_3   0.160133 0.713884 0.453355 -0.262914
C45   C     C_3   0.875828 0.613259 0.528779 -0.231541
C46   C     C_3   0.633153 0.142320 0.549274 -0.285905
C47   C     C_3   0.326179 0.252123 0.469968 -0.255875
C48   C     C_3   0.173896 0.752214 0.529927 -0.255875
C49   C     C_R   0.242110 0.538396 0.351848 0.536447
C50   C     C_3   0.866795 0.642654 0.450699 -0.285920
C51   C     C_R   0.749984 0.066799 0.582062 0.012733
C52   C     C_R   0.204792 0.173128 0.441647 -0.012443
C53   C     C_R   0.295204 0.673075 0.558339 -0.012266
C54   C     C_R   0.749980 0.566802 0.417962 0.012474
C55   C     C_R   0.002664 0.350216 0.427472 -0.034091
C56   C     C_R   0.007217 0.329574 0.577971 -0.038345
C57   C     C_R   0.492803 0.829439 0.422059 -0.038732
C58   C     C_R   0.497343 0.850295 0.572540 -0.033875
C59   C     C_R   0.947795 0.150646 0.419125 -0.062235
C60   C     C_R   0.257897 0.038434 0.648150 0.536299
C61   C     C_R   0.977805 0.109904 0.563359 -0.070342
C62   C     C_R   0.522373 0.609919 0.436866 -0.070592
C63   C     C_R   0.552302 0.650909 0.581081 -0.062173
C64   C     C_R   0.928985 0.041218 0.450896 -0.084288
C65   C     C_R   0.947162 0.018676 0.521981 -0.108913
C66   C     C_R   0.553029 0.518833 0.478341 -0.108985
C67   C     C_R   0.571160 0.541499 0.549417 -0.084313
C68   C     C_R   0.989531 0.227033 0.534526 0.006112
C69   C     C_R   0.981066 0.242090 0.459752 -0.002731
C70   C     C_R   0.519007 0.742205 0.540359 -0.002579
C71   C     C_R   0.726150 0.982470 0.361804 0.564836
C72   C     C_R   0.510567 0.727029 0.465595 0.005790
C73   C     C_R   0.029048 0.437908 0.545143 0.001833
C74   C     C_R   0.016781 0.454166 0.471418 0.010683
C75   C     C_R   0.483156 0.954122 0.528506 0.010710
C76   C     C_R   0.470897 0.937728 0.454796 0.001812
C77   C     C_R   0.772308 0.121038 0.648537 0.547423
C78   C     C_R   0.206291 0.174959 0.360893 0.562612
C79   C     C_R   0.293696 0.674927 0.639098 0.562400
C80   C     C_R   0.727687 0.621006 0.351463 0.548276
C81   C     C_R   0.050164 0.538613 0.587051 -0.079210
C82   C     C_R   0.779492 0.959991 0.555579 -0.031017
C83   C     C_R   0.012772 0.576136 0.445926 -0.103614
C84   C     C_R   0.487139 0.076126 0.553887 -0.103604
C85   C     C_R   0.449744 0.038324 0.412801 -0.079124
C86   C     C_R   0.035629 0.655602 0.563757 -0.135191
C87   C     C_R   0.018198 0.674750 0.492647 -0.164108
C88   C     C_R   0.481749 0.174659 0.507058 -0.164200
C89   C     C_R   0.464313 0.155371 0.435967 -0.135126
C90   C     C_R   0.741719 0.050310 0.069151 0.013807
C91   C     C_R   0.255378 0.058109 0.928642 0.021898
C92   C     C_R   0.242721 0.553235 0.069849 0.019275
C93   C     C_R   0.156333 0.102300 0.480826 -0.032935
C94   C     C_R   0.745214 0.589983 0.919995 0.016827
C95   C     C_R   0.793197 0.990166 0.031541 0.041124
C96   C     C_R   0.216204 0.978739 0.970256 0.046440
C97   C     C_R   0.295552 0.495958 0.032700 0.036104
C98   C     C_R   0.685194 0.555205 0.956167 0.031034
C99   C     C_R   0.797903 0.999729 0.958660 0.031002
C100  C     C_R   0.213754 0.988846 0.043377 0.018025
C101  C     C_R   0.300427 0.505184 0.959917 0.022706
C102  C     C_R   0.681399 0.565710 0.029048 0.040144
C103  C     C_R   0.691203 0.112402 0.954743 -0.164163
C104  C     C_R   0.343648 0.602278 0.519198 -0.032803
C105  C     C_R   0.297361 0.151489 0.038238 -0.164284
C106  C     C_R   0.191866 0.612110 0.955007 -0.154406
C107  C     C_R   0.791517 0.666910 0.032669 -0.159803
C108  C     C_R   0.687014 0.103167 0.029603 -0.161652
C109  C     C_R   0.299884 0.139895 0.963659 -0.173945
C110  C     C_R   0.187384 0.603067 0.029830 -0.153110
C111  C     C_R   0.795510 0.657250 0.957884 -0.163928
C112  C     C_3   0.869575 0.991951 0.043331 -0.276932
C113  C     C_3   0.141516 0.945820 0.963675 -0.265246
C114  C     C_3   0.371843 0.501588 0.044859 -0.278533
C115  C     C_R   0.720466 0.459937 0.444478 -0.031240
C116  C     C_3   0.646571 0.436812 0.957573 -0.269774
C117  C     C_3   0.875366 0.002936 0.963059 -0.270158
C118  C     C_3   0.139015 0.952972 0.044389 -0.270478
C119  C     C_3   0.377821 0.512688 0.964553 -0.269325
C120  C     C_3   0.642778 0.449586 0.037892 -0.278213
C121  C     C_R   0.750969 0.071571 0.919816 0.017809
C122  C     C_R   0.249675 0.082181 0.078087 0.014690
C123  C     C_R   0.252238 0.573515 0.920532 0.017116
C124  C     C_R   0.736487 0.611439 0.069304 0.017074
C125  C     C_R   0.972764 0.344069 0.648108 0.520621
C126  C     C_R   0.774147 0.935724 0.482273 -0.175999
C127  C     C_R   0.029312 0.348162 0.353547 0.525803
C128  C     C_R   0.470685 0.848216 0.646455 0.525307
C129  C     C_R   0.527247 0.844008 0.351906 0.521707
C130  C     C_R   0.016189 0.341563 0.069497 0.020750
C131  C     C_R   0.007834 0.341146 0.920351 0.018854
C132  C     C_R   0.519930 0.840980 0.068290 0.018007
C133  C     C_R   0.509478 0.841599 0.919408 0.018167
C134  C     C_R   0.025002 0.448409 0.030778 0.043796
C135  C     C_R   0.021273 0.449196 0.957729 0.027203
C136  C     C_R   0.526594 0.948523 0.029872 0.041681
Cr1   Cr    Cr6+3 0.885860 0.491680 0.749630 1.025068
Cr2   Cr    Cr6+3 0.112430 0.179310 0.249850 1.026454
Cr3   Cr    Cr6+3 0.387570 0.679310 0.750150 1.025559
Cr4   Cr    Cr6+3 0.612430 0.679310 0.249850 1.010528
Cr5   Cr    Cr6+3 0.114140 0.491680 0.250370 1.004099
Cr6   Cr    Cr6+3 0.385860 0.991680 0.749630 1.001171
Cr7   Cr    Cr6+3 0.614140 0.991680 0.250370 1.028810
Cr8   Cr    Cr6+3 0.730490 0.332970 0.748720 0.996761
Cr9   Cr    Cr6+3 0.269510 0.332970 0.251280 0.995794
Cr10  Cr    Cr6+3 0.230490 0.832970 0.748720 0.996155
Cr11  Cr    Cr6+3 0.769510 0.832970 0.251280 0.999819
Cr12  Cr    Cr6+3 0.887570 0.179310 0.750150 1.007490
H1    H     H_    0.041691 0.732082 0.599775 0.111687
H2    H     H_    0.334239 0.197735 0.933487 0.122572
H3    H     H_    0.142150 0.637708 0.056244 0.126172
H4    H     H_    0.839979 0.694121 0.930871 0.122100
H5    H     H_    0.889910 0.904552 0.064569 0.136072
H6    H     H_    0.133112 0.853107 0.942623 0.137931
H7    H     H_    0.393273 0.414992 0.066222 0.134529
H8    H     H_    0.679290 0.359227 0.941481 0.166318
H9    H     H_    0.887403 0.074325 0.072706 0.137909
H10   H     H_    0.110589 0.017557 0.936299 0.136514
H11   H     H_    0.388375 0.584832 0.074213 0.138615
H12   H     H_    0.009362 0.766136 0.473336 0.139242
H13   H     H_    0.595236 0.442735 0.930265 0.128930
H14   H     H_    0.896212 0.092174 0.946612 0.166051
H15   H     H_    0.104404 0.025796 0.063075 0.161921
H16   H     H_    0.397321 0.602959 0.947933 0.166563
H17   H     H_    0.589294 0.463430 0.057189 0.134786
H18   H     H_    0.899488 0.922310 0.937671 0.131581
H19   H     H_    0.131125 0.863259 0.070356 0.128657
H20   H     H_    0.403411 0.433217 0.939442 0.129186
H21   H     H_    0.673251 0.379649 0.067521 0.140993
H22   H     H_    0.007252 0.144837 0.929431 0.117307
H23   H     H_    0.490581 0.266096 0.526281 0.138977
H24   H     H_    0.012296 0.145487 0.060857 0.118452
H25   H     H_    0.513477 0.644955 0.927543 0.122885
H26   H     H_    0.523703 0.644421 0.058743 0.130329
H27   H     H_    0.022455 0.639349 0.061509 0.133091
H28   H     H_    0.930292 0.563750 0.938400 0.168390
H29   H     H_    0.523078 0.138931 0.061536 0.135344
H30   H     H_    0.430643 0.063956 0.938480 0.172868
H31   H     H_    0.937542 0.557565 0.064519 0.135886
H32   H     H_    0.015801 0.643508 0.933952 0.123715
H33   H     H_    0.438740 0.055313 0.064787 0.141408
H34   H     H_    0.458256 0.231783 0.399869 0.111780
H35   H     H_    0.515841 0.144312 0.934039 0.125185
H36   H     H_    0.800207 0.859786 0.460008 0.130412
H37   H     H_    0.129773 0.025986 0.582690 0.123381
H38   H     H_    0.370218 0.526053 0.417357 0.123359
H39   H     H_    0.699761 0.359658 0.540090 0.130534
H40   H     H_    0.139170 0.620816 0.448538 0.178557
H41   H     H_    0.899171 0.522886 0.539031 0.164259
H42   H     H_    0.600868 0.022416 0.461005 0.163939
H43   H     H_    0.360798 0.120747 0.551428 0.178566
H44   H     H_    0.601440 0.188140 0.439785 0.175603
H45   H     H_    0.650904 0.159988 0.925425 0.121766
H46   H     H_    0.363123 0.283378 0.581978 0.177392
H47   H     H_    0.137032 0.783444 0.417874 0.177400
H48   H     H_    0.898500 0.688621 0.560151 0.175331
H49   H     H_    0.614704 0.234148 0.564317 0.124538
H50   H     H_    0.341818 0.345891 0.458479 0.150368
H51   H     H_    0.158385 0.846033 0.541332 0.150446
H52   H     H_    0.885210 0.734527 0.435591 0.124470
H53   H     H_    0.616706 0.068167 0.585754 0.139596
H54   H     H_    0.340419 0.184212 0.429467 0.166718
H55   H     H_    0.159562 0.684389 0.570491 0.166651
H56   H     H_    0.328041 0.222164 0.063424 0.139532
H57   H     H_    0.883235 0.568543 0.414250 0.139523
H58   H     H_    0.905203 0.970536 0.418790 0.130929
H59   H     H_    0.938376 0.929800 0.544833 0.108329
H60   H     H_    0.561854 0.429958 0.455574 0.108347
H61   H     H_    0.594953 0.470918 0.581593 0.131341
H62   H     H_    0.935798 0.163775 0.362864 0.128345
H63   H     H_    0.993632 0.086548 0.617330 0.132973
H64   H     H_    0.506578 0.586446 0.382911 0.133072
H65   H     H_    0.564273 0.664137 0.637335 0.128500
H66   H     H_    0.996705 0.600073 0.392319 0.152132
H67   H     H_    0.150826 0.656069 0.925002 0.118823
H68   H     H_    0.068703 0.526822 0.641619 0.135736
H69   H     H_    0.431207 0.026415 0.358246 0.135837
H70   H     H_    0.503180 0.100162 0.607479 0.152305
H71   H     H_    0.832203 0.713877 0.061715 0.129859
H72   H     H_    0.642858 0.141113 0.056456 0.129873
N1    N     N_1   0.836241 0.811039 0.646903 -0.295878
N2    N     N_1   0.064969 0.968454 0.415411 -0.339056
N3    N     N_1   0.435039 0.468609 0.584642 -0.338749
N4    N     N_1   0.663620 0.311055 0.353190 -0.296220
O1    O     O_R   0.957020 0.451640 0.669920 -0.527632
O2    O     O_R   0.168040 0.093290 0.169870 -0.519218
O3    O     O_R   0.331960 0.593290 0.830130 -0.518884
O4    O     O_R   0.668040 0.593290 0.169870 -0.513634
O5    O     O_R   0.945600 0.250580 0.824860 -0.511369
O6    O     O_R   0.054400 0.250580 0.175140 -0.509917
O7    O     O_R   0.445600 0.750580 0.824860 -0.511410
O8    O     O_R   0.554400 0.750580 0.175140 -0.510317
O9    O     O_3   0.834640 0.334650 0.749500 -0.271943
O10   O     O_3   0.165360 0.334650 0.250500 -0.273385
O11   O     O_3   0.334640 0.834650 0.749500 -0.271552
O12   O     O_R   0.042980 0.451640 0.330080 -0.536330
O13   O     O_3   0.665360 0.834650 0.250500 -0.277238
O14   O     O_R   0.821450 0.543440 0.674610 -0.468529
O15   O     O_R   0.178550 0.543440 0.325390 -0.499455
O16   O     O_R   0.321450 0.043440 0.674610 -0.499205
O17   O     O_R   0.678550 0.043440 0.325390 -0.468086
O18   O     O_R   0.715320 0.458650 0.668100 -0.527575
O19   O     O_R   0.284680 0.458650 0.331900 -0.536746
O20   O     O_R   0.215320 0.958650 0.668100 -0.536979
O21   O     O_R   0.784680 0.958650 0.331900 -0.527240
O22   O     O_R   0.737170 0.209590 0.674530 -0.521809
O23   O     O_R   0.457020 0.951640 0.669920 -0.536413
O24   O     O_R   0.262830 0.209590 0.325470 -0.510759
O25   O     O_R   0.237170 0.709590 0.674530 -0.511148
O26   O     O_R   0.762830 0.709590 0.325470 -0.521477
O27   O     O_R   0.832710 0.092740 0.669580 -0.503226
O28   O     O_R   0.167290 0.092740 0.330420 -0.493163
O29   O     O_R   0.332710 0.592740 0.669580 -0.493184
O30   O     O_R   0.667290 0.592740 0.330420 -0.503325
O31   O     O_R   0.946290 0.250060 0.676040 -0.511366
O32   O     O_R   0.053710 0.250060 0.323960 -0.504050
O33   O     O_R   0.446290 0.750060 0.676040 -0.504324
O34   O     O_R   0.542980 0.951640 0.330080 -0.527229
O35   O     O_R   0.553710 0.750060 0.323960 -0.510880
O36   O     O_R   0.956270 0.452200 0.830470 -0.526552
O37   O     O_R   0.043730 0.452200 0.169530 -0.518706
O38   O     O_R   0.456270 0.952200 0.830470 -0.524717
O39   O     O_R   0.543730 0.952200 0.169530 -0.520485
O40   O     O_R   0.820760 0.543950 0.823440 -0.500573
O41   O     O_R   0.179240 0.543950 0.176560 -0.505703
O42   O     O_R   0.320760 0.043950 0.823440 -0.508010
O43   O     O_R   0.679240 0.043950 0.176560 -0.498000
O44   O     O_R   0.714570 0.459210 0.828640 -0.519782
O45   O     O_R   0.736470 0.210100 0.823360 -0.512141
O46   O     O_R   0.285430 0.459210 0.171360 -0.519829
O47   O     O_R   0.214570 0.959210 0.828640 -0.518922
O48   O     O_R   0.785430 0.959210 0.171360 -0.515154
O49   O     O_R   0.263530 0.210100 0.176640 -0.506331
O50   O     O_R   0.236470 0.710100 0.823360 -0.502568
O51   O     O_R   0.763530 0.710100 0.176640 -0.510580
O52   O     O_R   0.831960 0.093290 0.830130 -0.517547

loop_
_geom_bond_atom_site_label_1
_geom_bond_atom_site_label_2
_ccdc_geom_bond_type
C8    C9    S    
C83   C87   A    
Cr11  O26   S    
C58   C128  S    
C35   H44   S    
Cr4   O35   S    
Cr8   O22   S    
C33   C45   S    
C73   C74   A    
Cr7   O13   S    
C126  H36   S    
C8    H31   S    
C40   C93   S    
C49   O15   A    
C15   O42   A    
C92   C110  A    
C111  H4    S    
C83   H66   S    
C59   H62   S    
C12   O44   A    
C8    H27   S    
C90   C95   A    
C25   O8    A    
Cr8   O44   S    
C118  H19   S    
Cr11  O21   S    
Cr6   O16   S    
C106  H67   S    
C48   H55   S    
C19   C123  S    
C34   C51   A    
C101  C123  A    
Cr7   O39   S    
C80   O30   A    
Cr8   O9    S    
C36   C47   S    
C24   H39   S    
C16   C90   S    
C57   C76   A    
C57   C129  S    
Cr10  O47   S    
Cr3   O29   S    
C10   C136  S    
Cr12  O9    S    
C6    C133  A    
Cr2   O28   S    
C27   C60   S    
C61   H63   S    
C112  C117  S    
C25   O39   A    
C42   N4    T    
C120  H21   S    
C119  H20   S    
C19   O50   A    
C94   C98   A    
C22   O37   A    
C7    H26   S    
C29   C33   A    
C94   C111  A    
C78   O28   A    
C87   H12   S    
Cr9   O19   S    
C9    H28   S    
Cr3   O3    S    
C77   O22   A    
C12   O40   A    
Cr1   O14   S    
Cr2   O2    S    
C85   H69   S    
C24   C29   A    
C21   C131  S    
C26   C126  A    
Cr1   O1    S    
C18   O2    A    
C16   O48   A    
C91   C96   A    
C55   C74   A    
C46   H53   S    
C82   C126  A    
Cr5   O10   S    
Cr12  O27   S    
Cr8   O18   S    
C106  C123  A    
C120  H17   S    
C78   O24   A    
Cr7   O17   S    
C13   C28   A    
C67   H61   S    
C2    C27   A    
C34   C46   S    
C113  H10   S    
C74   C83   A    
Cr7   O43   S    
C81   C86   A    
C36   C52   A    
C14   O41   A    
C99   C121  A    
C18   O49   A    
C37   C53   A    
C88   C89   A    
C45   H48   S    
C125  O31   A    
C66   C67   A    
C43   H43   S    
C38   C54   A    
Cr5   O15   S    
C88   H23   S    
C80   O26   A    
Cr9   O10   S    
C22   C130  S    
C20   C124  S    
C26   C71   S    
C79   O25   A    
C13   H38   S    
C12   C94   S    
C65   H59   S    
C130  C134  A    
Cr7   O34   S    
C107  C111  A    
C107  C124  A    
C102  C124  A    
C73   C81   A    
C49   O19   A    
C92   C97   A    
C4    C131  A    
C54   C80   S    
Cr11  O13   S    
C79   O29   A    
C63   C67   A    
C118  H15   S    
C60   O20   A    
Cr4   O4    S    
C112  H9    S    
C30   C34   A    
C48   H51   S    
C8    C134  S    
C127  O32   A    
C101  C119  S    
C84   C88   A    
C116  H13   S    
C28   C32   A    
C62   C66   A    
C11   H35   S    
C71   O17   A    
C17   O45   A    
C110  H3    S    
C10   C11   S    
C86   H1    S    
C85   C89   A    
C86   C87   A    
C68   C69   A    
C46   H49   S    
Cr10  O25   S    
C23   O38   A    
Cr10  O50   S    
C23   C133  S    
C98   C102  A    
C64   H58   S    
C116  C120  S    
C47   H54   S    
C40   N2    T    
Cr9   O46   S    
C3    C133  A    
Cr5   O41   S    
Cr9   O49   S    
C75   C76   A    
C51   C77   S    
Cr11  O48   S    
C61   C65   A    
C99   C117  S    
C66   H60   S    
C28   C49   S    
C98   C116  S    
C22   O6    A    
C63   C70   A    
Cr2   O6    S    
C117  H18   S    
C132  C136  A    
C21   O5    A    
C54   C115  A    
Cr2   O32   S    
Cr12  O52   S    
C31   C43   S    
C127  O12   A    
C62   C72   A    
C52   C93   A    
C47   H50   S    
C11   H30   S    
C41   N3    T    
C32   C37   A    
C63   H65   S    
C37   C48   S    
C15   O47   A    
C51   C82   A    
C14   C92   S    
C7    C132  A    
C55   C69   A    
C9    H32   S    
C4    H22   S    
C18   C122  S    
C60   O16   A    
C9    C135  S    
C84   H70   S    
C45   H41   S    
C5    C130  A    
C10   H29   S    
C55   C127  S    
Cr6   O38   S    
C26   C30   A    
C35   H42   S    
C112  H5    S    
C59   C69   A    
C27   C31   A    
Cr3   O11   S    
Cr12  O31   S    
C117  H14   S    
C107  H71   S    
C96   C113  S    
Cr2   O10   S    
C100  C118  S    
C71   O21   A    
Cr1   O9    S    
C103  C121  A    
C114  H7    S    
C3    C136  A    
C17   O52   A    
C102  C120  S    
C125  O1    A    
C106  C110  A    
Cr1   O36   S    
C17   C121  S    
C105  C109  A    
Cr10  O11   S    
Cr6   O11   S    
C44   H47   S    
C50   H52   S    
C56   C73   A    
Cr9   O24   S    
C53   C79   S    
C50   H57   S    
C128  O23   A    
Cr5   O37   S    
C113  H6    S    
C58   C70   A    
Cr6   O42   S    
C39   C82   S    
C4    C5    A    
C129  O35   A    
C119  H16   S    
C70   C72   A    
C14   O46   A    
C21   O36   A    
Cr4   O8    S    
C6    C7    A    
C38   C50   S    
C6    H25   S    
C1    O14   A    
C30   C35   S    
C96   C100  A    
C134  C135  A    
C131  C135  A    
C33   C38   A    
C20   O4    A    
C41   C104  S    
C95   C112  S    
C128  O33   A    
C91   C109  A    
C2    C93   A    
C109  H2    S    
C2    H37   S    
C90   C108  A    
Cr6   O23   S    
C44   C48   S    
C56   C68   A    
C89   H34   S    
C108  H72   S    
C19   O3    A    
C25   C132  S    
C61   C68   A    
C20   O51   A    
C1    C29   S    
C114  C119  S    
C45   C50   S    
C44   H40   S    
Cr5   O12   S    
Cr11  O51   S    
Cr3   O33   S    
C64   C65   A    
Cr4   O13   S    
C5    H24   S    
C105  C122  A    
Cr8   O45   S    
C95   C99   A    
C100  C122  A    
C57   C72   A    
C75   C84   A    
C23   O7    A    
C114  H11   S    
C116  H8    S    
C16   O43   A    
C3    C11   S    
C1    O18   A    
C15   C91   S    
C113  C118  S    
C81   H68   S    
Cr1   O40   S    
C59   C64   A    
C42   C115  S    
C52   C78   S    
Cr4   O30   S    
C77   O27   A    
C32   C44   S    
C24   C115  A    
C56   C125  S    
C43   H46   S    
Cr10  O20   S    
C13   C104  A    
C10   H33   S    
C62   H64   S    
C31   C36   A    
C39   N1    T    
C103  C108  A    
Cr3   O7    S    
Cr12  O5    S    
C53   C104  A    
C97   C114  S    
C35   C46   S    
C43   C47   S    
C76   C85   A    
C97   C101  A    
C105  H56   S    
C103  H45   S    
C58   C75   A    
C129  O34   A    
