data_mof_unit_19741.cif
_audit_creation_date              2012-12-10T17:51:24-0500
_audit_creation_method            fapswitch 2.2
_symmetry_space_group_name_H-M    P1
_symmetry_Int_Tables_number       1
_space_group_crystal_system       triclinic
_cell_length_a                    9.877285
_cell_length_b                    10.784027
_cell_length_c                    16.817006
_cell_angle_alpha                 91.936146
_cell_angle_beta                  84.748761
_cell_angle_gamma                 87.922134
_cell_volume                      1781.36495185

loop_
_atom_site_label
_atom_site_type_symbol
_atom_type_description
_atom_site_fract_x
_atom_site_fract_y
_atom_site_fract_z
_atom_type_partial_charge
C1    C     C_R   0.497096 0.739825 0.495706 0.884102
C2    C     C_R   0.534604 0.467341 0.261532 -0.218888
C3    C     C_R   0.234914 0.901276 0.509672 -0.293682
C4    C     C_R   0.479991 0.501593 0.653565 0.911552
C5    C     C_R   0.121555 0.972310 0.545020 0.505634
C6    C     C_R   0.142468 0.084064 0.584828 -0.065170
C7    C     C_R   0.271806 0.131832 0.580341 -0.214866
C8    C     C_R   0.382547 0.068758 0.534847 0.057807
C9    C     C_R   0.368549 0.944951 0.511252 0.071567
C10   C     C_R   0.489696 0.872535 0.489333 -0.137374
C11   C     C_R   0.612397 0.928754 0.470259 -0.207922
C12   C     C_R   0.348956 0.487781 0.790144 0.131196
C13   C     C_R   0.619337 0.055267 0.474925 0.196220
C14   C     C_R   0.504534 0.126812 0.508627 -0.167544
C15   C     C_R   0.838472 0.658998 0.608819 -0.346007
C16   C     C_R   0.501930 0.259941 0.503419 0.914173
C17   C     C_R   0.898082 0.733556 0.665155 0.444687
C18   C     C_R   0.038742 0.728600 0.666032 0.218905
C19   C     C_R   0.118881 0.654694 0.609501 -0.321603
C20   C     C_R   0.061458 0.576241 0.554348 0.122080
C21   C     C_R   0.916876 0.576827 0.554342 0.146846
C22   C     C_R   0.939723 0.430667 0.445996 -0.076929
C23   C     C_R   0.454511 0.371316 0.142985 0.360068
C24   C     C_R   0.082900 0.429374 0.446634 -0.068368
C25   C     C_R   0.519667 0.493640 0.347134 0.982677
C26   C     C_R   0.466275 0.519238 0.740813 -0.168029
C27   C     C_R   0.574950 0.573685 0.775023 -0.324919
C28   C     C_R   0.573277 0.592709 0.857099 0.483027
C29   C     C_R   0.461734 0.554478 0.905822 -0.031572
C30   C     C_R   0.347281 0.506463 0.873466 0.142530
C31   C     C_R   0.444770 0.387780 0.226809 0.333623
C32   C     C_R   0.645162 0.513837 0.215571 -0.257974
C33   C     C_R   0.660994 0.492063 0.133503 0.441855
C34   C     C_R   0.560476 0.426319 0.097127 -0.107736
C35   C     C_2   0.478575 0.541946 0.989881 0.182652
C36   C     C_2   0.545228 0.440010 0.012923 0.151975
H1    H     H_    0.663796 0.599080 0.738048 0.170589
H2    H     H_    0.717951 0.569968 0.243345 0.208760
H3    H     H_    0.777637 0.510713 0.034990 0.374420
H4    H     H_    0.991838 0.856486 0.509272 0.324950
H5    H     H_    0.724514 0.811720 0.707651 0.333142
H6    H     H_    0.329407 0.248240 0.248550 0.350390
H7    H     H_    0.270196 0.315748 0.137654 0.359866
H8    H     H_    0.754217 0.660594 0.849032 0.374063
H9    H     H_    0.703549 0.873856 0.449159 0.197638
H10   H     H_    0.215130 0.816892 0.477356 0.177957
H11   H     H_    0.057427 0.136833 0.616275 0.192200
H12   H     H_    0.283909 0.219640 0.611013 0.199374
H13   H     H_    0.895126 0.376476 0.400775 0.175289
H14   H     H_    0.731186 0.668872 0.608961 0.211836
H15   H     H_    0.225771 0.663248 0.609449 0.236671
H16   H     H_    0.145920 0.371496 0.403167 0.198824
I1    I     I_    0.807542 0.120643 0.424017 -0.308748
I2    I     I_    0.135018 0.836752 0.750224 -0.190883
I3    I     I_    0.620928 0.289770 0.933691 -0.162748
I4    I     I_    0.177252 0.455997 0.952837 -0.123059
I5    I     I_    0.178881 0.401623 0.743663 -0.280711
I6    I     I_    0.401941 0.692025 0.069129 -0.178172
N1    N     N_R   0.857140 0.501200 0.500750 -0.103943
N2    N     N_R   0.142740 0.501280 0.500770 -0.113695
O1    O     O_R   0.385310 0.683220 0.500000 -0.655526
O2    O     O_3   0.990176 0.934381 0.542458 -0.738319
O3    O     O_3   0.821451 0.814280 0.718334 -0.704566
O4    O     O_3   0.351038 0.326871 0.275893 -0.763885
O5    O     O_3   0.357843 0.310124 0.103820 -0.707150
O6    O     O_3   0.682715 0.641212 0.891602 -0.711014
O7    O     O_R   0.614640 0.683250 0.500010 -0.641031
O8    O     O_R   0.371780 0.500010 0.615800 -0.620814
O9    O     O_R   0.601110 0.500030 0.615800 -0.625992
O10   O     O_R   0.385360 0.316750 0.499990 -0.612528
O11   O     O_R   0.614690 0.316780 0.500000 -0.583763
O12   O     O_R   0.398890 0.499970 0.384200 -0.562459
O13   O     O_R   0.628220 0.499990 0.384200 -0.633614
O14   O     O_3   0.769564 0.544096 0.090859 -0.684759
Zn1   Zn    Zn3+2 0.346870 0.499980 0.499990 0.973740
Zn2   Zn    Zn3+2 0.653130 0.500020 0.500010 0.973075

loop_
_geom_bond_atom_site_label_1
_geom_bond_atom_site_label_2
_ccdc_geom_bond_type
C24   H16   S    
H8    O6    S    
C35   C36   D    
C7    C8    A    
O1    Zn1   S    
O8    Zn1   S    
C26   C27   A    
C35   I6    S    
C28   C29   A    
C21   N1    A    
C5    C6    A    
H3    O14   S    
H4    O2    S    
O9    Zn2   S    
C2    C32   A    
C18   C19   A    
C15   H14   S    
C19   C20   A    
C8    C9    A    
C14   C16   S    
C32   H2    S    
C20   N2    A    
C9    C10   A    
C34   C36   S    
C24   N2    A    
C13   C14   A    
C16   O11   A    
O12   Zn1   S    
C4    O9    A    
C33   C34   A    
C13   I1    S    
C6    H11   S    
C16   O10   A    
C22   N1    A    
C4    O8    A    
C30   I4    S    
C12   C26   A    
C2    C31   A    
C23   C31   A    
C28   O6    S    
C29   C30   A    
C3    C9    A    
H7    O5    S    
C23   C34   A    
C17   C18   A    
C25   O12   A    
C22   H13   S    
C12   I5    S    
O13   Zn2   S    
C22   C24   A    
C11   H9    S    
H5    O3    S    
H6    O4    S    
O10   Zn1   S    
C15   C17   A    
C8    C14   A    
N2    Zn1   S    
C12   C30   A    
C31   O4    S    
C1    C10   S    
C3    C5    A    
C1    O1    A    
C4    C26   S    
C6    C7    A    
C29   C35   S    
C3    H10   S    
C7    H12   S    
C23   O5    S    
C36   I3    S    
C32   C33   A    
C11   C13   A    
O11   Zn2   S    
C27   H1    S    
C1    O7    A    
C5    O2    S    
C2    C25   S    
C25   O13   A    
C10   C11   A    
C18   I2    S    
C19   H15   S    
C33   O14   S    
C15   C21   A    
C20   C21   A    
C27   C28   A    
O7    Zn2   S    
N1    Zn2   S    
C17   O3    S    
