data_mof_unit_59025.cif
_audit_creation_date              2012-12-10T19:02:44-0500
_audit_creation_method            fapswitch 2.2
_symmetry_space_group_name_H-M    P1
_symmetry_Int_Tables_number       1
_space_group_crystal_system       triclinic
_cell_length_a                    9.568986
_cell_length_b                    10.835046
_cell_length_c                    13.847665
_cell_angle_alpha                 90.684827
_cell_angle_beta                  83.918308
_cell_angle_gamma                 89.669447
_cell_volume                      1427.51326559

loop_
_atom_site_label
_atom_site_type_symbol
_atom_type_description
_atom_site_fract_x
_atom_site_fract_y
_atom_site_fract_z
_atom_type_partial_charge
C1    C     C_R   0.499423 0.737617 0.499769 0.802120
C2    C     C_1   0.462716 0.491573 0.786442 -0.199992
C3    C     C_R   0.381530 0.939032 0.542111 0.143635
C4    C     C_R   0.499270 0.871132 0.501971 -0.158357
C5    C     C_R   0.624001 0.934353 0.471259 -0.223577
C6    C     C_R   0.626046 0.062941 0.472237 -0.233356
C7    C     C_R   0.502595 0.129582 0.502117 -0.077108
C8    C     C_R   0.383880 0.065976 0.540133 0.060035
C9    C     C_3   0.235279 0.077430 0.519438 -0.559556
C10   C     C_3   0.229076 0.936733 0.524025 0.288570
C11   C     C_R   0.936881 0.425191 0.437330 0.158732
C12   C     C_R   0.476625 0.497881 0.683042 0.818102
C13   C     C_R   0.914169 0.565321 0.567422 -0.206088
C14   C     C_R   0.063333 0.562825 0.569982 0.506311
C15   C     C_R   0.083746 0.423742 0.438313 0.115333
C16   C     C_3   0.109822 0.419867 0.330294 -0.512050
C17   C     C_3   0.951328 0.425417 0.328267 0.054269
C18   C     C_R   0.500707 0.262581 0.498928 0.795681
C19   C     C_R   0.523647 0.500094 0.316915 0.814218
C20   C     C_1   0.539019 0.501370 0.213390 -0.168540
C21   C     C_2   0.559175 0.504763 0.022305 -0.166032
C22   C     C_2   0.445237 0.482500 0.977320 -0.159435
C23   C     C_1   0.453561 0.486816 0.873479 0.005673
C24   C     C_1   0.549768 0.502834 0.126236 -0.014366
Cu1   Cu    Cu3+1 0.359330 0.500020 0.500000 0.974433
Cu2   Cu    Cu3+1 0.640670 0.499980 0.500000 0.944665
H1    H     H_    0.344990 0.462049 0.018281 0.150343
H2    H     H_    0.165151 0.502817 0.299695 0.223167
H3    H     H_    0.156762 0.330349 0.303051 0.168695
H4    H     H_    0.905417 0.341900 0.296720 0.132804
H5    H     H_    0.659428 0.525611 0.981495 0.150706
H6    H     H_    0.719056 0.884700 0.444262 0.162047
H7    H     H_    0.722159 0.109644 0.445880 0.153348
H8    H     H_    0.170225 0.126367 0.579517 0.212963
H9    H     H_    0.225055 0.113367 0.445603 0.167304
H10   H     H_    0.210530 0.888504 0.455035 0.073481
H11   H     H_    0.848670 0.622878 0.618236 0.153949
N1    N     N_R   0.852140 0.499070 0.499400 -0.194718
N2    N     N_R   0.148050 0.499110 0.499400 -0.209661
O1    O     O_R   0.381190 0.680360 0.500000 -0.541074
O2    O     O_R   0.618770 0.680320 0.499990 -0.589495
O3    O     O_R   0.364410 0.500000 0.637850 -0.546283
O4    O     O_R   0.602000 0.499960 0.637840 -0.578020
O5    O     O_R   0.381230 0.319680 0.500010 -0.577636
O6    O     O_R   0.618810 0.319640 0.500000 -0.589293
O7    O     O_R   0.398000 0.500040 0.362160 -0.590283
O8    O     O_R   0.635590 0.500000 0.362150 -0.538694
O9    O     O_3   0.124442 0.633756 0.637748 -0.551652
C25   C     C_3   0.080790 0.591684 0.732562 0.054638
H12   H     H_    0.112873 0.493466 0.739836 0.147760
H13   H     H_    0.964970 0.599264 0.750287 0.103110
C26   C     C_3   0.149425 0.670517 0.806741 -0.269570
H14   H     H_    0.265161 0.667216 0.790342 0.228065
H15   H     H_    0.117178 0.768516 0.802025 0.222697
C27   C     C_3   0.108652 0.626257 0.910106 -0.968122
H16   H     H_    0.993479 0.636386 0.929580 0.254109
H17   H     H_    0.163656 0.682350 0.961846 0.261205
H18   H     H_    0.138944 0.527902 0.916862 0.258621
N3    N     N_2   0.905552 0.540875 0.288841 -0.357961
H19   H     H_    0.940073 0.619940 0.320989 0.252655
C28   C     C_3   0.917373 0.545576 0.183961 -0.689090
H20   H     H_    0.866370 0.631272 0.161332 0.223793
H21   H     H_    0.863756 0.465340 0.153889 0.233400
H22   H     H_    0.029708 0.545544 0.153833 0.218738
O10   O     O_3   0.144142 0.896231 0.607236 -0.556178
C29   C     C_3   0.000087 0.906629 0.593030 0.105133
H23   H     H_    0.969477 0.827140 0.548585 0.140736
H24   H     H_    0.975735 0.993364 0.555460 0.119855
C30   C     C_3   0.912832 0.906708 0.692302 -0.347645
H25   H     H_    0.925080 0.816883 0.727584 0.221231
H26   H     H_    0.951017 0.980653 0.739062 0.221358
C31   C     C_3   0.756878 0.927082 0.684660 -0.919829
H27   H     H_    0.739323 0.016974 0.650154 0.272168
H28   H     H_    0.698816 0.928109 0.758466 0.254676
H29   H     H_    0.715501 0.850657 0.642158 0.269130

loop_
_geom_bond_atom_site_label_1
_geom_bond_atom_site_label_2
_ccdc_geom_bond_type
Cu1   O3    S    
C16   H2    S    
C30   C31   S    
C29   H24   S    
C27   H16   S    
C26   C27   S    
C6    C7    A    
Cu2   N1    S    
C18   O5    A    
C11   N1    A    
C9    C10   S    
C13   H11   S    
C19   C20   S    
C1    O1    A    
C6    H7    S    
C7    C18   S    
C2    C12   S    
C5    H6    S    
C29   H23   S    
C16   H3    S    
C19   O7    A    
N3    H19   S    
O10   C29   S    
C3    C10   S    
C21   C22   D    
Cu1   N2    S    
C28   H22   S    
C17   H4    S    
C21   H5    S    
C15   N2    A    
C13   N1    A    
C30   H25   S    
Cu2   O8    S    
C17   N3    S    
C31   H29   S    
C5    C6    A    
Cu1   O5    S    
C1    O2    A    
O9    C25   S    
C10   O10   S    
C26   H15   S    
Cu2   O4    S    
C3    C8    A    
C12   O4    A    
C22   H1    S    
C27   H17   S    
Cu1   O1    S    
C28   H20   S    
C16   C17   S    
C19   O8    A    
N3    C28   S    
C29   C30   S    
C30   H26   S    
C12   O3    A    
C15   C16   S    
C18   O6    A    
C20   C24   T    
C7    C8    A    
C1    C4    S    
C26   H14   S    
C31   H28   S    
C25   H12   S    
C21   C24   S    
Cu1   Cu2   S    
C2    C23   T    
C28   H21   S    
C14   O9    S    
C27   H18   S    
C22   C23   S    
C8    C9    S    
C9    H9    S    
C10   H10   S    
Cu2   O6    S    
C14   N2    A    
C13   C14   A    
C4    C5    A    
C11   C15   A    
Cu1   O7    S    
C25   C26   S    
C11   C17   S    
C3    C4    A    
Cu2   O2    S    
C9    H8    S    
C31   H27   S    
C25   H13   S    
