data_mof_unit_8126.cif
_audit_creation_date              2013-03-05T15:40:11-0500
_audit_creation_method            fapswitch 2.2
_symmetry_space_group_name_H-M    P1
_symmetry_Int_Tables_number       1
_space_group_crystal_system       triclinic
_cell_length_a                    7.773169
_cell_length_b                    8.707972
_cell_length_c                    10.445624
_cell_angle_alpha                 88.493611
_cell_angle_beta                  98.510417
_cell_angle_gamma                 93.33893
_cell_volume                      697.964865526

loop_
_atom_site_label
_atom_site_type_symbol
_atom_site_description
_atom_site_fract_x
_atom_site_fract_y
_atom_site_fract_z
_atom_type_partial_charge
O1    O     O_R   0.391630 0.738350 0.508060 -0.589854
O2    O     O_R   0.608370 0.261650 0.491940 -0.576632
O3    O     O_R   0.674540 0.711990 0.487010 -0.593510
O4    O     O_R   0.325460 0.288010 0.512990 -0.575211
C1    C     C_R   0.544122 0.793969 0.497175 0.855836
C2    C     C_R   0.456211 0.206013 0.503776 0.909390
O5    O     O_R   0.411370 0.508250 0.688780 -0.598959
O6    O     O_R   0.588630 0.491750 0.311220 -0.596822
O7    O     O_R   0.694270 0.481880 0.667740 -0.578408
O8    O     O_R   0.305730 0.518120 0.332260 -0.585788
C3    C     C_R   0.572685 0.498036 0.738304 0.827905
C4    C     C_R   0.428817 0.510427 0.261757 0.831063
Zn1   Zn    Zn3+2 0.311100 0.517600 0.514050 1.092309
Zn2   Zn    Zn3+2 0.688900 0.482400 0.485950 1.096423
H1    H     H_    0.624268 0.679079 0.128668 0.206116
H2    H     H_    0.431609 0.690128 0.869191 0.206800
C5    C     C_2   0.616186 0.518684 0.877749 0.132033
C6    C     C_2   0.393086 0.536165 0.122273 0.134146
C7    C     C_2   0.522815 0.619808 0.930495 -0.182964
C8    C     C_2   0.514426 0.621807 0.068257 -0.178201
C9    C     C_2   0.567831 0.955591 0.494251 -0.013311
C10   C     C_2   0.433418 0.044365 0.509001 -0.012330
N1    N     N_2   0.940600 0.458860 0.467170 -0.123281
N2    N     N_2   0.059400 0.541140 0.532830 -0.126825
H3    H     H_    0.985421 0.383317 0.407193 0.246752
H4    H     H_    0.014583 0.616697 0.592794 0.234418
N3    N     N_R   0.242620 0.459910 0.047844 0.242128
O9    O     O_R   0.166667 0.339434 0.096254 -0.287288
O10   O     O_R   0.173411 0.515590 0.936465 -0.325500
N4    N     N_R   0.743824 0.425623 0.952913 0.247792
O11   O     O_R   0.797365 0.305936 0.901501 -0.283489
O12   O     O_R   0.814883 0.463871 0.069247 -0.314694
N5    N     N_R   0.737627 0.016275 0.473584 0.236782
O13   O     O_R   0.857389 0.044305 0.572285 -0.276512
O14   O     O_R   0.776881 0.027615 0.356768 -0.310703
N6    N     N_R   0.264120 0.983638 0.530804 0.236444
O15   O     O_R   0.142326 0.958503 0.432886 -0.285060
O16   O     O_R   0.227816 0.968144 0.648248 -0.320994

loop_
_geom_bond_atom_site_label_1
_geom_bond_atom_site_label_2
_geom_bond_distance
_ccdc_geom_bond_type
Zn2   N1    2.017635 S    
N4    O12   1.301488 A    
O7    Zn2   1.893073 S    
N3    O10   1.301358 A    
C10   N6    1.436887 S    
C7    C8    1.450703 S    
O6    C4    1.290637 A    
N4    O11   1.301520 A    
N1    N2    1.264055 D    
N6    O16   1.300823 A    
N5    O13   1.300711 A    
C1    C9    1.408855 S    
C9    C10   1.364172 D    
O5    C3    1.290906 A    
C5    N4    1.444706 S    
O7    C3    1.297469 A    
O2    C2    1.273699 A    
O3    Zn2   2.009268 S    
O8    C4    1.296484 A    
H2    C7    1.087758 S    
O1    C1    1.273842 A    
N6    O15   1.300523 A    
N5    O14   1.300823 A    
N2    H4    1.029344 S    
C6    C8    1.348182 D    
N1    H3    1.029360 S    
H1    C8    1.087851 S    
O2    Zn2   1.988979 S    
C9    N5    1.436987 S    
C2    C10   1.409097 S    
O5    Zn1   1.877198 S    
O1    Zn1   1.988981 S    
O4    C2    1.291960 A    
C4    C6    1.456204 S    
N3    O9    1.301234 A    
C3    C5    1.459188 S    
O6    Zn2   1.877198 S    
C5    C7    1.350579 D    
C6    N3    1.442519 S    
O4    Zn1   2.009269 S    
Zn1   N2    2.017634 S    
O3    C1    1.291794 A    
O8    Zn1   1.893076 S    
