data_mof_unit_19098.cif
_audit_creation_date              2013-03-05T16:48:11-0500
_audit_creation_method            fapswitch 2.2
_symmetry_space_group_name_H-M    P1
_symmetry_Int_Tables_number       1
_space_group_crystal_system       triclinic
_cell_length_a                    10.79708
_cell_length_b                    12.314142
_cell_length_c                    13.200187
_cell_angle_alpha                 116.701771
_cell_angle_beta                  77.030361
_cell_angle_gamma                 101.480216
_cell_volume                      1518.14508173

loop_
_atom_site_label
_atom_site_type_symbol
_atom_site_description
_atom_site_fract_x
_atom_site_fract_y
_atom_site_fract_z
_atom_type_partial_charge
O1    O     O_R   0.536940 0.972510 0.318130 -0.578237
O2    O     O_R   0.487330 0.806530 0.359650 -0.599074
C1    C     C_R   0.515373 0.854872 0.286507 0.791668
O3    O     O_R   0.705160 0.082990 0.479250 -0.585543
O4    O     O_R   0.655550 0.917010 0.520760 -0.593443
C2    C     C_R   0.737160 0.001186 0.502128 0.787539
Cu1   Cu    Cu3+1 0.529370 0.098270 0.475420 0.943755
Cu2   Cu    Cu3+1 0.470630 0.901730 0.524580 0.926501
O5    O     O_R   0.512670 0.193470 0.640350 -0.584298
O6    O     O_R   0.463060 0.027490 0.681870 -0.588897
O7    O     O_R   0.344450 0.082990 0.479240 -0.569818
O8    O     O_R   0.294840 0.917010 0.520750 -0.595656
C3    C     C_R   0.481874 0.144962 0.713352 0.794626
C4    C     C_R   0.262891 0.998583 0.497560 0.787746
H1    H     H_    0.550560 0.795753 0.843592 0.118258
C5    C     C_R   0.644980 0.953161 0.814941 -0.087850
H2    H     H_    0.585786 0.016365 0.886459 0.118436
C6    C     C_R   0.740135 0.995725 0.745839 -0.090142
H3    H     H_    0.752985 0.091875 0.763949 0.102460
C7    C     C_R   0.815894 0.913711 0.651767 0.111868
C8    C     C_R   0.797114 0.789318 0.629486 -0.107579
H4    H     H_    0.853910 0.724696 0.556839 0.128495
C9    C     C_R   0.701404 0.747099 0.698455 -0.045822
H5    H     H_    0.685749 0.650807 0.679819 0.139126
C10   C     C_R   0.624991 0.828801 0.790718 -0.076250
C11   C     C_R   0.037971 0.953122 0.565476 -0.227216
H6    H     H_    0.067568 0.919731 0.618694 0.164522
C12   C     C_R   0.129229 0.996960 0.494770 -0.084990
C13   C     C_R   0.091435 0.042538 0.426749 -0.000987
C14   C     C_R   0.962097 0.045907 0.433527 -0.229017
H7    H     H_    0.932368 0.079046 0.380179 0.154769
C15   C     C_R   0.870878 0.002302 0.504401 -0.079642
C16   C     C_R   0.908689 0.956309 0.572057 -0.004549
C17   C     C_R   0.199548 0.206745 0.363849 -0.149211
H8    H     H_    0.141603 0.271688 0.434992 0.132181
C18   C     C_R   0.292814 0.247241 0.292044 -0.144006
H9    H     H_    0.305833 0.342534 0.307296 0.139686
C19   C     C_R   0.370496 0.165163 0.201555 -0.110583
H10   H     H_    0.443508 0.196931 0.146837 0.138554
C20   C     C_R   0.354062 0.042119 0.181773 -0.106091
C21   C     C_R   0.260978 0.001213 0.253366 -0.093427
H11   H     H_    0.250406 0.906010 0.238219 0.095959
C22   C     C_R   0.184000 0.083655 0.345788 0.124584
C23   C     C_R   0.318914 0.282929 0.016896 -0.206661
H12   H     H_    0.315693 0.101084 0.882932 0.155090
H13   H     H_    0.240648 0.256825 0.072123 0.149506
C24   C     C_R   0.457448 0.227527 0.834624 -0.058010
C25   C     C_R   0.641412 0.809018 0.095617 -0.287782
C26   C     C_R   0.692381 0.724473 0.988378 0.376667
C27   C     C_R   0.637906 0.602270 0.948835 -0.289076
C28   C     C_R   0.530595 0.563251 0.014097 0.025638
C29   C     C_R   0.478253 0.651379 0.121485 0.084583
C30   C     C_R   0.475192 0.439059 0.977641 0.106045
C31   C     C_R   0.371508 0.405454 0.049813 0.161915
C32   C     C_R   0.317595 0.494889 0.151707 -0.246347
C33   C     C_R   0.367123 0.616441 0.184936 -0.179875
C34   C     C_R   0.516600 0.347368 0.870079 -0.252804
C35   C     C_R   0.362312 0.193963 0.909803 -0.204974
C36   C     C_R   0.539151 0.772555 0.164234 -0.168147
H14   H     H_    0.590126 0.367009 0.808684 0.148181
H15   H     H_    0.687954 0.901937 0.129531 0.188669
H16   H     H_    0.683201 0.539898 0.867576 0.172233
H17   H     H_    0.316751 0.682818 0.261234 0.161078
C37   C     C_R   0.702694 0.345441 0.326106 -0.302048
H18   H     H_    0.726065 0.168156 0.307548 0.124443
H19   H     H_    0.743932 0.545533 0.291728 0.157741
H20   H     H_    0.781540 0.344065 0.258375 0.141875
N1    N     N_R   0.573890 0.246290 0.438210 -0.178270
C38   C     C_R   0.327612 0.760246 0.646773 0.079478
C39   C     C_R   0.289935 0.663795 0.678812 -0.243907
C40   C     C_R   0.354251 0.559755 0.623001 -0.210387
C41   C     C_R   0.457987 0.551065 0.534080 -0.021123
C42   C     C_R   0.493179 0.652503 0.504279 0.292029
C43   C     C_R   0.528647 0.446561 0.474373 -0.046549
C44   C     C_R   0.631879 0.445770 0.386183 0.166417
C45   C     C_R   0.664559 0.545294 0.358647 -0.293543
C46   C     C_R   0.597310 0.646431 0.416699 -0.176447
C47   C     C_R   0.502196 0.342073 0.498010 0.043903
C48   C     C_R   0.671939 0.246034 0.353676 0.080250
N2    N     N_R   0.426890 0.754320 0.561170 -0.205769
H21   H     H_    0.425237 0.334478 0.563154 0.124491
H22   H     H_    0.277226 0.840681 0.690621 0.132347
H23   H     H_    0.320971 0.487906 0.651304 0.144012
H24   H     H_    0.631513 0.718458 0.390381 0.208667
H25   H     H_    0.414267 0.978648 0.111627 0.124396
H26   H     H_    0.234883 0.471116 0.204907 0.140955
N3    N     N_R   0.804302 0.761211 0.922801 0.119423
O9    O     O_R   0.848102 0.876229 0.954402 -0.385728
O10   O     O_R   0.865175 0.679985 0.832320 -0.399597
H27   H     H_    0.210586 0.669700 0.747156 0.178611

loop_
_geom_bond_atom_site_label_1
_geom_bond_atom_site_label_2
_geom_bond_distance
_ccdc_geom_bond_type
C2    C15   1.448000 S    
C32   C33   1.383996 A    
H18   C48   1.081918 S    
C21   H11   1.083379 S    
C26   N3    1.441885 S    
N3    O9    1.301797 A    
Cu1   Cu2   2.701202 S    
C30   C31   1.422411 A    
Cu1   O7    1.959116 S    
C11   H6    1.085049 S    
O4    C2    1.296008 A    
C12   C13   1.412890 A    
C19   C20   1.397734 A    
C6    H3    1.083233 S    
C14   H7    1.085043 S    
O7    C4    1.296244 A    
H1    C10   1.082538 S    
C17   H8    1.083228 S    
O5    C3    1.300157 A    
C38   H22   1.081653 S    
Cu1   N1    2.035814 S    
C42   N2    1.384909 A    
C23   C35   1.390455 A    
C5    H2    1.082735 S    
C9    H5    1.082510 S    
C39   C40   1.393780 A    
C17   C18   1.399135 A    
N1    C48   1.354182 A    
C8    H4    1.083228 S    
C13   C22   1.484166 S    
C21   C22   1.406224 A    
C39   H27   1.082623 S    
O3    Cu1   1.958116 S    
C23   H13   1.083884 S    
C40   H23   1.077844 S    
C8    C9    1.398653 A    
N1    C47   1.365991 A    
H12   C35   1.083365 S    
C43   C44   1.417505 A    
C28   C29   1.417240 A    
C37   H20   1.083900 S    
C45   C46   1.384922 A    
O3    C2    1.297724 A    
C3    C24   1.456157 S    
C30   C34   1.402131 A    
C34   H14   1.075380 S    
C46   H24   1.064282 S    
O1    C1    1.301101 A    
C20   H25   1.082807 S    
C44   C45   1.388973 A    
C13   C14   1.386906 A    
C29   C36   1.413022 A    
C24   C34   1.393932 A    
C11   C16   1.386305 A    
Cu2   O8    1.958115 S    
H19   C45   1.084559 S    
C27   C28   1.420492 A    
C33   H17   1.081436 S    
C5    C6    1.398911 A    
C7    C16   1.483139 S    
C41   C43   1.438293 A    
C20   C21   1.398882 A    
O8    C4    1.297457 A    
N3    O10   1.301787 A    
C27   H16   1.073911 S    
C37   C48   1.387619 A    
C25   C36   1.400122 A    
C5    C10   1.397611 A    
Cu1   O5    1.939294 S    
C31   C32   1.390444 A    
C18   H9    1.082594 S    
O1    Cu1   1.949454 S    
O2    Cu2   1.939295 S    
C17   C22   1.405144 A    
C41   C42   1.430035 A    
O6    C3    1.298914 A    
O4    Cu2   1.959117 S    
C11   C12   1.400582 A    
C15   C16   1.412550 A    
C32   H26   1.084239 S    
C18   C19   1.398062 A    
O2    C1    1.300692 A    
C40   C41   1.410108 A    
C24   C35   1.397433 A    
C14   C15   1.400336 A    
C47   H21   1.076682 S    
C25   H15   1.083475 S    
C19   H10   1.082487 S    
C25   C26   1.394456 A    
C37   C44   1.401145 A    
C6    C7    1.406017 A    
C9    C10   1.397988 A    
C38   C39   1.391717 A    
C28   C30   1.425447 A    
C23   C31   1.402953 A    
C7    C8    1.404367 A    
Cu2   O6    1.949452 S    
C26   C27   1.400890 A    
C43   C47   1.417393 A    
Cu2   N2    2.023776 S    
C42   C46   1.406597 A    
C38   N2    1.358125 A    
C4    C12   1.447821 S    
C29   C33   1.411933 A    
C1    C36   1.464848 S    
