data_mof_unit_33720.cif
_audit_creation_date              2012-12-11T15:21:13-0500
_audit_creation_method            fapswitch 2.2
_symmetry_space_group_name_H-M    P1
_symmetry_Int_Tables_number       1
_space_group_crystal_system       triclinic
_cell_length_a                    18.347816
_cell_length_b                    18.383415
_cell_length_c                    51.378255
_cell_angle_alpha                 89.872808
_cell_angle_beta                  90.115218
_cell_angle_gamma                 120.010423
_cell_volume                      15006.2998818

loop_
_atom_site_label
_atom_site_type_symbol
_atom_type_description
_atom_site_fract_x
_atom_site_fract_y
_atom_site_fract_z
_atom_type_partial_charge
C1    C     C_R   0.407641 0.585286 0.288042 0.542471
C2    C     C_R   0.494972 0.413117 0.853390 -0.061422
C3    C     C_R   0.374955 0.869180 0.089453 0.427994
C4    C     C_R   0.500237 0.004048 0.403164 0.421980
C5    C     C_R   0.509281 0.993480 0.095507 0.418871
C6    C     C_R   0.511371 0.917957 0.352765 -0.067516
C7    C     C_R   0.499937 0.897651 0.144639 -0.059188
C8    C     C_R   0.504460 0.895603 0.326596 -0.150606
C9    C     C_R   0.495778 0.875998 0.170786 -0.138435
C10   C     C_R   0.357402 0.857538 0.326990 -0.140847
C11   C     C_R   0.363083 0.873737 0.174852 -0.140796
C12   C     C_R   0.364529 0.880039 0.353203 -0.057107
C13   C     C_R   0.537667 0.489399 0.639162 0.228711
C14   C     C_R   0.368031 0.896763 0.148647 -0.055374
C15   C     C_R   0.441049 0.908527 0.366351 0.238943
C16   C     C_R   0.435721 0.907151 0.133230 0.238853
C17   C     C_R   0.463444 0.953104 0.447657 -0.047195
C18   C     C_R   0.455708 0.948716 0.051624 -0.045307
C19   C     C_R   0.409434 0.871695 0.437973 0.039144
C20   C     C_R   0.381795 0.881488 0.062281 0.039182
C21   C     C_R   0.364646 0.805587 0.455483 -0.109435
C22   C     C_R   0.317051 0.827072 0.045575 -0.111942
C23   C     C_R   0.142970 0.539112 0.410828 0.434984
C24   C     C_R   0.562114 0.485241 0.864452 0.239869
C25   C     C_R   0.133023 0.562591 0.090318 0.432920
C26   C     C_R   0.509758 0.019426 0.430100 -0.018876
C27   C     C_R   0.519540 0.005013 0.068403 -0.015424
C28   C     C_R   0.426817 0.863030 0.313601 0.007138
C29   C     C_R   0.426349 0.861779 0.186067 0.011557
C30   C     C_R   0.557840 0.128817 0.687829 0.009224
C31   C     C_R   0.557108 0.126168 0.811693 0.010642
C32   C     C_R   0.439209 0.915060 0.519767 0.017475
C33   C     C_R   0.402794 0.925041 0.980464 0.017040
C34   C     C_R   0.519411 0.067261 0.511265 0.018020
C35   C     C_R   0.547476 0.611668 0.492194 0.016924
C36   C     C_R   0.553243 0.028214 0.986024 0.030810
C37   C     C_R   0.482147 0.998989 0.528997 0.021225
C38   C     C_R   0.481785 0.983808 0.969714 0.023691
C39   C     C_R   0.408840 0.849076 0.538205 -0.140635
C40   C     C_R   0.332410 0.885928 0.963629 -0.144013
C41   C     C_R   0.417463 0.865313 0.564816 -0.109277
C42   C     C_R   0.340135 0.902893 0.937031 -0.110974
C43   C     C_R   0.455734 0.947877 0.574132 0.029390
C44   C     C_R   0.418485 0.958638 0.926057 0.030757
C45   C     C_R   0.487427 0.014974 0.556198 -0.033019
C46   C     C_R   0.593075 0.536759 0.017220 0.018680
C47   C     C_R   0.489781 0.998023 0.942348 -0.032284
C48   C     C_R   0.082740 0.589853 0.353237 -0.056208
C49   C     C_R   0.064872 0.588989 0.150516 -0.051816
C50   C     C_R   0.524356 0.098151 0.565403 0.029498
C51   C     C_R   0.569240 0.051902 0.931344 0.030273
C52   C     C_R   0.530732 0.113241 0.592315 0.425564
C53   C     C_R   0.576024 0.068772 0.904527 0.425852
C54   C     C_R   0.463690 0.965103 0.601020 0.421089
C55   C     C_R   0.427243 0.976571 0.899158 0.421472
C56   C     C_R   0.468734 0.098503 0.649674 -0.053840
C57   C     C_R   0.470849 0.556145 0.479372 0.032271
C58   C     C_R   0.566360 0.038840 0.845613 -0.055562
C59   C     C_R   0.490715 0.129931 0.674922 -0.136908
C60   C     C_R   0.588174 0.074794 0.820885 -0.137713
C61   C     C_R   0.598738 0.090643 0.675621 -0.138745
C62   C     C_R   0.499847 0.136784 0.827099 -0.141971
C63   C     C_R   0.576374 0.058962 0.650413 -0.060219
C64   C     C_R   0.478739 0.101387 0.851976 -0.059064
C65   C     C_R   0.512996 0.064995 0.637082 0.241886
C66   C     C_R   0.513874 0.054309 0.861655 0.240237
C67   C     C_R   0.427743 0.900083 0.492521 0.022232
C68   C     C_R   0.522585 0.540465 0.026986 0.033483
C69   C     C_R   0.396659 0.907930 0.007613 0.020902
C70   C     C_R   0.471142 0.968230 0.474923 -0.010454
C71   C     C_R   0.465304 0.960153 0.024201 -0.008275
C72   C     C_R   0.105130 0.607123 0.327074 -0.141271
C73   C     C_R   0.090042 0.601798 0.176467 -0.137911
C74   C     C_R   0.522545 0.051317 0.484358 0.016714
C75   C     C_R   0.543078 0.023748 0.013604 0.026022
C76   C     C_R   0.373744 0.819269 0.482191 -0.138104
C77   C     C_R   0.323915 0.840287 0.018826 -0.143125
C78   C     C_R   0.566936 0.099039 0.439762 -0.094497
C79   C     C_R   0.400071 0.496585 0.493837 0.012934
C80   C     C_R   0.592165 0.072376 0.057926 -0.098768
C81   C     C_R   0.549283 0.149125 0.521000 -0.127144
C82   C     C_R   0.632728 0.073524 0.973979 -0.105095
C83   C     C_R   0.553007 0.164404 0.547546 -0.134021
C84   C     C_R   0.640528 0.086798 0.947300 -0.119154
C85   C     C_R   0.576844 0.114477 0.466484 0.246529
C86   C     C_R   0.606464 0.081571 0.031001 0.245821
C87   C     C_R   0.531771 0.612808 0.409698 0.419798
C88   C     C_R   0.563018 0.552112 0.098767 0.420739
C89   C     C_R   0.384013 0.512107 0.411622 0.440394
C90   C     C_R   0.461675 0.539809 0.009695 0.019324
C91   C     C_R   0.431786 0.548090 0.091338 0.419386
C92   C     C_R   0.414625 0.495418 0.353773 -0.061700
C93   C     C_R   0.416380 0.486615 0.148650 -0.058174
C94   C     C_R   0.404166 0.500510 0.326939 -0.145077
C95   C     C_R   0.396125 0.494421 0.174256 -0.138459
C96   C     C_R   0.142987 0.498190 0.326587 -0.138301
C97   C     C_R   0.143335 0.505449 0.171913 -0.137673
C98   C     C_R   0.470523 0.651848 0.330424 -0.141132
C99   C     C_R   0.508468 0.639805 0.174661 -0.142614
C100  C     C_R   0.478612 0.646491 0.357214 -0.046169
C101  C     C_R   0.618013 0.665615 0.476841 -0.142733
C102  C     C_R   0.528634 0.631760 0.149022 -0.060640
C103  C     C_R   0.450212 0.568298 0.369242 0.239700
C104  C     C_R   0.481158 0.555831 0.135698 0.245159
C105  C     C_R   0.465337 0.559353 0.451777 -0.032583
C106  C     C_R   0.512609 0.544459 0.054355 -0.031855
C107  C     C_R   0.537067 0.613216 0.437035 0.032941
C108  C     C_R   0.573920 0.548135 0.071758 0.028733
C109  C     C_R   0.612967 0.665743 0.449857 -0.110418
C110  C     C_R   0.644724 0.547869 0.061836 -0.111003
C111  C     C_R   0.388407 0.508012 0.438941 0.025879
C112  C     C_R   0.408797 0.584465 0.212356 0.545394
C113  C     C_R   0.654221 0.542289 0.035203 -0.141468
C114  C     C_R   0.441077 0.544427 0.064309 0.028694
C115  C     C_R   0.431445 0.578836 0.315061 0.009784
C116  C     C_R   0.440268 0.571876 0.187274 0.011631
C117  C     C_R   0.570065 0.441907 0.688123 0.011836
C118  C     C_R   0.572759 0.439896 0.812912 0.010400
C119  C     C_R   0.552158 0.609406 0.519774 0.016071
C120  C     C_R   0.600055 0.527536 0.989969 0.019227
C121  C     C_R   0.120881 0.481319 0.352771 -0.052590
C122  C     C_R   0.117763 0.492491 0.145890 -0.054887
C123  C     C_R   0.409190 0.486166 0.520891 0.013936
C124  C     C_R   0.317311 0.454317 0.453682 -0.122310
C125  C     C_R   0.473374 0.539212 0.982369 0.018440
C126  C     C_R   0.485002 0.543439 0.533795 0.031679
C127  C     C_R   0.540824 0.530135 0.972653 0.033280
C128  C     C_R   0.622453 0.670261 0.533894 -0.143694
C129  C     C_R   0.663797 0.514617 0.979335 -0.140906
C130  C     C_R   0.629690 0.662244 0.560547 -0.110279
C131  C     C_R   0.669956 0.506143 0.952692 -0.111195
C132  C     C_R   0.567707 0.592682 0.574135 0.031352
C133  C     C_R   0.612922 0.510038 0.935440 0.028850
C134  C     C_R   0.494655 0.533618 0.560867 -0.032245
C135  C     C_R   0.379893 0.540090 0.047125 -0.113394
C136  C     C_R   0.548629 0.522838 0.945323 -0.031523
C137  C     C_R   0.432036 0.463869 0.574513 0.032020
C138  C     C_R   0.491660 0.527616 0.927902 0.029161
C139  C     C_R   0.446197 0.450581 0.600620 0.426840
C140  C     C_R   0.498702 0.517952 0.901018 0.419027
C141  C     C_R   0.577882 0.580335 0.600654 0.420462
C142  C     C_R   0.617718 0.499518 0.908488 0.420922
C143  C     C_R   0.614265 0.491671 0.644029 -0.053478
C144  C     C_R   0.632912 0.536823 0.849266 -0.055063
C145  C     C_3   0.718991 0.190781 0.474318 -0.001424
C146  C     C_R   0.346208 0.418475 0.535385 -0.144545
C147  C     C_3   0.738216 0.168533 0.501259 -0.265309
C148  C     C_3   0.827502 0.182747 0.502592 -0.471654
C149  C     C_3   0.752475 0.166196 0.031761 -0.014090
C150  C     C_3   0.800477 0.251291 0.045333 -0.250934
C151  C     C_3   0.885973 0.267856 0.055200 -0.462545
C152  C     C_R   0.419749 0.547557 0.964277 -0.141463
C153  C     C_R   0.046181 0.496125 0.447466 -0.031901
C154  C     C_R   0.037628 0.529659 0.053631 -0.034881
C155  C     C_R   0.357892 0.407195 0.561535 -0.109473
C156  C     C_R   0.428670 0.541638 0.937668 -0.110261
C157  C     C_R   0.322938 0.448427 0.480537 -0.152537
C158  C     C_R   0.092373 0.528260 0.366326 0.241414
C159  C     C_R   0.389840 0.537990 0.020432 -0.144796
C160  C     C_R   0.590916 0.175247 0.712456 0.544671
C161  C     C_R   0.590875 0.174955 0.787479 0.544262
C162  C     C_R   0.824636 0.415689 0.712437 0.541293
C163  C     C_R   0.824613 0.415726 0.787557 0.546101
C164  C     C_R   0.584172 0.408891 0.712522 0.540955
C165  C     C_R   0.584534 0.408601 0.787695 0.543465
C166  C     C_R   0.979132 0.472894 0.429816 0.028624
C167  C     C_R   0.970123 0.503169 0.071231 0.021392
C168  C     C_R   0.897490 0.441211 0.439351 -0.115161
C169  C     C_R   0.080831 0.536300 0.134877 0.238455
C170  C     C_R   0.889212 0.476250 0.061623 -0.123557
C171  C     C_R   0.128709 0.529489 0.437841 0.025833
C172  C     C_R   0.119825 0.561014 0.063320 0.025542
C173  C     C_R   0.137422 0.562814 0.313639 0.008938
C174  C     C_R   0.132280 0.562551 0.187168 0.010058
C175  C     C_R   0.870850 0.428592 0.687774 0.007491
C176  C     C_R   0.869362 0.429292 0.812519 0.009336
C177  C     C_R   0.930901 0.437542 0.511220 0.012276
C178  C     C_R   0.923168 0.474538 0.989824 0.013953
C179  C     C_R   0.083707 0.507425 0.519699 0.016461
C180  C     C_R   0.630878 0.469518 0.668405 -0.136080
C181  C     C_R   0.076058 0.545749 0.981470 0.016304
C182  C     C_R   0.999475 0.468194 0.528945 0.033517
C183  C     C_R   0.991747 0.503648 0.972193 0.034246
C184  C     C_R   0.176496 0.591684 0.287794 0.544170
C185  C     C_R   0.175511 0.591451 0.212420 0.546743
C186  C     C_R   0.848159 0.393839 0.521309 -0.155423
C187  C     C_R   0.840416 0.428635 0.979796 -0.155144
C188  C     C_R   0.833264 0.384517 0.547884 -0.115793
C189  C     C_R   0.825558 0.414191 0.953308 -0.117532
C190  C     C_R   0.900149 0.418671 0.565575 0.029843
C191  C     C_R   0.638280 0.514377 0.823697 -0.137707
C192  C     C_R   0.892440 0.445011 0.935662 0.026848
C193  C     C_R   0.983544 0.460110 0.556220 -0.031818
C194  C     C_R   0.975796 0.490017 0.945003 -0.032236
C195  C     C_R   0.050916 0.493963 0.574122 0.027733
C196  C     C_R   0.043178 0.521077 0.927182 0.029112
C197  C     C_R   0.033958 0.487676 0.601023 0.421815
C198  C     C_R   0.026338 0.506871 0.900368 0.419778
C199  C     C_R   0.885290 0.412614 0.592510 0.418077
C200  C     C_R   0.877649 0.431669 0.908785 0.429639
C201  C     C_R   0.904469 0.368706 0.650707 -0.056283
C202  C     C_R   0.493739 0.439993 0.683504 -0.142136
C203  C     C_R   0.888100 0.371902 0.852964 -0.051431
C204  C     C_R   0.873240 0.360870 0.675908 -0.137170
C205  C     C_R   0.859547 0.360451 0.827276 -0.135968
C206  C     C_R   0.905227 0.505810 0.674513 -0.144211
C207  C     C_R   0.913309 0.510325 0.823330 -0.136797
C208  C     C_R   0.415403 0.823588 0.287787 0.541645
C209  C     C_R   0.415257 0.823366 0.212122 0.546676
C210  C     C_R   0.936766 0.513529 0.649327 -0.063718
C211  C     C_R   0.942070 0.521611 0.848940 -0.055422
C212  C     C_R   0.934388 0.444369 0.637114 0.244734
C213  C     C_R   0.500069 0.390663 0.827815 -0.142980
C214  C     C_R   0.927327 0.452223 0.864098 0.239840
C215  C     C_R   0.946886 0.450902 0.484094 0.010155
C216  C     C_R   0.939199 0.489589 0.016890 0.013146
C217  C     C_R   0.030683 0.486467 0.474758 0.034377
C218  C     C_R   0.022801 0.524239 0.026321 0.034596
C219  C     C_R   0.099125 0.513024 0.492408 0.016995
C220  C     C_R   0.091529 0.552693 0.008754 0.017330
C221  C     C_R   0.881720 0.431144 0.465878 -0.157373
C222  C     C_R   0.874161 0.470637 0.035016 -0.161930
C223  C     C_R   0.195210 0.552812 0.455353 -0.125551
C224  C     C_R   0.478320 0.465135 0.659373 -0.054893
C225  C     C_R   0.187115 0.590032 0.045888 -0.129964
C226  C     C_R   0.149771 0.540725 0.538211 -0.145189
C227  C     C_R   0.142060 0.578411 0.962994 -0.150010
C228  C     C_R   0.133575 0.534209 0.564789 -0.111780
C229  C     C_R   0.125816 0.566169 0.936472 -0.113176
C230  C     C_R   0.180909 0.544581 0.482023 -0.156184
C231  C     C_R   0.173486 0.585834 0.019214 -0.159376
C232  C     C_R   0.995331 0.483035 0.402933 0.417910
C233  C     C_R   0.985067 0.504282 0.098118 0.411934
C234  C     C_R   0.401703 0.858111 0.410913 0.418767
Cr1   Cr    Cr6+3 0.456550 0.732290 0.250000 1.024469
Cr2   Cr    Cr6+3 0.275740 0.543450 0.250000 1.023297
Cr3   Cr    Cr6+3 0.267710 0.724260 0.250000 1.021953
Cr4   Cr    Cr6+3 0.543450 0.275740 0.750000 1.027048
Cr5   Cr    Cr6+3 0.724260 0.267710 0.750000 1.022684
Cr6   Cr    Cr6+3 0.732290 0.456550 0.750000 1.027466
H1    H     H_    0.168170 0.463274 0.316889 0.141608
H2    H     H_    0.922080 0.564588 0.812412 0.137881
H3    H     H_    0.839330 0.165921 0.522299 0.158434
H4    H     H_    0.874193 0.249794 0.498802 0.161066
H5    H     H_    0.791246 0.166623 0.015126 0.139355
H6    H     H_    0.746152 0.115376 0.045124 0.118926
H7    H     H_    0.810121 0.301196 0.031261 0.185922
H8    H     H_    0.763130 0.253565 0.061978 0.175844
H9    H     H_    0.877875 0.218142 0.069167 0.156396
H10   H     H_    0.918715 0.329304 0.065318 0.169230
H11   H     H_    0.925713 0.269521 0.038666 0.150875
H12   H     H_    0.186569 0.561368 0.578084 0.165612
H13   H     H_    0.178764 0.592097 0.923192 0.166949
H14   H     H_    0.959099 0.571968 0.638800 0.130596
H15   H     H_    0.972009 0.583805 0.857439 0.136357
H16   H     H_    0.235620 0.562479 0.493946 0.109503
H17   H     H_    0.228862 0.607388 0.007368 0.102779
H18   H     H_    0.296581 0.832119 0.317616 0.135069
H19   H     H_    0.308596 0.862770 0.186074 0.131417
H20   H     H_    0.309918 0.872901 0.363521 0.133974
H21   H     H_    0.176083 0.474706 0.179574 0.136409
H22   H     H_    0.318269 0.904570 0.140191 0.140899
H23   H     H_    0.322085 0.742566 0.448572 0.164661
H24   H     H_    0.260062 0.774192 0.053172 0.166736
H25   H     H_    0.128175 0.433386 0.362747 0.146981
H26   H     H_    0.129990 0.451269 0.133965 0.139734
H27   H     H_    0.458023 0.158949 0.683758 0.142935
H28   H     H_    0.631846 0.064950 0.809359 0.135405
H29   H     H_    0.419943 0.103757 0.639422 0.137850
H30   H     H_    0.593751 0.002465 0.852861 0.136129
H31   H     H_    0.393494 0.812540 0.578133 0.165945
H32   H     H_    0.060736 0.626408 0.363612 0.134545
H33   H     H_    0.284077 0.872034 0.925047 0.165767
H34   H     H_    0.380020 0.783952 0.532641 0.106847
H35   H     H_    0.269626 0.843919 0.970607 0.113173
H36   H     H_    0.335492 0.765469 0.494298 0.107495
H37   H     H_    0.271931 0.794780 0.007284 0.110268
H38   H     H_    0.559014 0.900307 0.316902 0.138517
H39   H     H_    0.545162 0.866410 0.178638 0.134202
H40   H     H_    0.570714 0.939724 0.362769 0.135518
H41   H     H_    0.552216 0.904678 0.132993 0.135790
H42   H     H_    0.567278 0.202407 0.508397 0.185731
H43   H     H_    0.036613 0.623273 0.142215 0.142679
H44   H     H_    0.690479 0.096318 0.984571 0.154476
H45   H     H_    0.650512 0.088605 0.685059 0.136591
H46   H     H_    0.475187 0.176330 0.820565 0.133203
H47   H     H_    0.845052 0.424519 0.426270 0.171430
H48   H     H_    0.836656 0.458454 0.074701 0.167830
H49   H     H_    0.578214 0.228647 0.554031 0.164907
H50   H     H_    0.703061 0.124275 0.939189 0.163494
H51   H     H_    0.611287 0.033735 0.640726 0.130864
H52   H     H_    0.438735 0.114408 0.864258 0.135965
H53   H     H_    0.490416 0.713040 0.322014 0.140390
H54   H     H_    0.259172 0.577915 0.448473 0.165674
H55   H     H_    0.543524 0.700378 0.184086 0.130697
H56   H     H_    0.504947 0.703331 0.368746 0.152755
H57   H     H_    0.578394 0.685745 0.139082 0.127296
H58   H     H_    0.669292 0.707481 0.439015 0.164173
H59   H     H_    0.693392 0.551719 0.074712 0.165346
H60   H     H_    0.689669 0.470193 0.671480 0.134672
H61   H     H_    0.695133 0.553673 0.812756 0.134723
H62   H     H_    0.660428 0.508713 0.628696 0.154906
H63   H     H_    0.684974 0.592911 0.857566 0.135938
H64   H     H_    0.685501 0.709947 0.570374 0.164538
H65   H     H_    0.251126 0.616036 0.052839 0.164461
H66   H     H_    0.719733 0.495950 0.945634 0.165651
H67   H     H_    0.672622 0.725738 0.524886 0.110854
H68   H     H_    0.709109 0.508552 0.991097 0.106249
H69   H     H_    0.847209 0.300516 0.685545 0.136123
H70   H     H_    0.825605 0.297262 0.819530 0.142353
H71   H     H_    0.679332 0.706249 0.485074 0.111977
H72   H     H_    0.711357 0.543936 0.029365 0.107628
H73   H     H_    0.373051 0.443282 0.315598 0.131903
H74   H     H_    0.343359 0.440886 0.183388 0.134246
H75   H     H_    0.393097 0.434521 0.362620 0.144314
H76   H     H_    0.215265 0.574314 0.532865 0.105373
H77   H     H_    0.379265 0.427775 0.138450 0.128038
H78   H     H_    0.256751 0.415716 0.444441 0.165839
H79   H     H_    0.323326 0.537729 0.054307 0.162956
H80   H     H_    0.288445 0.370606 0.526757 0.113030
H81   H     H_    0.370690 0.560160 0.969989 0.105876
H82   H     H_    0.446093 0.418819 0.698537 0.129735
H83   H     H_    0.448700 0.332754 0.820168 0.135021
H84   H     H_    0.308536 0.352971 0.571531 0.165879
H85   H     H_    0.385217 0.547524 0.924708 0.166884
H86   H     H_    0.419390 0.464000 0.656257 0.155390
H87   H     H_    0.207479 0.614846 0.968290 0.104153
H88   H     H_    0.440117 0.372589 0.864974 0.135646
H89   H     H_    0.265117 0.406532 0.490461 0.113073
H90   H     H_    0.338505 0.532541 0.008771 0.105774
H91   H     H_    0.901842 0.314824 0.641275 0.127077
H92   H     H_    0.876394 0.317927 0.864597 0.144058
H93   H     H_    0.768559 0.350737 0.554537 0.165037
H94   H     H_    0.760908 0.378247 0.946688 0.172372
H95   H     H_    0.792958 0.364325 0.509163 0.120281
H96   H     H_    0.785342 0.400466 0.992009 0.116648
H97   H     H_    0.817538 0.409418 0.471469 0.123663
H98   H     H_    0.904323 0.559094 0.683097 0.140343
H99   H     H_    0.810464 0.451044 0.029252 0.106212
H100  H     H_    0.100463 0.657479 0.317716 0.135147
H101  H     H_    0.080307 0.645903 0.187754 0.137803
H102  H     H_    0.606730 0.149708 0.426628 0.176418
H103  H     H_    0.638809 0.119063 0.070799 0.164873
H104  H     H_    0.769356 0.255084 0.469122 0.158892
H105  H     H_    0.721468 0.148227 0.459306 0.127020
H106  H     H_    0.731122 0.207895 0.516288 0.180407
H107  H     H_    0.692913 0.101543 0.505659 0.167026
H108  H     H_    0.835736 0.142878 0.488026 0.152011
N1    N     N_R   0.076481 0.515891 0.393832 -0.391625
N2    N     N_R   0.492341 0.551647 0.108138 -0.390193
N3    N     N_R   0.519281 0.507977 0.613322 -0.381141
N4    N     N_R   0.560387 0.502760 0.891708 -0.388705
N5    N     N_R   0.065706 0.532893 0.107282 -0.390920
N6    N     N_R   0.951905 0.447713 0.609762 -0.390103
N7    N     N_R   0.944336 0.462545 0.891579 -0.391110
N8    N     N_R   0.446701 0.924133 0.393935 -0.385580
N9    N     N_R   0.438833 0.924648 0.105697 -0.382672
N10   N     N_R   0.501107 0.047047 0.609683 -0.390082
N11   N     N_R   0.505328 0.031791 0.888829 -0.386528
N12   N     N_R   0.455575 0.563339 0.397266 -0.379920
O1    O     O_R   0.475290 0.813700 0.278840 -0.517521
O2    O     O_2   0.365642 0.943093 0.884918 -0.512578
O3    O     O_2   0.539364 0.061730 0.387855 -0.513364
O4    O     O_2   0.563386 0.044382 0.110124 -0.520408
O5    O     O_2   0.563672 0.185401 0.600383 -0.493563
O6    O     O_2   0.644739 0.117655 0.895147 -0.508756
O7    O     O_2   0.595221 0.656080 0.396895 -0.524571
O8    O     O_2   0.615941 0.555400 0.113964 -0.509536
O9    O     O_2   0.639346 0.633662 0.612463 -0.521421
O10   O     O_2   0.671978 0.485962 0.899956 -0.490980
O11   O     O_2   0.316335 0.470667 0.400621 -0.503346
O12   O     O_R   0.475290 0.813700 0.221160 -0.514463
O13   O     O_2   0.370084 0.548801 0.099998 -0.487047
O14   O     O_2   0.394439 0.386761 0.611820 -0.520558
O15   O     O_2   0.449859 0.522792 0.885846 -0.511136
O16   O     O_R   0.448450 0.657720 0.276690 -0.496050
O17   O     O_R   0.448450 0.657720 0.223310 -0.495649
O18   O     O_R   0.524710 0.338410 0.721160 -0.506779
O19   O     O_R   0.524710 0.338410 0.778840 -0.516148
O20   O     O_R   0.551550 0.209270 0.723310 -0.495218
O21   O     O_R   0.551550 0.209270 0.776690 -0.495057
O22   O     O_R   0.661590 0.186300 0.721160 -0.515532
O23   O     O_2   0.214589 0.569028 0.402388 -0.460166
O24   O     O_R   0.661590 0.186300 0.778840 -0.514279
O25   O     O_R   0.790730 0.342280 0.723310 -0.496124
O26   O     O_R   0.790730 0.342280 0.776690 -0.495160
O27   O     O_R   0.813700 0.475290 0.721160 -0.513323
O28   O     O_R   0.813700 0.475290 0.778840 -0.512549
O29   O     O_R   0.657720 0.448450 0.723310 -0.492189
O30   O     O_R   0.657720 0.448450 0.776690 -0.494969
O31   O     O_3   0.666667 0.333333 0.750000 -0.232050
O32   O     O_R   0.338410 0.524710 0.278840 -0.511087
O33   O     O_R   0.338410 0.524710 0.221160 -0.515425
O34   O     O_2   0.204484 0.590919 0.098804 -0.459125
O35   O     O_R   0.209270 0.551550 0.276690 -0.496760
O36   O     O_R   0.209270 0.551550 0.223310 -0.494955
O37   O     O_R   0.186300 0.661590 0.278840 -0.515890
O38   O     O_R   0.186300 0.661590 0.221160 -0.513210
O39   O     O_R   0.342280 0.790730 0.276690 -0.495784
O40   O     O_R   0.342280 0.790730 0.223310 -0.493296
O41   O     O_3   0.333333 0.666667 0.250000 -0.232094
O42   O     O_2   0.937304 0.462401 0.387555 -0.511159
O43   O     O_2   0.926332 0.479036 0.113407 -0.514140
O44   O     O_2   0.813016 0.376983 0.600696 -0.499171
O45   O     O_2   0.091939 0.517672 0.616680 -0.506416
O46   O     O_2   0.805380 0.393488 0.900590 -0.473175
O47   O     O_3   0.642020 0.191285 0.474729 -0.598347
O48   O     O_3   0.675144 0.155023 0.021803 -0.577477
O49   O     O_2   0.084455 0.533596 0.884810 -0.507315
O50   O     O_2   0.355796 0.787397 0.402415 -0.495297
O51   O     O_2   0.312899 0.808368 0.098627 -0.494126
O52   O     O_2   0.437277 0.907441 0.616737 -0.507067

loop_
_geom_bond_atom_site_label_1
_geom_bond_atom_site_label_2
_ccdc_geom_bond_type
C194  C196  A    
C63   C65   A    
C93   H77   S    
C153  C166  A    
C6    H40   S    
C102  H57   S    
C3    O51   D    
C199  O44   D    
C39   C41   A    
C203  C205  A    
C21   C76   A    
C73   H101  S    
C88   C108  A    
C184  O37   A    
Cr4   O21   S    
C58   C60   A    
C177  C182  A    
C61   C63   A    
C80   C86   A    
C21   H23   S    
C133  C142  A    
C152  C156  A    
C22   H24   S    
C70   C74   A    
C148  H3    S    
C68   C90   A    
C34   C81   A    
C201  C212  A    
C97   H21   S    
C208  O39   A    
C119  C128  A    
C212  N6    S    
C112  O17   A    
Cr3   O39   S    
C41   C43   A    
C31   C62   A    
C42   C44   A    
C52   O5    D    
C53   N11   Am   
C215  C221  A    
C50   C83   A    
C191  H61   S    
C181  C183  A    
C135  C159  A    
C96   C173  A    
Cr6   O31   S    
C127  C136  A    
C121  H25   S    
C103  N12   S    
C123  C126  A    
C165  O19   A    
C48   C158  A    
C177  C186  A    
C87   N12   Am   
C64   C66   A    
C53   O6    D    
Cr2   O35   S    
C172  C225  A    
C168  H47   S    
C164  O18   A    
C101  H71   S    
C15   N8    S    
C203  H92   S    
C197  O45   D    
C181  C220  A    
C92   C94   A    
C72   C173  A    
C201  H91   S    
Cr5   O31   S    
C138  C140  A    
C39   H34   S    
C104  N2    S    
C131  H66   S    
C27   C80   A    
C82   C84   A    
C221  H97   S    
C28   C208  S    
C49   C73   A    
C154  C167  A    
C87   O7    D    
C219  C230  A    
C37   C45   A    
C145  H105  S    
C31   C161  S    
C18   C71   A    
C167  C233  A    
C179  C219  A    
C111  C124  A    
C142  O10   D    
C87   C107  A    
C171  C223  A    
C94   C115  A    
C91   O13   D    
C144  C191  A    
Cr4   O19   S    
C140  O15   D    
C58   H30   S    
C230  H16   S    
C33   C38   A    
C94   H73   S    
C59   H27   S    
C78   H102  S    
C179  C226  A    
C161  O21   A    
C174  C185  S    
C44   C55   A    
C186  H95   S    
C118  C213  A    
C192  C200  A    
C55   O2    D    
C119  C126  A    
Cr1   O16   S    
C84   H50   S    
C198  N7    Am   
C126  C134  A    
C132  C134  A    
C30   C61   A    
C125  C127  A    
C1    C115  S    
C187  H96   S    
C149  H6    S    
C177  C215  A    
C69   C77   A    
C147  C148  S    
C168  C221  A    
C82   H44   S    
C89   O11   D    
C205  H70   S    
C83   H49   S    
C120  C127  A    
C147  H106  S    
C181  C227  A    
C224  H86   S    
C231  H17   S    
C146  H80   S    
Cr4   O31   S    
C26   C78   A    
C96   C121  A    
C151  H11   S    
C152  H81   S    
C209  O12   A    
C19   C21   A    
C216  C218  A    
C175  C204  A    
C183  C194  A    
C137  C155  A    
C23   O23   D    
C90   C159  A    
C184  O35   A    
C14   H22   S    
C170  C222  A    
C139  O14   D    
C112  O33   A    
C54   N10   Am   
C173  C184  S    
C200  N7    Am   
C62   C64   A    
C233  N5    Am   
C153  C217  A    
C190  C193  A    
C223  C230  A    
C40   C42   A    
C25   O34   D    
C93   C95   A    
C166  C168  A    
C153  C171  A    
C48   C72   A    
C81   C83   A    
C151  H10   S    
C33   C40   A    
C120  C129  A    
C88   O8    D    
Cr2   O41   S    
C160  O22   A    
C162  C175  S    
Cr6   O30   S    
C51   C53   A    
C5    O4    D    
C192  C194  A    
C102  C104  A    
C62   H46   S    
C46   C68   A    
C36   C75   A    
C206  C210  A    
C218  C220  A    
C95   C116  A    
C30   C59   A    
C46   C120  A    
C32   C37   A    
C43   C45   A    
C13   N3    S    
C32   C67   A    
C78   C85   A    
C227  C229  A    
C80   H103  S    
C210  C212  A    
C121  C158  A    
C24   N4    S    
Cr6   O27   S    
C149  O48   S    
C98   H53   S    
C117  C202  A    
C19   C234  A    
C55   N11   Am   
C112  C116  S    
C122  H26   S    
C132  C141  A    
C159  H90   S    
C166  C232  A    
C46   C113  A    
C130  H64   S    
C213  H83   S    
C95   H74   S    
C29   C209  S    
C33   C69   A    
C1    O32   A    
C118  C165  S    
C91   C114  A    
C178  C216  A    
C64   H52   S    
C67   C70   A    
C164  O29   A    
Cr5   O22   S    
C222  H99   S    
C135  H79   S    
C98   C115  A    
C106  C108  A    
C65   N10   S    
C108  C110  A    
C41   H31   S    
C74   C85   A    
Cr1   O41   S    
C169  N5    S    
C96   H1    S    
C211  C214  A    
C109  H58   S    
C48   H32   S    
C148  H4    S    
C150  C151  S    
C45   C50   A    
C228  H12   S    
C195  C197  A    
C23   C171  A    
C85   O47   S    
Cr3   O38   S    
C86   O48   S    
C34   C37   A    
C100  H56   S    
C134  C137  A    
C137  C139  A    
C145  O47   S    
C60   H28   S    
C99   H55   S    
C4    N8    Am   
C89   N12   Am   
Cr1   O12   S    
C147  H107  S    
C101  C109  A    
C232  O42   D    
C32   C39   A    
C73   C174  A    
Cr2   O36   S    
C140  N4    Am   
C143  H62   S    
C146  C155  A    
C188  C190  A    
C190  C199  A    
C226  H76   S    
Cr5   O26   S    
C178  C183  A    
C220  C231  A    
C179  C182  A    
C105  C111  A    
C92   H75   S    
C107  C109  A    
C141  N3    Am   
C56   H29   S    
C145  C147  S    
C158  N1    S    
C200  O46   D    
C117  C164  S    
C157  H89   S    
C202  C224  A    
C196  C198  A    
C207  H2    S    
C227  H87   S    
C6    C8    A    
C40   H35   S    
Cr4   O20   S    
C49   H43   S    
C100  C103  A    
Cr3   O41   S    
C31   C60   A    
C130  C132  A    
C105  C107  A    
C225  H65   S    
C123  C146  A    
C122  C169  A    
C124  C157  A    
C150  H8    S    
C3    C20   A    
C182  C193  A    
C72   H100  S    
C34   C74   A    
C178  C187  A    
C25   C172  A    
C142  N4    Am   
C7    C16   A    
C20   C22   A    
Cr3   O40   S    
C98   C100  A    
C54   O52   D    
C199  N6    Am   
C234  N8    Am   
C188  H93   S    
C186  C188  A    
C204  H69   S    
C99   C116  A    
C10   C28   A    
C89   C111  A    
C165  O30   A    
C149  H5    S    
C97   C174  A    
C208  O1    A    
C170  H48   S    
C81   H42   S    
C22   C77   A    
C211  H15   S    
C35   C101  A    
C128  C130  A    
C79   C157  A    
C47   C51   A    
C189  H94   S    
C35   C57   A    
C3    N9    Am   
C36   C38   A    
C149  C150  S    
C49   C169  A    
C24   C144  A    
C11   C14   A    
C90   C125  A    
C13   C143  A    
C4    O3    D    
C5    N9    Am   
Cr1   O17   S    
C99   C102  A    
C196  C229  A    
C2    C213  A    
C139  N3    Am   
C9    H39   S    
C175  C206  A    
C51   C84   A    
C209  O40   A    
C11   H19   S    
C234  O50   D    
C176  C205  A    
C57   C105  A    
C8    H38   S    
C57   C79   A    
C203  C214  A    
C35   C119  A    
C151  H9    S    
Cr4   O18   S    
C30   C160  S    
C225  C231  A    
C195  C228  A    
C106  C114  A    
C17   C26   A    
C176  C207  A    
C25   N5    Am   
C215  C217  A    
C129  H68   S    
C2    H88   S    
C50   C52   A    
C56   C65   A    
C223  H54   S    
Cr5   O24   S    
C76   H36   S    
C69   C71   A    
C118  C191  A    
C77   H37   S    
C207  C211  A    
C210  H14   S    
C75   C86   A    
C92   C103  A    
C6    C15   A    
C42   H33   S    
C66   N11   S    
C58   C66   A    
C141  O9    D    
C185  O36   A    
C36   C82   A    
C193  C195  A    
C133  C136  A    
C114  C135  A    
C12   C15   A    
Cr2   O32   S    
C61   H45   S    
C154  C218  A    
C145  H104  S    
C160  O20   A    
C156  H85   S    
C44   C47   A    
C9    C29   A    
C17   C70   A    
C128  H67   S    
C5    C27   A    
Cr6   O28   S    
C91   N2    Am   
C63   H51   S    
C148  H108  S    
C163  O26   A    
C68   C106  A    
C163  C176  S    
C93   C104  A    
C162  O27   A    
C167  C170  A    
C88   N2    Am   
C150  H7    S    
C4    C26   A    
C113  H72   S    
C16   N9    S    
C136  C138  A    
C155  H84   S    
C79   C123  A    
C110  H59   S    
C189  C192  A    
C202  H82   S    
C97   C122  A    
C125  C152  A    
C56   C59   A    
C197  N6    Am   
C180  H60   S    
C10   H18   S    
C154  C172  A    
C143  C180  A    
C43   C54   A    
C144  H63   S    
C110  C113  A    
C52   N10   Am   
C38   C47   A    
C10   C12   A    
C226  C228  A    
C2    C24   A    
C201  C204  A    
C14   C16   A    
C232  N1    Am   
C138  C156  A    
C7    C9    A    
Cr3   O37   S    
C161  O24   A    
C18   C27   A    
C131  C133  A    
C7    H41   S    
C229  H13   S    
C117  C180  A    
C163  O28   A    
C217  C219  A    
C198  O49   D    
C12   H20   S    
C206  H98   S    
Cr6   O29   S    
C124  H78   S    
Cr1   O1    S    
C71   C75   A    
C214  N7    S    
C185  O38   A    
C8    C28   A    
C17   C19   A    
Cr5   O25   S    
C18   C20   A    
Cr2   O33   S    
C216  C222  A    
C187  C189  A    
C233  O43   D    
C11   C29   A    
C67   C76   A    
C13   C224  A    
C1    O16   A    
C23   N1    Am   
C162  O25   A    
C129  C131  A    
