data_mof_unit_11246.cif
_audit_creation_date              2012-12-11T15:16:39-0500
_audit_creation_method            fapswitch 2.2
_symmetry_space_group_name_H-M    P1
_symmetry_Int_Tables_number       1
_space_group_crystal_system       triclinic
_cell_length_a                    25.129419
_cell_length_b                    7.228891
_cell_length_c                    21.932115
_cell_angle_alpha                 90.000102
_cell_angle_beta                  110.301105
_cell_angle_gamma                 90.000172
_cell_volume                      3736.65457109

loop_
_atom_site_label
_atom_site_type_symbol
_atom_type_description
_atom_site_fract_x
_atom_site_fract_y
_atom_site_fract_z
_atom_type_partial_charge
O1    O     O_R   0.554350 0.505270 0.581390 -0.536114
O2    O     O_R   0.445650 0.005270 0.418610 -0.536115
O3    O     O_R   0.553380 0.177580 0.454800 -0.547299
O4    O     O_R   0.446620 0.677580 0.545200 -0.547299
C1    C     C_R   0.565366 0.344903 0.437551 0.702280
C2    C     C_R   0.434633 0.844903 0.562449 0.702280
O5    O     O_R   0.560970 0.175640 0.583140 -0.532389
O6    O     O_R   0.439030 0.675640 0.416860 -0.532388
O7    O     O_R   0.453290 0.004120 0.547860 -0.501842
O8    O     O_R   0.546710 0.504120 0.452140 -0.501842
C3    C     C_R   0.576077 0.343897 0.607596 0.701581
C4    C     C_R   0.423922 0.843896 0.392403 0.701580
O9    O     O_3   0.464660 0.338800 0.488280 -0.370555
O10   O     O_3   0.535340 0.838800 0.511720 -0.370554
V1    V     V_3+5 0.506560 0.064420 0.502170 1.485190
V2    V     V_3+5 0.493440 0.564420 0.497830 1.485191
C5    C     C_R   0.146977 0.942888 0.289456 -0.157602
C6    C     C_R   0.853025 0.442818 0.710543 -0.157601
H1    H     H_    0.061563 0.970529 0.223117 0.106812
H2    H     H_    0.938440 0.470455 0.776883 0.106811
H3    H     H_    0.232416 0.936065 0.401744 0.126901
H4    H     H_    0.767587 0.435963 0.598254 0.126900
H5    H     H_    0.134140 0.958117 0.331543 0.118272
H6    H     H_    0.865864 0.458013 0.668457 0.118272
C7    C     C_R   0.120763 0.939174 0.172446 -0.042918
C8    C     C_R   0.879237 0.439167 0.827553 -0.042917
C9    C     C_R   0.397230 0.818585 0.273898 -0.244341
C10   C     C_R   0.602767 0.318633 0.726104 -0.244341
C11   C     C_R   0.357717 0.793177 0.211980 -0.096924
C12   C     C_R   0.642279 0.293246 0.788023 -0.096922
C13   C     C_R   0.299575 0.798631 0.200916 0.343299
C14   C     C_R   0.700422 0.298682 0.799088 0.343299
C15   C     C_R   0.279628 0.854301 0.251778 -0.027335
C16   C     C_R   0.720371 0.354313 0.748224 -0.027338
C17   C     C_R   0.320758 0.868703 0.316253 0.031639
C18   C     C_R   0.679242 0.368691 0.683747 0.031638
C19   C     C_R   0.220871 0.891918 0.241821 0.074805
C20   C     C_R   0.779129 0.391914 0.758179 0.074806
C21   C     C_R   0.204279 0.915809 0.297054 0.144575
C22   C     C_R   0.795722 0.415761 0.702946 0.144576
C23   C     C_R   0.244938 0.916269 0.359608 -0.193640
C24   C     C_R   0.755065 0.416199 0.640391 -0.193638
C25   C     C_R   0.302255 0.897906 0.369009 -0.165965
C26   C     C_R   0.697747 0.397854 0.630990 -0.165960
C27   C     C_R   0.178170 0.914944 0.179415 -0.231257
C28   C     C_R   0.821829 0.414962 0.820585 -0.231259
C29   C     C_R   0.105567 0.951462 0.227757 -0.159526
C30   C     C_R   0.894434 0.451410 0.772243 -0.159525
C31   C     C_R   0.379665 0.848986 0.326827 -0.083833
C32   C     C_R   0.620335 0.348993 0.673173 -0.083831
H7    H     H_    0.188426 0.920775 0.135619 0.154783
H8    H     H_    0.811572 0.420825 0.864380 0.154782
H9    H     H_    0.441955 0.804111 0.281165 0.146949
H10   H     H_    0.558042 0.304176 0.718836 0.146945
H11   H     H_    0.372498 0.755904 0.172737 0.152195
H12   H     H_    0.627496 0.256003 0.827268 0.152195
H13   H     H_    0.332088 0.905197 0.418345 0.103728
H14   H     H_    0.667915 0.405127 0.581653 0.103721
C33   C     C_R   0.117387 0.764258 0.878084 -0.148555
C34   C     C_R   0.882614 0.264258 0.121916 -0.148557
H15   H     H_    0.099812 0.637123 0.889126 0.123200
H16   H     H_    0.900190 0.137124 0.110876 0.123199
C35   C     C_R   0.152998 0.753299 0.841254 -0.133811
C36   C     C_R   0.847003 0.253300 0.158747 -0.133811
H17   H     H_    0.161774 0.618478 0.825396 0.134285
H18   H     H_    0.838227 0.118479 0.174606 0.134285
C37   C     C_R   0.176923 0.913749 0.825231 0.020573
C38   C     C_R   0.823077 0.413749 0.174769 0.020573
C39   C     C_R   0.164277 0.085643 0.847226 -0.128732
C40   C     C_R   0.835723 0.585642 0.152773 -0.128732
H19   H     H_    0.181830 0.212378 0.835850 0.140372
H20   H     H_    0.818169 0.712377 0.164148 0.140372
C41   C     C_R   0.128493 0.096765 0.883956 -0.155236
C42   C     C_R   0.871506 0.596764 0.116043 -0.155234
H21   H     H_    0.119655 0.231666 0.899693 0.123753
H22   H     H_    0.880344 0.731666 0.100305 0.123752
C43   C     C_R   0.104459 0.936173 0.899922 -0.044096
C44   C     C_R   0.895541 0.436173 0.100078 -0.044095
N1    N     N_R   0.240941 0.055294 0.774164 -0.279449
N2    N     N_R   0.759058 0.555293 0.225834 -0.279449
N3    N     N_R   0.274915 0.045082 0.739197 -0.281514
N4    N     N_R   0.725084 0.545081 0.260802 -0.281514
C45   C     C_R   0.284266 0.881227 0.714160 0.535305
C46   C     C_R   0.715734 0.381227 0.285840 0.535305
N5    N     N_R   0.257982 0.727710 0.725730 -0.280481
N6    N     N_R   0.742019 0.227711 0.274271 -0.280482
N7    N     N_R   0.224043 0.737868 0.760846 -0.284085
N8    N     N_R   0.775958 0.237869 0.239155 -0.284085
C47   C     C_R   0.214758 0.901941 0.785891 0.515309
C48   C     C_R   0.785242 0.401941 0.214109 0.515310
C49   C     C_R   0.329009 0.707021 0.644340 -0.142392
C50   C     C_R   0.670992 0.207022 0.355661 -0.142392
H23   H     H_    0.305811 0.583593 0.647816 0.150255
H24   H     H_    0.694190 0.083596 0.352186 0.150256
C51   C     C_R   0.365107 0.699843 0.607927 -0.245981
C52   C     C_R   0.634894 0.199845 0.392074 -0.245982
H25   H     H_    0.368309 0.571010 0.584258 0.157489
H26   H     H_    0.631692 0.071013 0.415744 0.157489
C53   C     C_R   0.396274 0.856276 0.601659 -0.076100
C54   C     C_R   0.603726 0.356276 0.398341 -0.076099
C55   C     C_R   0.390610 0.022143 0.633614 0.362940
C56   C     C_R   0.609389 0.522141 0.366385 0.362939
C57   C     C_R   0.353686 0.027629 0.669562 -0.226797
C58   C     C_R   0.646313 0.527628 0.330437 -0.226797
H27   H     H_    0.349691 0.155066 0.693584 0.136595
H28   H     H_    0.650307 0.655064 0.306414 0.136595
C59   C     C_R   0.322666 0.871262 0.675415 -0.011688
C60   C     C_R   0.677334 0.371262 0.324585 -0.011688
O11   O     O_R   0.953220 0.285790 0.047790 -0.537576
O12   O     O_R   0.046780 0.785790 0.952210 -0.537576
O13   O     O_R   0.939020 0.617570 0.916840 -0.534215
O14   O     O_R   0.060980 0.117570 0.083160 -0.534215
C61   C     C_R   0.923903 0.448511 0.892469 0.685010
C62   C     C_R   0.076097 0.948512 0.107531 0.685010
O15   O     O_R   0.946600 0.615450 0.045180 -0.541556
O16   O     O_R   0.053400 0.115450 0.954820 -0.541556
O17   O     O_R   0.054370 0.786770 0.081410 -0.531013
O18   O     O_R   0.945630 0.286770 0.918590 -0.531013
C63   C     C_R   0.934335 0.446832 0.061740 0.680025
C64   C     C_R   0.065665 0.946832 0.938259 0.680027
O19   O     O_3   0.035300 0.454160 0.011680 -0.372968
O20   O     O_3   0.964700 0.954160 0.988320 -0.372968
V3    V     V_3+5 0.993450 0.728620 0.997830 1.420415
V4    V     V_3+5 0.006550 0.228620 0.002170 1.420416
O21   O     O_3   0.421979 0.176550 0.630355 -0.643830
H29   H     H_    0.413491 0.278723 0.655738 0.275266
O22   O     O_3   0.578019 0.676547 0.369643 -0.643830
H30   H     H_    0.586507 0.778719 0.344259 0.275268
O23   O     O_3   0.264747 0.729191 0.142242 -0.649375
H31   H     H_    0.236105 0.649945 0.151238 0.287190
O24   O     O_3   0.735248 0.229267 0.857767 -0.649374
H32   H     H_    0.763889 0.150003 0.848777 0.287189

loop_
_geom_bond_atom_site_label_1
_geom_bond_atom_site_label_2
_ccdc_geom_bond_type
C20   C22   A    
C35   H17   S    
C9    C11   A    
C23   C25   A    
O1    C3    A    
C37   C47   S    
C43   C64   S    
O2    C4    A    
C33   C43   A    
C2    O7    A    
C58   H28   S    
C4    C31   S    
O3    V1    S    
C21   C23   A    
O5    C3    A    
C34   C44   A    
C5    H5    S    
C42   H22   S    
C6    H6    S    
C36   C38   A    
C46   N6    A    
O14   V4    S    
C51   C53   A    
C27   H7    S    
C28   H8    S    
C50   C52   A    
C34   H16   S    
C5    C21   A    
C39   H19   S    
C6    C22   A    
O19   V4    S    
C46   C60   S    
C10   C32   A    
C50   C60   A    
O13   C61   A    
C26   H14   S    
C52   H26   S    
C40   C42   A    
C38   C48   S    
C13   C15   A    
C39   C41   A    
C17   C25   A    
C7    C29   A    
C16   C18   A    
C8    C30   A    
O5    V1    S    
O17   V3    S    
O6    V2    S    
C11   C13   A    
C41   H21   S    
C24   C26   A    
C13   O23   S    
O14   C62   A    
N3    C45   A    
N5    N7    A    
C35   C37   A    
C33   H15   S    
O15   V3    S    
N6    N8    A    
O13   V3    S    
C49   C59   A    
N2    N4    A    
C56   O22   S    
O12   C64   A    
N1    N3    A    
C10   H10   S    
C11   H11   S    
C12   H12   S    
C15   C19   A    
O16   C64   A    
C37   C39   A    
C36   H18   S    
O4    V2    S    
C17   C31   A    
O12   V3    S    
C49   H23   S    
C55   O21   S    
C1    C54   S    
O6    C4    A    
C50   H24   S    
C25   H13   S    
C57   H27   S    
O1    V2    S    
O18   V4    S    
C56   C58   A    
O2    V1    S    
H2    C30   S    
H3    C23   S    
O4    C2    A    
C53   C55   A    
N8    C48   A    
N4    C46   A    
N7    C47   A    
O21   H29   S    
C18   C26   A    
C19   C27   A    
O22   H30   S    
C7    C27   A    
C58   C60   A    
C18   C32   A    
O11   C63   A    
C54   C56   A    
C55   C57   A    
C51   H25   S    
O16   V4    S    
C45   N5    A    
C16   C20   A    
C33   C35   A    
C5    C29   A    
O3    C1    A    
C6    C30   A    
C57   C59   A    
C9    H9    S    
O11   V4    S    
O15   C63   A    
C34   C36   A    
C2    C53   S    
C10   C12   A    
C44   C63   S    
O23   H31   S    
C8    C61   S    
C1    O8    A    
C19   C21   A    
C3    C32   S    
O8    V2    S    
C7    C62   S    
C12   C14   A    
H4    C24   S    
C52   C54   A    
C22   C24   A    
C15   C17   A    
C45   C59   S    
H1    C29   S    
N2    C48   A    
C20   C28   A    
C62   O17   A    
C8    C28   A    
C49   C51   A    
C61   O18   A    
C9    C31   A    
C38   C40   A    
C42   C44   A    
O9    V2    S    
C41   C43   A    
O10   V1    S    
N1    C47   A    
C40   H20   S    
O20   V3    S    
C14   O24   S    
O24   H32   S    
O7    V1    S    
C14   C16   A    
