data_mof_unit_40055.cif
_audit_creation_date              2012-12-10T17:06:15-0500
_audit_creation_method            fapswitch 2.2
_symmetry_space_group_name_H-M    P1
_symmetry_Int_Tables_number       1
_space_group_crystal_system       triclinic
_cell_length_a                    10.645956
_cell_length_b                    11.07432
_cell_length_c                    9.917966
_cell_angle_alpha                 112.581476
_cell_angle_beta                  98.871725
_cell_angle_gamma                 91.387518
_cell_volume                      1062.26341801

loop_
_atom_site_label
_atom_site_type_symbol
_atom_type_description
_atom_site_fract_x
_atom_site_fract_y
_atom_site_fract_z
_atom_type_partial_charge
C1    C     C_R   0.486615 0.251894 0.438013 0.829020
C2    C     C_3   0.123019 0.496303 0.499862 -0.060577
C3    C     C_3   0.977927 0.614380 0.594621 0.210642
C4    C     C_3   0.023399 0.381477 0.404344 0.207629
C5    C     C_2   0.468596 0.108071 0.401949 -0.006651
C6    C     C_2   0.527395 0.890365 0.601731 0.003180
C7    C     C_2   0.482505 0.071285 0.517956 -0.233403
C8    C     C_2   0.467528 0.933416 0.501259 -0.237519
C9    C     C_2   0.507148 0.515061 0.084372 -0.001370
C10   C     C_2   0.478766 0.506954 0.924725 -0.004079
C11   C     C_3   0.952035 0.747781 0.704472 -0.423943
C12   C     C_R   0.513582 0.747323 0.562229 0.840112
C13   C     C_3   0.074533 0.839198 0.776786 -0.837020
C14   C     C_3   0.054095 0.248853 0.296394 -0.407488
C15   C     C_3   0.933657 0.155114 0.221117 -0.853010
C16   C     C_3   0.612908 0.986602 0.743442 -0.401816
C17   C     C_3   0.674245 0.931600 0.854537 -0.855905
C18   C     C_3   0.433800 0.001716 0.244400 -0.410533
C19   C     C_3   0.425890 0.045736 0.116447 -0.833170
C20   C     C_3   0.680194 0.620597 0.945130 -0.116704
C21   C     C_3   0.775941 0.522180 0.954938 -0.854183
C22   C     C_3   0.331579 0.358358 0.046519 -0.117538
C23   C     C_R   0.259476 0.497713 0.499748 0.791572
C24   C     C_3   0.366321 0.235463 0.925501 -0.922928
C25   C     C_R   0.740736 0.500788 0.499876 0.790723
C26   C     C_3   0.061835 0.518723 0.637185 -0.180424
C27   C     C_3   0.939003 0.476962 0.361600 -0.183953
C28   C     C_3   0.960086 0.402869 0.540624 -0.206748
C29   C     C_3   0.040623 0.592911 0.458173 -0.203904
C30   C     C_3   0.877602 0.499920 0.499213 -0.061557
Cu1   Cu    Cu3+1 0.522260 0.521810 0.644920 0.915316
Cu2   Cu    Cu3+1 0.477740 0.478190 0.355080 0.915229
H1    H     H_    0.924476 0.325018 0.573582 0.134242
H2    H     H_    0.119496 0.857238 0.691554 0.248783
H3    H     H_    0.051889 0.934728 0.856763 0.241376
H4    H     H_    0.884605 0.793192 0.644825 0.195727
H5    H     H_    0.908403 0.732790 0.792140 0.199397
H6    H     H_    0.887731 0.135417 0.304749 0.250742
H7    H     H_    0.865007 0.197911 0.159513 0.250199
H8    H     H_    0.958814 0.060666 0.141561 0.240818
H9    H     H_    0.100276 0.264035 0.210466 0.194809
H10   H     H_    0.121811 0.204962 0.357697 0.193453
H11   H     H_    0.600696 0.897756 0.903395 0.268335
H12   H     H_    0.076180 0.670768 0.425185 0.135227
H13   H     H_    0.730782 0.850280 0.800551 0.246875
H14   H     H_    0.739385 0.009819 0.946203 0.237346
H15   H     H_    0.690765 0.032937 0.711456 0.210057
H16   H     H_    0.555668 0.064625 0.803689 0.213232
H17   H     H_    0.347603 0.110524 0.120272 0.270413
H18   H     H_    0.519216 0.095081 0.120378 0.270119
H19   H     H_    0.402798 0.958680 0.009814 0.236417
H20   H     H_    0.505802 0.928574 0.228819 0.212297
H21   H     H_    0.339095 0.950650 0.232782 0.204363
H22   H     H_    0.746330 0.466615 0.018702 0.232875
H23   H     H_    0.114026 0.536267 0.749931 0.138645
H24   H     H_    0.784241 0.451307 0.842343 0.269130
H25   H     H_    0.871196 0.575463 0.011601 0.214023
H26   H     H_    0.717104 0.677116 0.886461 0.194634
H27   H     H_    0.673397 0.694820 0.056580 0.117499
H28   H     H_    0.457389 0.206190 0.968339 0.265412
H29   H     H_    0.290105 0.154125 0.892733 0.236776
H30   H     H_    0.376892 0.251505 0.824290 0.239423
H31   H     H_    0.283001 0.325114 0.118768 0.198209
H32   H     H_    0.261793 0.410989 0.999171 0.130523
H33   H     H_    0.886988 0.459141 0.248786 0.144823
H34   H     H_    0.407621 0.863516 0.401533 0.161108
H35   H     H_    0.508861 0.145027 0.629691 0.173747
H36   H     H_    0.388415 0.458838 0.856309 0.139939
H37   H     H_    0.585386 0.582524 0.161133 0.139020
H38   H     H_    0.143202 0.795832 0.837719 0.251258
N1    N     N_2   0.444270 0.445410 0.137360 -0.148415
N2    N     N_2   0.555730 0.554590 0.862640 -0.149650
O1    O     O_R   0.511880 0.332340 0.577400 -0.593382
O2    O     O_R   0.488120 0.667660 0.422600 -0.603633
O3    O     O_R   0.474280 0.295500 0.332650 -0.562836
O4    O     O_R   0.525720 0.704500 0.667350 -0.570437
O5    O     O_R   0.335640 0.518390 0.622350 -0.590138
O6    O     O_R   0.664360 0.481610 0.377650 -0.582898
O7    O     O_R   0.298050 0.481550 0.377590 -0.600592
O8    O     O_R   0.701950 0.518450 0.622410 -0.588289

loop_
_geom_bond_atom_site_label_1
_geom_bond_atom_site_label_2
_ccdc_geom_bond_type
C8    H34   S    
C24   H29   S    
C12   O2    A    
C27   C29   S    
C25   O8    A    
C26   H23   S    
C16   H16   S    
Cu2   O3    S    
C18   H20   S    
Cu1   O8    S    
C2    C29   S    
C1    C5    S    
C11   H4    S    
C9    H37   S    
C13   H3    S    
Cu2   O2    S    
C21   H22   S    
Cu1   O1    S    
C13   H38   S    
C7    H35   S    
C11   H5    S    
C18   C19   S    
C3    C29   S    
C18   H21   S    
C22   H31   S    
C16   C17   S    
C6    C16   S    
C9    C10   S    
C14   H10   S    
C27   C30   S    
C16   H15   S    
C4    C28   S    
Cu1   O5    S    
Cu2   N1    S    
C25   O6    A    
C1    O3    A    
C7    C8    S    
C17   H14   S    
C5    C7    D    
C6    C8    D    
C5    C18   S    
Cu2   O6    S    
C3    C30   S    
C2    C4    S    
C17   H11   S    
C15   H6    S    
C21   H25   S    
C27   H33   S    
C19   H17   S    
Cu1   Cu2   S    
C24   H28   S    
C2    C26   S    
C23   O5    A    
C20   H27   S    
C15   H7    S    
C14   H9    S    
Cu1   N2    S    
C28   H1    S    
C12   O4    A    
C29   H12   S    
C22   C24   S    
C20   H26   S    
C22   N1    S    
C4    C27   S    
C25   C30   S    
C24   H30   S    
C3    C26   S    
C9    N1    D    
C17   H13   S    
C21   H24   S    
C10   H36   S    
C26   C28   S    
C1    O1    A    
C28   C30   S    
C13   H2    S    
Cu2   O7    S    
C6    C12   S    
C11   C13   S    
C19   H18   S    
Cu1   O4    S    
C4    C14   S    
C15   H8    S    
C3    C11   S    
C22   H32   S    
C19   H19   S    
C20   C21   S    
C2    C23   S    
C14   C15   S    
C20   N2    S    
C23   O7    A    
C10   N2    D    
