data_mof_unit_54691.cif
_audit_creation_date              2012-12-10T18:43:05-0500
_audit_creation_method            fapswitch 2.2
_symmetry_space_group_name_H-M    P1
_symmetry_Int_Tables_number       1
_space_group_crystal_system       triclinic
_cell_length_a                    8.72304
_cell_length_b                    19.466251
_cell_length_c                    18.165722
_cell_angle_alpha                 89.507852
_cell_angle_beta                  97.939679
_cell_angle_gamma                 90.07487
_cell_volume                      3054.94651081

loop_
_atom_site_label
_atom_site_type_symbol
_atom_type_description
_atom_site_fract_x
_atom_site_fract_y
_atom_site_fract_z
_atom_type_partial_charge
C1    C     C_R   0.499507 0.367703 0.500338 0.834325
C2    C     C_R   0.499687 0.632334 0.499599 0.830173
C3    C     C_R   0.522221 0.963574 0.568242 -0.175571
C4    C     C_R   0.529729 0.036580 0.435610 -0.174213
C5    C     C_R   0.523622 0.035089 0.568522 -0.180124
C6    C     C_R   0.531306 0.965064 0.435566 -0.180175
C7    C     C_R   0.525101 0.072377 0.502041 0.130426
C8    C     C_R   0.525283 0.927779 0.501688 0.130300
C9    C     C_R   0.396928 0.459921 0.714254 0.042150
C10   C     C_R   0.602085 0.459461 0.286260 0.054470
C11   C     C_R   0.394388 0.458980 0.791376 -0.224532
C12   C     C_R   0.604502 0.458782 0.209137 -0.208317
C13   C     C_R   0.496830 0.500751 0.838156 0.172635
C14   C     C_R   0.502272 0.500788 0.161784 0.171192
C15   C     C_R   0.601831 0.541699 0.804865 -0.300451
C16   C     C_R   0.397227 0.541563 0.194475 -0.314621
C17   C     C_R   0.601596 0.540519 0.727554 0.088808
C18   C     C_R   0.397657 0.540167 0.271814 0.081023
C19   C     C_R   0.637327 0.501498 0.969181 -0.343632
C20   C     C_R   0.361603 0.501424 0.030767 -0.342413
C21   C     C_R   0.641790 0.503129 0.047074 0.511585
C22   C     C_R   0.357108 0.502961 0.952816 0.512199
C23   C     C_R   0.203568 0.499960 0.481017 0.905663
C24   C     C_R   0.796434 0.499950 0.518984 0.874752
C25   C     C_R   0.502634 0.501418 0.078937 -0.061032
C26   C     C_R   0.496302 0.501302 0.920996 -0.061057
C27   C     C_2   0.037814 0.499908 0.470493 -0.357631
C28   C     C_2   0.962191 0.499861 0.529511 -0.357215
C29   C     C_R   0.432564 0.745803 0.437462 0.498224
C30   C     C_R   0.426003 0.254344 0.551241 0.495824
C31   C     C_R   0.435857 0.817747 0.440238 -0.254301
C32   C     C_R   0.429460 0.182389 0.548914 -0.254063
C33   C     C_R   0.519106 0.851880 0.500820 0.041939
C34   C     C_R   0.518772 0.148277 0.501932 0.039268
C35   C     C_R   0.594164 0.813138 0.560649 -0.168604
C36   C     C_R   0.599790 0.187045 0.454424 -0.163758
C37   C     C_R   0.584555 0.741779 0.560265 -0.265761
C38   C     C_R   0.590158 0.258402 0.453329 -0.259389
C39   C     C_R   0.504166 0.707641 0.499061 -0.119238
C40   C     C_R   0.503810 0.292465 0.501453 -0.119660
Cu1   Cu    Cu3+1 0.499960 0.500000 0.573360 0.954314
Cu2   Cu    Cu3+1 0.500040 0.500000 0.426640 0.956315
H1    H     H_    0.977799 0.499946 0.413893 0.173159
H2    H     H_    0.022209 0.499786 0.586112 0.174853
H3    H     H_    0.682511 0.575069 0.838235 0.125229
H4    H     H_    0.316156 0.574843 0.160611 0.126129
H5    H     H_    0.682269 0.572485 0.702594 0.115260
H6    H     H_    0.316087 0.571454 0.296323 0.148236
H7    H     H_    0.745692 0.499936 0.946430 0.182768
H8    H     H_    0.253300 0.499718 0.053593 0.183550
H9    H     H_    0.370679 0.846861 0.395444 0.140002
H10   H     H_    0.359707 0.153235 0.582948 0.141146
H11   H     H_    0.661228 0.837865 0.607668 0.136898
H12   H     H_    0.671502 0.162344 0.418337 0.140324
H13   H     H_    0.642901 0.713069 0.607312 0.159330
H14   H     H_    0.653109 0.287192 0.415879 0.161630
H15   H     H_    0.515826 0.936458 0.620002 0.125994
H16   H     H_    0.529229 0.063693 0.383303 0.127537
H17   H     H_    0.523080 0.061142 0.620902 0.124510
H18   H     H_    0.536782 0.939008 0.383579 0.124419
H19   H     H_    0.316310 0.428388 0.678725 0.149358
H20   H     H_    0.681504 0.427084 0.322084 0.120513
H21   H     H_    0.313983 0.425122 0.814101 0.169801
H22   H     H_    0.684385 0.424818 0.186816 0.170195
N1    N     N_R   0.499980 0.500020 0.683620 -0.171920
N2    N     N_R   0.500020 0.499980 0.316380 -0.172812
O1    O     O_R   0.499930 0.400180 0.561970 -0.555852
O2    O     O_R   0.500070 0.599820 0.438030 -0.554452
O3    O     O_R   0.500010 0.400190 0.438070 -0.596503
O4    O     O_R   0.499990 0.599810 0.561930 -0.598383
O5    O     O_R   0.274810 0.500000 0.547650 -0.580500
O6    O     O_R   0.725190 0.500000 0.452350 -0.588372
O7    O     O_R   0.274880 0.500000 0.423750 -0.589301
O8    O     O_R   0.725120 0.500000 0.576250 -0.597550
O9    O     O_3   0.783337 0.503446 0.091940 -0.579482
C41   C     C_3   0.843515 0.570741 0.093606 -0.338656
H23   H     H_    0.763362 0.607825 0.114919 0.159490
H24   H     H_    0.869595 0.587325 0.037888 0.150746
H25   H     H_    0.953924 0.571467 0.132110 0.187778
O10   O     O_3   0.215616 0.503058 0.907878 -0.579193
C42   C     C_3   0.153287 0.569926 0.906099 -0.339406
H26   H     H_    0.232804 0.608062 0.885327 0.160061
H27   H     H_    0.125416 0.585166 0.961634 0.151628
H28   H     H_    0.043542 0.570594 0.867101 0.185861
O11   O     O_3   0.345914 0.712846 0.378456 -0.579939
C43   C     C_3   0.416810 0.722736 0.313855 -0.327937
H29   H     H_    0.350336 0.693827 0.267698 0.174358
H30   H     H_    0.537474 0.702621 0.321778 0.171719
H31   H     H_    0.415107 0.777581 0.296243 0.148409
O12   O     O_3   0.333433 0.287424 0.595988 -0.579814
C44   C     C_3   0.394824 0.276779 0.671267 -0.318258
H32   H     H_    0.323811 0.305865 0.706436 0.177356
H33   H     H_    0.515808 0.296175 0.683073 0.169856
H34   H     H_    0.389219 0.221885 0.687996 0.150402

loop_
_geom_bond_atom_site_label_1
_geom_bond_atom_site_label_2
_ccdc_geom_bond_type
C38   C40   A    
C35   H11   S    
Cu1   Cu2   S    
C41   H25   S    
C30   O12   S    
C42   H26   S    
Cu1   O1    S    
O11   C43   S    
C9    H19   S    
C31   H9    S    
C35   C37   A    
C41   H24   S    
C2    O2    A    
C12   H22   S    
C43   H30   S    
C20   C25   A    
C19   C26   A    
C32   H10   S    
C20   H8    S    
C1    C40   S    
C33   C35   A    
Cu1   O8    S    
C2    C39   S    
C31   C33   A    
C23   C27   S    
C24   C28   S    
C29   O11   S    
Cu1   O5    S    
Cu2   O2    S    
C10   H20   S    
C23   O7    A    
C4    C7    A    
C42   H27   S    
C10   N2    A    
C5    H17   S    
C6    H18   S    
C41   H23   S    
C4    C6    A    
C3    C8    A    
C16   H4    S    
C44   H32   S    
C5    C7    A    
C43   H29   S    
C6    C8    A    
C28   H2    S    
Cu2   O3    S    
C1    O3    A    
C32   C34   A    
O9    C41   S    
C23   O5    A    
C44   H33   S    
C19   H7    S    
C29   C39   A    
Cu2   O6    S    
C30   C40   A    
C9    C11   A    
C10   C12   A    
C3    H15   S    
C16   C18   A    
C20   C22   A    
C13   C15   A    
C7    C34   S    
C14   C16   A    
C13   C26   S    
C15   H3    S    
C42   H28   S    
C24   O6    A    
C15   C17   A    
C21   C25   A    
Cu2   O7    S    
C19   C21   A    
C17   H5    S    
C12   C14   A    
O10   C42   S    
C3    C5    A    
C43   H31   S    
C18   H6    S    
Cu1   N1    S    
C18   N2    A    
C21   O9    S    
C17   N1    A    
C36   C38   A    
C22   O10   S    
C37   C39   A    
C44   H34   S    
C30   C32   A    
C11   C13   A    
C24   O8    A    
O12   C44   S    
C1    O1    A    
C34   C36   A    
C8    C33   S    
C14   C25   S    
C9    N1    A    
C36   H12   S    
C37   H13   S    
C27   H1    S    
C38   H14   S    
C29   C31   A    
C22   C26   A    
C4    H16   S    
C27   C28   D    
Cu2   N2    S    
C2    O4    A    
C11   H21   S    
Cu1   O4    S    
