data_mof_unit_50194.cif
_audit_creation_date              2012-12-10T17:39:17-0500
_audit_creation_method            fapswitch 2.2
_symmetry_space_group_name_H-M    P1
_symmetry_Int_Tables_number       1
_space_group_crystal_system       triclinic
_cell_length_a                    12.394979
_cell_length_b                    13.157575
_cell_length_c                    27.706824
_cell_angle_alpha                 77.006011
_cell_angle_beta                  101.34193
_cell_angle_gamma                 117.110522
_cell_volume                      3896.00322677

loop_
_atom_site_label
_atom_site_type_symbol
_atom_type_description
_atom_site_fract_x
_atom_site_fract_y
_atom_site_fract_z
_atom_type_partial_charge
C1    C     C_R   0.854868 0.286387 0.504798 0.782858
C2    C     C_R   0.872037 0.389188 0.717634 0.449392
C3    C     C_R   0.973618 0.457861 0.747701 0.211063
C4    C     C_R   0.967420 0.443125 0.901046 -0.116458
C5    C     C_R   0.885763 0.474869 0.865317 0.000335
C6    C     C_R   0.804266 0.504409 0.880747 -0.180741
C7    C     C_R   0.050504 0.414274 0.885417 -0.135334
C8    C     C_R   0.988555 0.482268 0.645662 -0.164031
C9    C     C_R   0.995104 0.489316 0.355813 -0.170856
C10   C     C_R   0.869584 0.449164 0.019771 -0.080427
C11   C     C_R   0.067814 0.439396 0.037369 0.098059
C12   C     C_R   0.997631 0.496403 0.592379 0.854234
C13   C     C_R   0.970971 0.447570 0.053744 0.016533
C14   C     C_R   0.765400 0.436696 0.039432 0.463059
C15   C     C_R   0.770965 0.440815 0.089835 -0.209324
C16   C     C_R   0.876030 0.451949 0.122374 -0.108871
C17   C     C_R   0.975964 0.454572 0.104502 -0.054960
C18   C     C_R   0.081484 0.465197 0.137376 -0.013670
C19   C     C_R   0.086723 0.477526 0.186890 0.599979
C20   C     C_R   0.882278 0.457238 0.172986 0.583780
C21   C     C_R   0.009064 0.391673 0.293538 0.424550
C22   C     C_R   0.006965 0.396441 0.343842 0.367480
C23   C     C_R   0.145200 0.713754 0.494320 0.749556
C24   C     C_R   0.978835 0.573018 0.317970 -0.308670
C25   C     C_R   0.977401 0.566727 0.268385 -0.174178
C26   C     C_R   0.991439 0.476313 0.255807 0.215223
C27   C     C_R   0.876447 0.461687 0.967952 0.064408
C28   C     C_R   0.967037 0.442267 0.952315 0.069945
C29   C     C_R   0.058389 0.424011 0.987468 -0.025224
C30   C     C_R   0.799814 0.498234 0.931080 -0.163434
C31   C     C_R   0.135771 0.387684 0.921313 0.523224
C32   C     C_R   0.172416 0.449817 0.071210 -0.203062
C33   C     C_R   0.179630 0.464177 0.120118 -0.149431
C34   C     C_R   0.998948 0.497985 0.407923 0.831772
C35   C     C_R   0.137968 0.391743 0.971530 -0.301090
C36   C     C_R   0.283117 0.010028 0.423411 -0.156241
C37   C     C_R   0.227839 0.836786 0.484984 -0.102141
C38   C     C_R   0.809877 0.084243 0.542148 -0.203006
C39   C     C_R   0.727380 0.969788 0.553968 -0.173525
C40   C     C_R   0.605229 0.933928 0.535263 -0.112703
C41   C     C_R   0.563923 0.011527 0.502754 0.103069
C42   C     C_R   0.650915 0.123178 0.485477 0.004482
C43   C     C_R   0.439004 0.978543 0.485195 -0.074042
C44   C     C_R   0.405288 0.047997 0.443763 -0.000946
C45   C     C_R   0.890402 0.480553 0.814619 0.598916
C46   C     C_R   0.493757 0.155127 0.424014 0.479765
C47   C     C_R   0.615182 0.191349 0.444666 -0.299845
C48   C     C_R   0.347242 0.882087 0.510332 0.422550
C49   C     C_R   0.196524 0.903002 0.442472 -0.280636
C50   C     C_R   0.772107 0.162654 0.509096 -0.091805
C51   C     C_R   0.352578 0.338118 0.583134 -0.388457
C52   C     C_R   0.769006 0.655903 0.436924 0.089016
C53   C     C_R   0.690253 0.706908 0.431303 -0.269600
C54   C     C_R   0.591601 0.655473 0.459209 -0.142435
C55   C     C_R   0.561788 0.546564 0.488921 0.042838
C56   C     C_R   0.046294 0.414436 0.834097 0.578976
C57   C     C_R   0.653911 0.506217 0.498416 0.227682
C58   C     C_R   0.453088 0.484275 0.514382 -0.124468
C59   C     C_R   0.451502 0.396530 0.554977 0.021712
C60   C     C_R   0.547105 0.364060 0.566332 -0.193187
C61   C     C_R   0.644159 0.415467 0.537781 -0.146190
C62   C     C_R   0.342154 0.497453 0.499051 0.534232
C63   C     C_R   0.252002 0.364041 0.570887 0.627261
C64   C     C_R   0.081075 0.536691 0.726787 -0.187809
C65   C     C_R   0.088783 0.548084 0.676372 -0.321480
C66   C     C_R   0.881485 0.398724 0.666524 0.342168
Cu1   Cu    Cu3+1 0.098270 0.475420 0.511360 1.000034
Cu2   Cu    Cu3+1 0.901730 0.524580 0.488640 0.933051
H1    H     H_    0.252386 0.452078 0.060188 0.143535
H2    H     H_    0.968754 0.644098 0.326891 0.175545
H3    H     H_    0.965342 0.632509 0.239459 0.179571
H4    H     H_    0.255087 0.060180 0.391233 0.186020
H5    H     H_    0.544736 0.844062 0.545049 0.135307
H6    H     H_    0.681415 0.271529 0.426814 0.179759
H7    H     H_    0.743541 0.533027 0.853899 0.183426
H8    H     H_    0.551127 0.709396 0.462229 0.130547
H9    H     H_    0.712458 0.384792 0.549144 0.244301
H10   H     H_    0.739984 0.528755 0.940053 0.201326
H11   H     H_    0.173168 0.608909 0.661536 0.161172
N1    N     N_R   0.968391 0.448818 0.800005 -0.439028
N2    N     N_R   0.986812 0.470274 0.204151 -0.432267
N3    N     N_R   0.246290 0.438210 0.528570 -0.248712
N4    N     N_R   0.754320 0.561170 0.471730 -0.214063
O1    O     O_R   0.972510 0.318140 0.514280 -0.527336
O2    O     O_2   0.784400 0.448743 0.190968 -0.537037
O3    O     O_2   0.119546 0.381173 0.818103 -0.491274
O4    O     O_2   0.191247 0.497750 0.217397 -0.558661
O5    O     O_R   0.806530 0.359640 0.495100 -0.610955
O6    O     O_R   0.082990 0.479270 0.579320 -0.564168
O7    O     O_R   0.917010 0.520770 0.560140 -0.570351
O8    O     O_R   0.193470 0.640360 0.504900 -0.621689
O9    O     O_R   0.027490 0.681860 0.485720 -0.578122
O10   O     O_R   0.082990 0.479230 0.439860 -0.493476
O11   O     O_R   0.917010 0.520730 0.420680 -0.603306
O12   O     O_2   0.818944 0.519459 0.780110 -0.563191
O13   O     O_3   0.786272 0.326633 0.637079 -0.617739
C67   C     C_3   0.801543 0.225729 0.639542 -0.336436
H12   H     H_    0.886074 0.245699 0.623709 0.173346
H13   H     H_    0.723348 0.166897 0.616809 0.203600
H14   H     H_    0.802072 0.179053 0.678383 0.196901
H15   H     H_    0.159117 0.589666 0.749865 0.173291
O14   O     O_3   0.213390 0.351724 0.908044 -0.533467
C68   C     C_3   0.332552 0.441857 0.909796 -0.240996
H16   H     H_    0.370931 0.457036 0.948701 0.149573
H17   H     H_    0.335316 0.523258 0.885988 0.153108
H18   H     H_    0.392072 0.416255 0.895075 0.196334
H19   H     H_    0.262298 0.473287 0.144531 0.187584
H20   H     H_    0.200763 0.365365 0.997769 0.159782
H21   H     H_    0.105472 0.870260 0.422902 0.162799
O15   O     O_3   0.462010 0.222837 0.383222 -0.588992
C69   C     C_3   0.465094 0.318834 0.399171 -0.276180
H22   H     H_    0.560299 0.380315 0.409923 0.175671
H23   H     H_    0.408698 0.291954 0.430500 0.169177
H24   H     H_    0.426357 0.365461 0.367698 0.195191
O16   O     O_3   0.770149 0.306125 0.740286 -0.575672
C70   C     C_3   0.663578 0.318564 0.717137 -0.170720
H25   H     H_    0.614574 0.257889 0.689762 0.179143
H26   H     H_    0.680834 0.408526 0.698910 0.164403
H27   H     H_    0.602008 0.294279 0.746073 0.173258
O17   O     O_3   0.367796 0.870021 0.562258 -0.577777
C71   C     C_3   0.329067 0.754939 0.586040 -0.297245
H28   H     H_    0.360085 0.704881 0.569318 0.154256
H29   H     H_    0.229229 0.713915 0.587179 0.166977
H30   H     H_    0.371157 0.755449 0.625253 0.178201
H31   H     H_    0.902577 0.112151 0.560008 0.187920
H32   H     H_    0.757424 0.909319 0.578955 0.153432
O18   O     O_3   0.151275 0.304963 0.597361 -0.559588
C72   C     C_3   0.185775 0.316651 0.648265 -0.305320
H33   H     H_    0.249931 0.407135 0.653698 0.157193
H34   H     H_    0.225338 0.255886 0.667915 0.158173
H35   H     H_    0.102907 0.293582 0.665841 0.191945
H36   H     H_    0.545439 0.295757 0.596957 0.175417
H37   H     H_    0.352725 0.270978 0.614022 0.161826
O19   O     O_3   0.316408 0.533513 0.448628 -0.547616
C73   C     C_3   0.335793 0.650675 0.437527 -0.200933
H38   H     H_    0.377598 0.699348 0.469583 0.103805
H39   H     H_    0.250364 0.658285 0.421625 0.177981
H40   H     H_    0.394365 0.694633 0.406690 0.146954
H41   H     H_    0.848883 0.698296 0.416987 0.125759
H42   H     H_    0.710163 0.789962 0.407972 0.146460
O20   O     O_3   0.017184 0.311038 0.381414 -0.564381
C74   C     C_3   0.900156 0.219422 0.386499 -0.287061
H43   H     H_    0.863412 0.176503 0.352731 0.187624
H44   H     H_    0.835718 0.249310 0.394465 0.135382
H45   H     H_    0.907165 0.153956 0.418515 0.189274
O21   O     O_3   0.015787 0.299710 0.279747 -0.586839
C75   C     C_3   0.123740 0.289476 0.302558 -0.154303
H46   H     H_    0.104920 0.224211 0.336828 0.183112
H47   H     H_    0.200632 0.372812 0.311256 0.171130
H48   H     H_    0.154403 0.257509 0.276548 0.178017
H49   H     H_    0.691112 0.433669 0.103365 0.204039
O22   O     O_3   0.654889 0.415704 0.010778 -0.605356
C76   C     C_3   0.590467 0.295900 0.009690 -0.316871
H50   H     H_    0.571169 0.246573 0.047736 0.172358
H51   H     H_    0.640423 0.264138 0.992166 0.173761
H52   H     H_    0.501636 0.279060 0.986763 0.199544

loop_
_geom_bond_atom_site_label_1
_geom_bond_atom_site_label_2
_ccdc_geom_bond_type
C10   C27   A    
C58   C62   A    
C73   H40   S    
C59   C60   A    
C21   C26   A    
C8    C66   A    
C65   H11   S    
C53   H42   S    
C51   H37   S    
C41   C42   A    
C75   H46   S    
C33   H19   S    
C34   O10   A    
C72   H33   S    
C60   H36   S    
C15   H49   S    
C67   H12   S    
C24   H2    S    
C73   H38   S    
C48   O17   S    
C53   C54   A    
C70   H25   S    
C1    O1    A    
C66   O13   S    
C28   C29   A    
C75   H47   S    
C19   O4    S    
C5    C6    A    
C9    C22   A    
C15   C16   A    
Cu1   O6    S    
C52   H41   S    
C40   H5    S    
C18   C19   A    
O15   C69   S    
C71   H30   S    
C20   N2    A    
C35   H20   S    
C4    C28   A    
C46   C47   A    
C69   H22   S    
C61   H9    S    
C16   C17   A    
Cu2   O7    S    
C57   N4    A    
C25   H3    S    
C45   N1    A    
C43   C48   A    
C8    C12   S    
C1    O5    A    
C62   N3    A    
Cu1   O1    S    
C39   H32   S    
C21   C22   A    
O13   C67   S    
C27   C30   A    
C41   C43   A    
C74   H45   S    
C69   H24   S    
C7    C56   A    
C4    C7    A    
C3    N1    S    
C67   H13   S    
C44   C46   A    
C64   H15   S    
C7    C31   A    
C63   N3    A    
Cu1   Cu2   S    
C31   O14   S    
C12   O6    A    
C6    H7    S    
C75   H48   S    
C51   C63   A    
C24   C25   A    
C68   H17   S    
C10   C14   A    
C39   C40   A    
C58   C59   A    
C23   C37   S    
C5    C45   A    
Cu2   O11   S    
C60   C61   A    
C76   H52   S    
C52   N4    A    
C43   C44   A    
C37   C49   A    
C2    O16   S    
C56   O3    S    
C14   C15   A    
C16   C20   A    
C20   O2    S    
Cu1   O8    S    
C17   C18   A    
C69   H23   S    
C52   C53   A    
C37   C48   A    
C71   H28   S    
O19   C73   S    
C42   C50   A    
C54   H8    S    
C40   C41   A    
C6    C30   A    
C11   C32   A    
C26   N2    S    
C46   O15   S    
C9    C34   S    
Cu2   O5    S    
C23   O8    A    
C36   C44   A    
C76   H51   S    
O18   C72   S    
C45   O12   S    
C72   H35   S    
C68   H16   S    
C38   H31   S    
O17   C71   S    
C49   H21   S    
O21   C75   S    
C1    C50   S    
C12   O7    A    
C73   H39   S    
C54   C55   A    
C67   H14   S    
C74   H43   S    
Cu2   N4    S    
C34   O11   A    
C47   H6    S    
C4    C5    A    
C2    C66   A    
C10   C13   A    
C72   H34   S    
C9    C24   A    
C57   C61   A    
C32   H1    S    
C38   C50   A    
C29   C35   A    
C56   N1    A    
C70   H27   S    
C13   C17   A    
C64   C65   A    
C62   O19   S    
C55   C57   A    
C2    C3    A    
C25   C26   A    
O20   C74   S    
C32   C33   A    
C11   C13   A    
C38   C39   A    
C22   O20   S    
Cu2   O9    S    
C70   H26   S    
C68   H18   S    
C31   C35   A    
C42   C47   A    
C3    C64   A    
O14   C68   S    
C18   C33   A    
C63   O18   S    
C71   H29   S    
C30   H10   S    
C36   H4    S    
C8    C65   A    
C21   O21   S    
C51   C59   A    
O22   C76   S    
C11   C29   A    
Cu1   N3    S    
C55   C58   A    
C14   O22   S    
C27   C28   A    
Cu1   O10   S    
C23   O9    A    
C76   H50   S    
C19   N2    A    
C74   H44   S    
C36   C49   A    
O16   C70   S    
