data_mof_unit_56921.cif
_audit_creation_date              2012-12-10T20:28:01-0500
_audit_creation_method            fapswitch 2.2
_symmetry_space_group_name_H-M    P1
_symmetry_Int_Tables_number       1
_space_group_crystal_system       triclinic
_cell_length_a                    12.829022
_cell_length_b                    10.684045
_cell_length_c                    9.876852
_cell_angle_alpha                 90.111164
_cell_angle_beta                  97.118713
_cell_angle_gamma                 90.011269
_cell_volume                      1343.34085561

loop_
_atom_site_label
_atom_site_type_symbol
_atom_type_description
_atom_site_fract_x
_atom_site_fract_y
_atom_site_fract_z
_atom_type_partial_charge
C1    C     C_R   0.497331 0.260036 0.499527 0.890566
C2    C     C_R   0.027441 0.467316 0.548851 0.187581
C3    C     C_R   0.971252 0.541363 0.446435 0.191847
C4    C     C_R   0.864354 0.554525 0.443838 -0.267770
C5    C     C_R   0.868917 0.425290 0.647168 -0.204972
C6    C     C_R   0.976368 0.410184 0.649640 -0.207926
C7    C     C_R   0.480530 0.063794 0.619520 0.039422
C8    C     C_R   0.482182 0.128546 0.497431 -0.125132
C9    C     C_R   0.464112 0.064397 0.372716 -0.181330
C10   C     C_R   0.463426 0.935063 0.372683 -0.163854
C11   C     C_R   0.480517 0.871255 0.497451 -0.086831
C12   C     C_R   0.298408 0.505495 0.473044 0.957245
C13   C     C_R   0.478365 0.936209 0.619344 0.119554
C14   C     C_3   0.547394 0.926953 0.752682 -0.558515
C15   C     C_3   0.549952 0.069424 0.753482 -0.184979
C16   C     C_R   0.409252 0.519062 0.056648 0.157056
C17   C     C_R   0.591225 0.488971 0.086316 -0.143355
C18   C     C_R   0.591195 0.488814 0.942649 -0.090496
C19   C     C_R   0.409423 0.520428 0.914245 0.208051
C20   C     C_3   0.311255 0.444422 0.890939 -0.597516
C21   C     C_3   0.311320 0.441549 0.044946 -0.241619
C22   C     C_R   0.496912 0.739955 0.499604 0.908597
C23   C     C_R   0.701638 0.499291 0.526744 0.877413
C24   C     C_R   0.813564 0.495405 0.542512 -0.053512
C25   C     C_R   0.186296 0.517635 0.456213 -0.053700
C26   C     C_R   0.022487 0.602474 0.348964 -0.298554
C27   C     C_R   0.131151 0.595594 0.355543 -0.003156
C28   C     C_R   0.133953 0.452736 0.549796 -0.308676
H1    H     H_    0.820243 0.610033 0.364400 0.147721
H2    H     H_    0.623928 0.880978 0.742593 0.195293
H3    H     H_    0.509499 0.111590 0.835940 0.178444
H4    H     H_    0.664804 0.478168 0.151355 0.165562
H5    H     H_    0.664556 0.477877 0.900601 0.173503
H6    H     H_    0.323908 0.352241 0.842827 0.205262
H7    H     H_    0.828679 0.378924 0.723191 0.194087
H8    H     H_    0.978304 0.660754 0.272268 0.134770
H9    H     H_    0.019205 0.353998 0.729227 0.153375
H10   H     H_    0.456822 0.886146 0.275813 0.188997
H11   H     H_    0.504689 0.887361 0.834087 0.212651
N1    N     N_R   0.499290 0.499140 0.142710 -0.123923
N2    N     N_R   0.499290 0.499180 0.857070 -0.107948
O1    O     O_R   0.500010 0.316790 0.614690 -0.606422
O2    O     O_R   0.500000 0.316760 0.385350 -0.621004
O3    O     O_R   0.346360 0.499990 0.595720 -0.636731
O4    O     O_R   0.346350 0.499960 0.366370 -0.572513
O5    O     O_R   0.500000 0.683240 0.614650 -0.621617
O6    O     O_R   0.499990 0.683210 0.385310 -0.600371
O7    O     O_R   0.653650 0.500040 0.633630 -0.622426
O8    O     O_R   0.653640 0.500010 0.404280 -0.634892
Zn1   Zn    Zn3+2 0.500010 0.500020 0.653130 0.966740
Zn2   Zn    Zn3+2 0.499990 0.499980 0.346870 0.984568
C29   C     C_2   0.657590 0.122047 0.743640 0.459972
H12   H     H_    0.702870 0.090020 0.664372 0.050567
O9    O     O_2   0.694509 0.201431 0.824748 -0.594712
H13   H     H_    0.244799 0.499651 0.838571 0.211735
H14   H     H_    0.243833 0.492580 0.079408 0.179803
C30   C     C_2   0.328048 0.312564 0.104422 0.522509
H15   H     H_    0.392229 0.254717 0.078226 0.033801
O10   O     O_2   0.269427 0.272099 0.182320 -0.575231
C31   C     C_2   0.181812 0.677607 0.261671 0.376601
H16   H     H_    0.138714 0.703942 0.164324 0.059775
O11   O     O_2   0.268698 0.722628 0.294271 -0.575366
H17   H     H_    0.176817 0.392299 0.625433 0.155463
H18   H     H_    0.457851 0.112872 0.275930 0.176517

loop_
_geom_bond_atom_site_label_1
_geom_bond_atom_site_label_2
_ccdc_geom_bond_type
C21   H14   S    
C2    C28   A    
C23   C24   S    
C21   C30   S    
C16   C21   S    
C25   C27   A    
C1    C8    S    
C9    C10   A    
N2    Zn1   S    
C11   C22   S    
C19   C20   S    
C12   C25   S    
C10   H10   S    
C20   H6    S    
C7    C15   S    
C22   O6    A    
C26   C27   A    
C6    H9    S    
C14   H2    S    
C7    C8    A    
C12   O3    A    
C13   C14   S    
C29   H12   S    
C25   C28   A    
C15   H3    S    
C11   C13   A    
O2    Zn2   S    
C30   H15   S    
C2    C6    A    
C5    C24   A    
C16   N1    A    
C16   C19   A    
C5    H7    S    
O7    Zn1   S    
C22   O5    A    
O1    Zn1   S    
C17   C18   A    
C2    C3    A    
C27   C31   S    
C20   H13   S    
N1    Zn2   S    
C5    C6    A    
C4    C24   A    
C18   H5    S    
C30   O10   D    
C23   O8    A    
C10   C11   A    
O4    Zn2   S    
O3    Zn1   S    
C3    C4    A    
C9    H18   S    
C28   H17   S    
C1    O1    A    
C7    C13   A    
C20   C21   S    
C31   O11   D    
C18   N2    A    
C26   H8    S    
C17   H4    S    
O5    Zn1   S    
C14   C15   S    
C8    C9    A    
O6    Zn2   S    
C23   O7    A    
C31   H16   S    
C14   H11   S    
C15   C29   S    
C1    O2    A    
C3    C26   A    
C4    H1    S    
C19   N2    A    
C29   O9    D    
C12   O4    A    
O8    Zn2   S    
C17   N1    A    
