data_mof_unit_66856.cif
_audit_creation_date              2013-03-05T15:57:21-0500
_audit_creation_method            fapswitch 2.2
_symmetry_space_group_name_H-M    P1
_symmetry_Int_Tables_number       1
_space_group_crystal_system       triclinic
_cell_length_a                    17.394454
_cell_length_b                    18.813544
_cell_length_c                    8.517574
_cell_angle_alpha                 89.844442
_cell_angle_beta                  101.739094
_cell_angle_gamma                 90.708394
_cell_volume                      2728.87835038

loop_
_atom_site_label
_atom_site_type_symbol
_atom_site_description
_atom_site_fract_x
_atom_site_fract_y
_atom_site_fract_z
_atom_type_partial_charge
P1    P     P_3+3 0.834140 0.419320 0.003900 0.991850
P2    P     P_3+3 0.834140 0.580680 0.503900 1.004700
P3    P     P_3+3 0.334140 0.919320 0.003900 0.991872
P4    P     P_3+3 0.334140 0.080680 0.503900 1.004562
O1    O     O_2   0.841960 0.394640 0.833410 -0.465490
O2    O     O_2   0.841960 0.605360 0.333410 -0.465414
O3    O     O_2   0.341960 0.894640 0.833410 -0.465336
O4    O     O_2   0.341960 0.105360 0.333410 -0.465434
O5    O     O_3   0.907950 0.463080 0.102990 -0.489232
O6    O     O_3   0.907950 0.536920 0.602990 -0.492291
O7    O     O_3   0.407950 0.963080 0.102990 -0.489322
O8    O     O_3   0.407950 0.036920 0.602990 -0.492179
O9    O     O_3   0.972780 0.329600 0.629720 -0.457852
O10   O     O_3   0.972780 0.670400 0.129720 -0.464760
O11   O     O_3   0.472780 0.829600 0.629720 -0.458031
O12   O     O_3   0.472780 0.170400 0.129720 -0.464822
O13   O     O_2   0.834989 0.283022 0.685441 -0.455548
O14   O     O_2   0.849662 0.733042 0.208385 -0.498353
O15   O     O_2   0.334897 0.783116 0.685221 -0.455376
O16   O     O_2   0.349651 0.233023 0.208372 -0.498303
O17   O     O_3   0.746237 0.465404 0.996730 -0.642782
O18   O     O_3   0.745972 0.533222 0.481281 -0.601734
O19   O     O_3   0.246195 0.965357 0.996638 -0.642683
O20   O     O_3   0.245976 0.033210 0.481291 -0.602022
O21   O     O_3   0.927262 0.182577 0.651006 -0.589902
O22   O     O_3   0.945372 0.818886 0.103212 -0.591227
O23   O     O_3   0.427061 0.682563 0.651043 -0.590056
O24   O     O_3   0.445356 0.318895 0.103278 -0.591201
H1    H     H_    0.015001 0.168707 0.529021 0.031182
H2    H     H_    0.015445 0.817326 0.931972 0.010975
H3    H     H_    0.514942 0.668866 0.529486 0.031012
H4    H     H_    0.515428 0.317366 0.932038 0.011023
C1    C     C_3   0.955966 0.067764 0.562211 -0.097029
C2    C     C_3   0.972436 0.923947 0.960543 -0.084301
C3    C     C_3   0.456207 0.567784 0.562675 -0.097148
C4    C     C_3   0.472431 0.423983 0.960695 -0.084349
H5    H     H_    0.480868 0.557615 0.691652 0.098594
H6    H     H_    0.525496 0.440235 0.048884 0.135286
H7    H     H_    0.980708 0.057494 0.691123 0.098704
H8    H     H_    0.025524 0.940208 0.048664 0.135260
P5    P     P_3+3 0.165830 0.418670 0.685610 0.962602
P6    P     P_3+3 0.165830 0.581330 0.185610 0.961834
P7    P     P_3+3 0.665830 0.918670 0.685610 0.962535
P8    P     P_3+3 0.665830 0.081330 0.185610 0.962024
P9    P     P_3+3 0.101658 0.268585 0.114866 1.001976
P10   P     P_3+3 0.105864 0.728552 0.619919 0.987065
P11   P     P_3+3 0.601652 0.768582 0.114865 1.002074
P12   P     P_3+3 0.605862 0.228552 0.619926 0.987113
O25   O     O_2   0.157990 0.394030 0.856030 -0.474900
O26   O     O_2   0.157990 0.605970 0.356030 -0.455213
O27   O     O_2   0.657990 0.894030 0.856030 -0.475091
O28   O     O_2   0.657990 0.105970 0.356030 -0.455031
O29   O     O_3   0.027110 0.329490 0.059550 -0.476312
O30   O     O_3   0.027110 0.670510 0.559550 -0.490644
O31   O     O_3   0.527110 0.829490 0.059550 -0.476407
O32   O     O_3   0.527110 0.170510 0.559550 -0.490536
O33   O     O_2   0.160262 0.279151 0.003017 -0.434084
O34   O     O_2   0.170018 0.708234 0.528629 -0.420424
O35   O     O_2   0.660212 0.779104 0.002905 -0.433914
O36   O     O_2   0.670017 0.208230 0.528640 -0.420464
O37   O     O_3   0.245639 0.478109 0.720828 -0.659281
O38   O     O_3   0.245410 0.523589 0.224843 -0.637184
O39   O     O_3   0.745623 0.978130 0.720852 -0.659239
O40   O     O_3   0.745416 0.023600 0.224863 -0.636795
O41   O     O_3   0.058297 0.186622 0.055114 -0.564233
O42   O     O_3   0.074575 0.810506 0.539001 -0.590610
O43   O     O_3   0.558257 0.686608 0.055309 -0.564142
O44   O     O_3   0.574563 0.310503 0.539001 -0.590552
C5    C     C_3   0.987917 0.181228 0.111111 0.372449
C6    C     C_3   0.994370 0.815554 0.537582 0.361236
C7    C     C_3   0.487824 0.681325 0.111122 0.372489
C8    C     C_3   0.494368 0.315571 0.537688 0.360962
H9    H     H_    0.940325 0.208531 0.026159 0.065177
H10   H     H_    0.959890 0.785393 0.434686 0.117419
H11   H     H_    0.440321 0.708695 0.026098 0.065192
H12   H     H_    0.459851 0.285435 0.434790 0.117369
H13   H     H_    0.992830 0.203988 0.233271 -0.120260
H14   H     H_    0.979045 0.795789 0.650540 -0.092134
H15   H     H_    0.492723 0.704088 0.233268 -0.120230
H16   H     H_    0.479068 0.295790 0.650656 -0.092113
C9    C     C_3   0.966717 0.103403 0.118369 -0.406846
C10   C     C_3   0.972637 0.892434 0.519483 -0.403254
C11   C     C_3   0.466458 0.603534 0.118290 -0.406483
C12   C     C_3   0.472663 0.392462 0.519696 -0.403128
H17   H     H_    0.406520 0.597331 0.143280 0.104697
H18   H     H_    0.474686 0.410993 0.396757 0.135778
H19   H     H_    0.906868 0.097097 0.143756 0.105003
H20   H     H_    0.913035 0.897356 0.544442 0.075022
H21   H     H_    0.969103 0.078905 0.001372 0.155136
H22   H     H_    0.974675 0.910938 0.396533 0.135671
H23   H     H_    0.468975 0.579000 0.001399 0.155093
H24   H     H_    0.514975 0.424757 0.606513 0.109646
C13   C     C_3   0.221513 0.457689 0.277101 0.296788
C14   C     C_3   0.226721 0.537466 0.803741 0.286724
C15   C     C_3   0.721517 0.957689 0.277056 0.297015
C16   C     C_3   0.726706 0.037399 0.804040 0.287366
H25   H     H_    0.216889 0.462557 0.404046 0.031165
H26   H     H_    0.224136 0.521261 0.927174 0.055449
H27   H     H_    0.716875 0.962537 0.403995 0.031210
H28   H     H_    0.723912 0.021033 0.927265 0.055683
H29   H     H_    0.165076 0.437839 0.204241 0.046171
H30   H     H_    0.169899 0.560653 0.743515 0.036364
H31   H     H_    0.665090 0.937839 0.204156 0.046031
H32   H     H_    0.669968 0.060696 0.743675 0.036125
C17   C     C_3   0.283301 0.403203 0.263111 -0.374887
C18   C     C_3   0.290365 0.594480 0.810653 -0.377748
C19   C     C_3   0.783319 0.903219 0.263060 -0.375025
C20   C     C_3   0.790480 0.094354 0.811761 -0.378939
H33   H     H_    0.341673 0.427383 0.304012 0.142415
H34   H     H_    0.348759 0.570154 0.822527 0.158417
H35   H     H_    0.841681 0.927433 0.303864 0.142352
H36   H     H_    0.848772 0.069980 0.822371 0.158881
H37   H     H_    0.278974 0.356200 0.338997 0.063775
H38   H     H_    0.292680 0.629839 0.914881 0.050298
H39   H     H_    0.779037 0.856232 0.339023 0.063875
H40   H     H_    0.793153 0.129153 0.917001 0.050447
H41   H     H_    0.277113 0.386052 0.136730 0.125885
H42   H     H_    0.278272 0.627440 0.700613 0.138303
H43   H     H_    0.777107 0.886039 0.136695 0.125785
H44   H     H_    0.778236 0.127894 0.702659 0.137739
Ba1   Ba    Ba6+2 0.000000 0.447380 0.844850 1.685107
Ba2   Ba    Ba6+2 1.000000 0.552620 0.344850 1.670707
Ba3   Ba    Ba6+2 0.500000 0.947380 0.844850 1.685052
Ba4   Ba    Ba6+2 0.500000 0.052620 0.344850 1.670688
C21   C     C_3   0.736289 0.523485 0.895758 0.264168
C22   C     C_3   0.744782 0.472617 0.391852 0.247515
C23   C     C_3   0.236391 0.023597 0.896173 0.263545
C24   C     C_3   0.244782 0.972628 0.391775 0.247644
H45   H     H_    0.748972 0.509360 0.777243 0.060170
H46   H     H_    0.764110 0.484338 0.278996 0.037742
H47   H     H_    0.249000 0.009588 0.777540 0.060286
H48   H     H_    0.264115 0.984376 0.278934 0.037665
H49   H     H_    0.771610 0.567915 0.957175 -0.040781
H50   H     H_    0.780254 0.433418 0.470387 0.008712
H51   H     H_    0.271876 0.067860 0.957868 -0.040588
H52   H     H_    0.280254 0.933415 0.470261 0.008860
C25   C     C_3   0.651537 0.546681 0.876188 -0.171246
C26   C     C_3   0.660516 0.445585 0.350411 -0.186997
C27   C     C_3   0.151717 0.046989 0.876935 -0.171228
C28   C     C_3   0.160517 0.945590 0.350292 -0.187268
H53   H     H_    0.611095 0.501026 0.837395 0.043657
H54   H     H_    0.626612 0.477448 0.250658 0.048827
H55   H     H_    0.111132 0.001372 0.839136 0.044307
H56   H     H_    0.126625 0.977444 0.250509 0.048753
H57   H     H_    0.640618 0.566608 0.992457 0.083335
H58   H     H_    0.632513 0.450697 0.456068 0.116755
H59   H     H_    0.141111 0.067285 0.993056 0.083197
H60   H     H_    0.132494 0.950706 0.455916 0.117278
O45   O     O_3   0.092100 0.536880 0.086720 -0.498865
O46   O     O_3   0.092100 0.463120 0.586720 -0.484933
O47   O     O_3   0.592100 0.036880 0.086720 -0.499018
O48   O     O_3   0.592100 0.963120 0.586720 -0.484868
P13   P     P_3+3 0.898826 0.735254 0.076147 0.951096
P14   P     P_3+3 0.895026 0.266302 0.580788 1.005360
P15   P     P_3+3 0.398827 0.235256 0.076156 0.951094
P16   P     P_3+3 0.394989 0.766322 0.580755 1.005216
C29   C     C_3   0.955934 0.147527 0.530230 0.343920
C30   C     C_3   0.962245 0.843179 0.956414 0.388068
C31   C     C_3   0.455930 0.647546 0.530513 0.343947
C32   C     C_3   0.462230 0.343214 0.956500 0.388071
H61   H     H_    0.920638 0.154972 0.408612 -0.079777
H62   H     H_    0.915337 0.832666 0.851536 -0.104525
H63   H     H_    0.420687 0.654896 0.408827 -0.079921
H64   H     H_    0.415320 0.332715 0.851615 -0.104567
H65   H     H_    0.494057 0.542106 0.489890 0.111017
H66   H     H_    0.480251 0.443150 0.842263 0.046606
H67   H     H_    0.993624 0.041995 0.489141 0.110806
H68   H     H_    0.980211 0.943103 0.842069 0.046546
H69   H     H_    0.509189 0.576542 0.213748 0.103003
H70   H     H_    0.413072 0.397414 0.544716 0.075545
H71   H     H_    0.009605 0.076454 0.213613 0.102809
H72   H     H_    0.014915 0.924762 0.606293 0.109821
C33   C     C_R   0.140101 0.675286 0.930091 -0.293339
C34   C     C_R   0.140528 0.323970 0.426541 -0.281006
C35   C     C_R   0.640104 0.175287 0.930098 -0.293314
C36   C     C_R   0.640564 0.823991 0.426506 -0.281234
C37   C     C_R   0.854545 0.329996 0.276191 -0.106929
C38   C     C_R   0.846704 0.666295 0.779048 -0.121910
C39   C     C_R   0.354561 0.829989 0.276153 -0.106958
C40   C     C_R   0.346718 0.166302 0.779032 -0.121945
C41   C     C_R   0.790581 0.215502 0.300433 -0.065920
C42   C     C_R   0.782420 0.778800 0.806143 -0.066369
C43   C     C_R   0.290597 0.715496 0.300399 -0.065991
C44   C     C_R   0.282421 0.278799 0.806152 -0.066316
C45   C     C_R   0.843263 0.269973 0.366902 0.024918
C46   C     C_R   0.834384 0.724471 0.872485 -0.006991
C47   C     C_R   0.343280 0.769966 0.366856 0.025080
C48   C     C_R   0.334394 0.224474 0.872483 -0.007070
C49   C     C_R   0.816178 0.334721 0.113042 0.087083
C50   C     C_R   0.812647 0.664093 0.613052 0.102542
C51   C     C_R   0.316190 0.834714 0.113011 0.087048
C52   C     C_R   0.312631 0.164088 0.613059 0.102196
C53   C     C_R   0.756219 0.281424 0.048609 -0.028851
C54   C     C_R   0.754381 0.717893 0.546359 -0.036155
C55   C     C_R   0.256230 0.781417 0.048578 -0.028907
C56   C     C_R   0.254337 0.217868 0.546404 -0.036042
C57   C     C_R   0.245299 0.719829 0.143904 -0.091540
C58   C     C_R   0.240795 0.277229 0.645565 -0.053534
C59   C     C_R   0.745283 0.219839 0.143937 -0.091473
C60   C     C_R   0.740818 0.777242 0.645539 -0.053942
C61   C     C_R   0.185575 0.666735 0.082935 0.040005
C62   C     C_R   0.184298 0.332068 0.582031 0.064993
C63   C     C_R   0.685565 0.166742 0.082954 0.040031
C64   C     C_R   0.684322 0.832080 0.582007 0.064901
C65   C     C_R   0.151656 0.732333 0.834853 -0.036432
C66   C     C_R   0.153424 0.268434 0.328269 -0.050960
C67   C     C_R   0.651659 0.232333 0.834863 -0.036475
C68   C     C_R   0.653475 0.768466 0.328218 -0.051120
C69   C     C_R   0.203691 0.788084 0.896462 0.144485
C70   C     C_R   0.206841 0.214256 0.387407 0.094943
C71   C     C_R   0.703690 0.288086 0.896480 0.144435
C72   C     C_R   0.706906 0.714295 0.387330 0.095028
H73   H     H_    0.283031 0.671165 0.375796 0.096768
H74   H     H_    0.277173 0.323626 0.881392 0.086873
H75   H     H_    0.783036 0.171153 0.375802 0.097073
H76   H     H_    0.777164 0.823622 0.881389 0.086862
H77   H     H_    0.097080 0.635020 0.880586 0.069443
H78   H     H_    0.097956 0.363801 0.377359 0.061397
H79   H     H_    0.597085 0.135020 0.880590 0.069433
H80   H     H_    0.597979 0.863812 0.377338 0.061479
C73   C     C_2   0.636134 0.602922 0.751651 0.766692
O49   O     O_2   0.627830 0.664696 0.787686 -0.563978
O50   O     O_R   0.631990 0.583483 0.592998 -0.778110
H81   H     H_    0.625028 0.625382 0.518338 0.291345
C74   C     C_2   0.659644 0.369153 0.307092 0.837330
O51   O     O_2   0.697372 0.327602 0.400926 -0.602409
O52   O     O_R   0.615606 0.344897 0.162931 -0.776196
H82   H     H_    0.611520 0.291175 0.159305 0.312452
C75   C     C_2   0.136146 0.102899 0.751694 0.767173
O53   O     O_2   0.127960 0.164778 0.786997 -0.564283
O54   O     O_R   0.131763 0.083023 0.593249 -0.778430
H83   H     H_    0.124988 0.124736 0.518093 0.291638
C76   C     C_2   0.159649 0.869153 0.307011 0.837335
O55   O     O_2   0.197370 0.827609 0.400871 -0.602314
O56   O     O_R   0.115614 0.844883 0.162863 -0.776181
H84   H     H_    0.111526 0.791162 0.159266 0.312457
N1    N     N_3   0.694857 0.354139 0.812284 -0.444541
H85   H     H_    0.637296 0.371570 0.803297 0.165924
H86   H     H_    0.706459 0.347680 0.697970 0.243782
N2    N     N_3   0.705883 0.652584 0.289251 -0.438454
H87   H     H_    0.650711 0.627994 0.270814 0.170945
H88   H     H_    0.718340 0.666722 0.178328 0.214511
N3    N     N_3   0.194847 0.854141 0.812280 -0.444317
H89   H     H_    0.137292 0.871581 0.803344 0.166041
H90   H     H_    0.206431 0.847693 0.697949 0.243879
N4    N     N_3   0.205854 0.152562 0.289306 -0.438729
H91   H     H_    0.150673 0.127986 0.270763 0.170448
H92   H     H_    0.218353 0.166730 0.178437 0.214437
N5    N     N_3   0.902319 0.388193 0.354569 -0.441268
H93   H     H_    0.874657 0.435371 0.322184 0.144248
H94   H     H_    0.891849 0.394811 0.468392 0.181952
N6    N     N_3   0.894492 0.608487 0.854823 -0.446821
H95   H     H_    0.865831 0.561021 0.820055 0.145892
H96   H     H_    0.888149 0.602765 0.972262 0.190727
N7    N     N_3   0.402328 0.888191 0.354536 -0.441244
H97   H     H_    0.374651 0.935363 0.322165 0.144183
H98   H     H_    0.391864 0.894809 0.468362 0.181985
N8    N     N_3   0.394543 0.108506 0.854744 -0.446826
H99   H     H_    0.365864 0.061041 0.820059 0.145832
H100  H     H_    0.388263 0.102778 0.972203 0.190745
N9    N     N_3   0.877096 0.036611 0.516183 -0.496445
H101  H     H_    0.869339 0.000216 0.604348 0.201436
H102  H     H_    0.834130 0.074774 0.514777 0.207266
N10   N     N_3   0.904018 0.958485 0.998932 -0.515118
H103  H     H_    0.908875 0.956319 0.122716 0.203377
H104  H     H_    0.852690 0.931611 0.944656 0.203107
N11   N     N_3   0.377491 0.536340 0.516408 -0.497054
H105  H     H_    0.369528 0.500406 0.605333 0.201788
H106  H     H_    0.334271 0.574458 0.513012 0.207279
N12   N     N_3   0.403995 0.458524 0.998994 -0.515220
H107  H     H_    0.408798 0.456336 0.122757 0.203438
H108  H     H_    0.352681 0.431664 0.944615 0.203132

loop_
_geom_bond_atom_site_label_1
_geom_bond_atom_site_label_2
_geom_bond_distance
_ccdc_geom_bond_type
C21   H45   1.109879 S    
C43   H73   1.074292 S    
P10   C65   1.843091 S    
C59   C63   1.450629 A    
N7    H98   1.030352 S    
P1    O17   1.757233 S    
P9    C66   1.857083 S    
O10   Ba2   2.853545 S    
O16   P15   1.546791 D    
C29   H61   1.100989 S    
P7    O48   1.623802 S    
C6    H14   1.111297 S    
O27   Ba3   2.920619 S    
C5    H13   1.112942 S    
C20   H44   1.107560 S    
P3    O19   1.757293 S    
O50   H81   1.004352 S    
O26   Ba2   2.897349 S    
P5    O37   1.749766 S    
C8    H12   1.109161 S    
O6    Ba1   2.889805 S    
C28   H60   1.111894 S    
C69   N3    1.427328 S    
C7    H15   1.112883 S    
P7    O39   1.749804 S    
Ba3   Ba4   4.691655 S    
C1    H67   1.107629 S    
P8    O40   1.747771 S    
P9    O33   1.541229 D    
N5    H93   1.025000 S    
C1    H7    1.112124 S    
O11   Ba3   2.852180 S    
P11   C68   1.857001 S    
C18   H38   1.104665 S    
P1    O1    1.558354 D    
O32   Ba4   2.851502 S    
C25   H57   1.112511 S    
C3    H5    1.112024 S    
C12   H18   1.109955 S    
C55   C69   1.431710 A    
P3    O3    1.558354 D    
P15   C48   1.874009 S    
C24   H52   1.101178 S    
O41   C5    1.403835 S    
N9    H101  1.042654 S    
P4    O20   1.741665 S    
C14   C18   1.524480 S    
C27   H59   1.111820 S    
O18   C22   1.370549 S    
C39   C47   1.400725 A    
P13   C46   1.874013 S    
C14   H26   1.103382 S    
C15   H27   1.104584 S    
C21   H49   1.099423 S    
N3    H89   1.045324 S    
C1    N9    1.463486 S    
O24   C32   1.414684 S    
N12   H108  1.043319 S    
C37   C45   1.400772 A    
Ba1   O46   2.984325 S    
P4    Ba4   3.474098 S    
C33   C61   1.389022 A    
C42   C46   1.411699 A    
P5    Ba1   3.476546 S    
P6    O45   1.609765 S    
P4    C52   1.905471 S    
C25   H53   1.110777 S    
C40   C48   1.399026 A    
C13   C17   1.516616 S    
C9    H19   1.110404 S    
C27   H55   1.110233 S    
P5    O25   1.554304 D    
C54   C60   1.452155 A    
P1    O5    1.604744 S    
O7    Ba4   2.873199 S    
C15   H31   1.110227 S    
N10   H103  1.041166 S    
N3    H90   1.041508 S    
C6    H10   1.109153 S    
O24   P15   1.754685 S    
O56   H84   1.012427 S    
C71   N1    1.427314 S    
C57   C61   1.450638 A    
C34   H78   1.082192 S    
C35   C67   1.380763 A    
P4    O8    1.618620 S    
C33   H77   1.082123 S    
C76   O55   1.215065 D    
P6    O38   1.747819 S    
P12   O32   1.735740 S    
C49   C53   1.462395 A    
P4    O4    1.555000 D    
N4    H91   1.042945 S    
C9    H21   1.107706 S    
P8    O28   1.557658 D    
O30   Ba2   2.851502 S    
P9    O29   1.732533 S    
C36   C64   1.394555 A    
C7    H11   1.112366 S    
N1    H85   1.045311 S    
P10   O34   1.536644 D    
C67   C71   1.407493 A    
O15   P16   1.540229 D    
C38   N6    1.445889 S    
C17   H41   1.108305 S    
P2    O2    1.555000 D    
C19   H35   1.097622 S    
C2    H68   1.104009 S    
O13   P14   1.540313 D    
C24   H48   1.101927 S    
C19   H43   1.108300 S    
C68   C72   1.409306 A    
P3    Ba3   3.462119 S    
P12   O36   1.536652 D    
C50   C54   1.470481 A    
C7    C11   1.509649 S    
P2    Ba2   3.474098 S    
C74   O52   1.383627 S    
P14   C45   1.862202 S    
N4    H92   1.044430 S    
N5    H94   1.030361 S    
P8    O47   1.609765 S    
C37   C49   1.416969 A    
Ba2   O45   2.989437 S    
C28   H56   1.109562 S    
C18   H42   1.107735 S    
C25   C73   1.483856 S    
C5    C9    1.509638 S    
C6    C10   1.499101 S    
C56   C58   1.452132 A    
C40   C52   1.417901 A    
C13   H29   1.110227 S    
O20   C24   1.370585 S    
N9    H102  1.041056 S    
C22   H46   1.101907 S    
C4    C32   1.527369 S    
O37   C14   1.400727 S    
O4    Ba4   2.917026 S    
H1    C29   1.099392 S    
P5    O46   1.623802 S    
C21   C25   1.518900 S    
C53   C59   1.445749 A    
C54   C72   1.437106 A    
O39   C16   1.400686 S    
P8    Ba4   3.464299 S    
C20   H36   1.104793 S    
C11   H69   1.110218 S    
C26   C74   1.484642 S    
N8    H100  1.033477 S    
P2    O18   1.741607 S    
C75   O53   1.220406 D    
C43   C47   1.406844 A    
C60   C64   1.458992 A    
P8    C63   1.888225 S    
C73   O49   1.220596 D    
O9    Ba1   2.852180 S    
C66   C70   1.409309 A    
C13   H25   1.104578 S    
C44   H74   1.076526 S    
O52   H82   1.012430 S    
Ba2   O46   2.889775 S    
C34   C62   1.394570 A    
C65   C69   1.407482 A    
O44   C8    1.397149 S    
C10   H72   1.107964 S    
O25   Ba1   2.920619 S    
P10   O30   1.735754 S    
O12   P15   1.774451 S    
N2    H88   1.044433 S    
O5    Ba2   2.873199 S    
Ba1   Ba2   4.691655 S    
C42   C60   1.411637 A    
P11   O43   1.739300 S    
C36   C68   1.389096 A    
C8    C12   1.499144 S    
P12   O44   1.735199 S    
C5    H9    1.112435 S    
C76   O56   1.383611 S    
C19   H39   1.104756 S    
O11   P16   1.776340 S    
C72   N2    1.429984 S    
O14   P13   1.546791 D    
C15   C19   1.516593 S    
P6    O26   1.557658 D    
C56   C70   1.437026 A    
C58   C62   1.459005 A    
C2    C30   1.527326 S    
N10   H104  1.043367 S    
C11   H17   1.110448 S    
Ba4   O47   2.989437 S    
C44   C58   1.411644 A    
N1    H86   1.041518 S    
O10   P13   1.774446 S    
P9    O41   1.739251 S    
C28   C76   1.484660 S    
C31   H63   1.100891 S    
C2    H8    1.105410 S    
O2    Ba2   2.917026 S    
P7    Ba3   3.476546 S    
O17   C21   1.379356 S    
N7    H97   1.024999 S    
P2    O6    1.618620 S    
O31   Ba3   2.852848 S    
C32   H64   1.096942 S    
P7    C64   1.916313 S    
P6    Ba2   3.464299 S    
P11   O31   1.732485 S    
C18   H34   1.104917 S    
P16   C47   1.862011 S    
C17   H37   1.104750 S    
O23   P16   1.741698 S    
H2    C30   1.107391 S    
C17   H33   1.097621 S    
Ba3   O48   2.984325 S    
C22   C26   1.517805 S    
O1    Ba1   2.893994 S    
C41   C45   1.406882 A    
H4    C32   1.107392 S    
P1    Ba1   3.462119 S    
C74   O51   1.215076 D    
O21   P14   1.741705 S    
C35   H79   1.082123 S    
C38   C50   1.417961 A    
C27   C75   1.483614 S    
Ba3   O47   2.873164 S    
P2    C50   1.905438 S    
O40   C15   1.402702 S    
O3    Ba3   2.893994 S    
O22   P13   1.754654 S    
N11   H105  1.042839 S    
C42   H76   1.076519 S    
P10   O42   1.735181 S    
C43   C57   1.406373 A    
N6    H96   1.033625 S    
C11   H23   1.107685 S    
C52   C56   1.470452 A    
O19   C23   1.379145 S    
C12   H70   1.104944 S    
C40   N8    1.445855 S    
C10   H22   1.109948 S    
C2    N10   1.457425 S    
C37   N5    1.445940 S    
C73   O50   1.388338 S    
C20   H40   1.104429 S    
C23   H47   1.109813 S    
C16   H32   1.110633 S    
N8    H99   1.031508 S    
C24   C28   1.517834 S    
C35   C63   1.389003 A    
C8    H16   1.111301 S    
O29   Ba1   2.852848 S    
C4    H6    1.105383 S    
O21   C29   1.400852 S    
O28   Ba4   2.897349 S    
P7    O27   1.554304 D    
O42   C6    1.397112 S    
O8    Ba3   2.889805 S    
C26   H58   1.111932 S    
C10   H20   1.104878 S    
C16   H28   1.103364 S    
P12   C67   1.843124 S    
C26   H54   1.109570 S    
N2    H87   1.042974 S    
C3    H65   1.107582 S    
Ba1   O45   2.873164 S    
O22   C30   1.414690 S    
O43   C7    1.403776 S    
C39   N7    1.445959 S    
C9    H71   1.110215 S    
C4    N12   1.457411 S    
Ba4   O48   2.889775 S    
P3    C51   1.895411 S    
C23   H51   1.099222 S    
C51   C55   1.462406 A    
O9    P14   1.776110 S    
C1    C29   1.524412 S    
C3    C31   1.524566 S    
P3    O7    1.604744 S    
C30   H62   1.096929 S    
P11   O35   1.541244 D    
C38   C46   1.398990 A    
C44   C48   1.411717 A    
C41   H75   1.074318 S    
C39   C51   1.416932 A    
C22   H50   1.101203 S    
C75   O54   1.388206 S    
C4    H66   1.103976 S    
C36   H80   1.082196 S    
O38   C13   1.402707 S    
O54   H83   1.004184 S    
C34   C66   1.389102 A    
C70   N4    1.429900 S    
N12   H107  1.041124 S    
C16   C20   1.524591 S    
P6    C61   1.888236 S    
C33   C65   1.380786 A    
C12   H24   1.107956 S    
C3    N11   1.463467 S    
P5    C62   1.916296 S    
O12   Ba4   2.853545 S    
O23   C31   1.400622 S    
C23   C27   1.518964 S    
H3    C31   1.099124 S    
C53   C71   1.431704 A    
N11   H106  1.041461 S    
C14   H30   1.110627 S    
P1    C49   1.895488 S    
N6    H95   1.031522 S    
C55   C57   1.445758 A    
C41   C59   1.406388 A    
