data_mof_unit_20368.cif
_audit_creation_date              2013-03-05T15:44:59-0500
_audit_creation_method            fapswitch 2.2
_symmetry_space_group_name_H-M    P1
_symmetry_Int_Tables_number       1
_space_group_crystal_system       triclinic
_cell_length_a                    10.022148
_cell_length_b                    10.611161
_cell_length_c                    16.71822
_cell_angle_alpha                 90.287115
_cell_angle_beta                  84.653631
_cell_angle_gamma                 92.260352
_cell_volume                      1768.81269566

loop_
_atom_site_label
_atom_site_type_symbol
_atom_site_description
_atom_site_fract_x
_atom_site_fract_y
_atom_site_fract_z
_atom_type_partial_charge
O1    O     O_R   0.386960 0.680940 0.500010 -0.593383
O2    O     O_R   0.613100 0.680900 0.499990 -0.618489
C1    C     C_R   0.502826 0.738125 0.501740 0.917162
O3    O     O_R   0.373570 0.500040 0.615810 -0.576798
O4    O     O_R   0.599710 0.500000 0.615790 -0.608215
C2    C     C_R   0.480953 0.506118 0.653166 0.849464
Zn1   Zn    Zn3+2 0.349000 0.500030 0.500020 1.017826
Zn2   Zn    Zn3+2 0.651000 0.499970 0.499980 0.946799
O5    O     O_R   0.386900 0.319100 0.500010 -0.619317
O6    O     O_R   0.613040 0.319060 0.499990 -0.613716
O7    O     O_R   0.400290 0.500000 0.384210 -0.622930
O8    O     O_R   0.626430 0.499960 0.384190 -0.619862
C3    C     C_R   0.495570 0.263158 0.510084 0.896726
C4    C     C_R   0.519126 0.499682 0.346886 0.860686
C5    C     C_R   0.468071 0.542410 0.737464 -0.104685
C6    C     C_R   0.577792 0.600881 0.770641 -0.183550
C7    C     C_R   0.563637 0.645900 0.848602 -0.187100
C8    C     C_R   0.440424 0.631212 0.894758 -0.005933
C9    C     C_R   0.326822 0.577887 0.861147 0.302241
C10   C     C_R   0.342459 0.533693 0.782047 -0.224474
C11   C     C_R   0.427260 0.415987 0.143627 -0.108225
C12   C     C_R   0.440889 0.410689 0.225005 -0.229161
C13   C     C_R   0.612442 0.581909 0.211708 0.069187
C14   C     C_R   0.597372 0.585664 0.129522 -0.085764
C15   C     C_R   0.500268 0.507569 0.096988 0.191830
C16   C     C_2   0.445815 0.632686 0.981337 0.339801
C17   C     C_2   0.471967 0.521866 0.014149 -0.347721
C18   C     C_R   0.529134 0.495695 0.259945 -0.054112
H1    H     H_    0.674850 0.611449 0.736550 0.178860
H2    H     H_    0.378284 0.343332 0.261564 0.151826
H3    H     H_    0.473947 0.436727 0.977479 0.159189
H4    H     H_    0.354621 0.353328 0.117883 0.161218
H5    H     H_    0.256864 0.491723 0.755314 0.228855
H6    H     H_    0.651399 0.684013 0.875058 0.177580
H7    H     H_    0.656194 0.653646 0.091377 0.146247
C19   C     C_2   0.595144 0.072312 0.544529 -0.214918
C20   C     C_2   0.482623 0.136447 0.542519 -0.085081
H8    H     H_    0.693550 0.116830 0.529014 0.171304
C21   C     C_2   0.590862 0.936490 0.552087 0.115911
C22   C     C_2   0.512254 0.872068 0.503645 -0.381451
H9    H     H_    0.452499 0.920608 0.463238 0.140407
C23   C     C_2   0.079687 0.447613 0.444262 -0.076662
N1    N     N_2   0.147950 0.498670 0.499150 0.001083
H10   H     H_    0.133742 0.415667 0.389137 0.123986
C24   C     C_2   0.929282 0.431500 0.451257 -0.085771
N2    N     N_2   0.852290 0.498640 0.499130 -0.169756
H11   H     H_    0.883790 0.364090 0.411969 0.146530
H12   H     H_    0.895658 0.575256 0.526001 0.198913
C25   C     C_3   0.344182 0.086037 0.577870 -0.414938
C26   C     C_3   0.293260 0.160840 0.652765 -0.332240
C27   C     C_3   0.157363 0.107418 0.688982 -0.770646
H13   H     H_    0.082043 0.111086 0.644391 0.270996
H14   H     H_    0.165630 0.008168 0.708175 0.255695
H15   H     H_    0.122418 0.164207 0.742288 0.274577
H16   H     H_    0.366613 0.156650 0.698561 0.222954
H17   H     H_    0.281995 0.261186 0.637576 0.268161
H18   H     H_    0.272239 0.091147 0.531338 0.210624
H19   H     H_    0.344717 0.986204 0.596856 0.229360
C28   C     C_3   0.673717 0.878861 0.612900 -0.335631
C29   C     C_3   0.822354 0.878151 0.581278 -0.385901
C30   C     C_3   0.906317 0.823459 0.643236 -0.793696
H20   H     H_    0.896223 0.879345 0.699690 0.262436
H21   H     H_    0.873757 0.723895 0.656429 0.278001
H22   H     H_    0.013508 0.826788 0.619270 0.270831
H23   H     H_    0.834638 0.821097 0.525352 0.235906
H24   H     H_    0.860882 0.975906 0.567112 0.220547
H25   H     H_    0.662674 0.935790 0.668999 0.204140
H26   H     H_    0.636020 0.782172 0.630105 0.201622
N3    N     N_R   0.087472 0.495974 0.577674 0.280342
O9    O     O_R   0.034886 0.390762 0.608437 -0.404097
O10   O     O_R   0.112501 0.588822 0.625722 -0.402352
C31   C     C_3   0.709006 0.676793 0.245850 -0.424237
C32   C     C_3   0.634867 0.789202 0.283913 -0.305670
C33   C     C_3   0.730639 0.880540 0.323180 -0.858950
H27   H     H_    0.776394 0.832673 0.372255 0.265163
H28   H     H_    0.811222 0.916652 0.278034 0.269978
H29   H     H_    0.674680 0.961728 0.349064 0.247818
H30   H     H_    0.587164 0.840124 0.236778 0.249923
H31   H     H_    0.554578 0.756253 0.330090 0.211275
H32   H     H_    0.767748 0.630846 0.289757 0.227675
H33   H     H_    0.783988 0.712935 0.197276 0.213894
N4    N     N_R   0.198027 0.563596 0.907164 0.205262
O11   O     O_R   0.168120 0.634673 0.969435 -0.342490
O12   O     O_R   0.105453 0.486647 0.883118 -0.374555
N5    N     N_R   0.429597 0.748549 0.025993 0.230974
O13   O     O_R   0.446617 0.855998 0.988551 -0.372190
O14   O     O_R   0.376522 0.747275 0.100076 -0.367118

loop_
_geom_bond_atom_site_label_1
_geom_bond_atom_site_label_2
_geom_bond_distance
_ccdc_geom_bond_type
C32   C33   1.526199 S    
C9    C10   1.397925 A    
C8    C16   1.453462 S    
N5    O13   1.301079 A    
Zn1   O7    1.956374 S    
C16   C17   1.345357 D    
C33   H28   1.110696 S    
C19   C20   1.343059 D    
O4    C2    1.295510 A    
O7    C4    1.292143 A    
C5    C6    1.399366 A    
C25   H18   1.111775 S    
N3    O10   1.299596 A    
C8    C9    1.413306 A    
C30   H21   1.110419 S    
O5    C3    1.285723 A    
C28   H25   1.112212 S    
C2    C5    1.454533 S    
C6    C7    1.382658 A    
C33   H29   1.110462 S    
C13   C14   1.397137 A    
Zn1   N1    2.015842 S    
C9    N4    1.442804 S    
C3    C20   1.448836 S    
C31   H33   1.112626 S    
C24   H11   1.084586 S    
C29   H24   1.111295 S    
C28   C29   1.533852 S    
N1    N3    1.393672 S    
C12   C18   1.401812 A    
C11   C12   1.381576 A    
N3    O9    1.302878 A    
C23   H10   1.084455 S    
O3    Zn1   1.974028 S    
C7    C8    1.397518 A    
N5    O14   1.301506 A    
C5    C10   1.401986 A    
C11   H4    1.083807 S    
N2    H12   1.027875 S    
C14   H7    1.084246 S    
C33   H27   1.110879 S    
C17   H3    1.089046 S    
C27   H13   1.111117 S    
C14   C15   1.400057 A    
O3    C2    1.292982 A    
C21   C22   1.347104 D    
C6    H1    1.082742 S    
C24   N2    1.290770 D    
C32   H30   1.111915 S    
C26   H17   1.108385 S    
C25   H19   1.107754 S    
C29   C30   1.524748 S    
O1    C1    1.291510 A    
C23   C24   1.504033 S    
C30   H22   1.110315 S    
C28   H26   1.109157 S    
C20   C25   1.533728 S    
Zn2   O8    1.974032 S    
C21   C28   1.516833 S    
C26   C27   1.527025 S    
C32   H31   1.109259 S    
C13   C18   1.416345 A    
C10   H5    1.083192 S    
C22   H9    1.087893 S    
O8    C4    1.292359 A    
C29   H23   1.111135 S    
N4    O11   1.301649 A    
N4    O12   1.302137 A    
C7    H6    1.084192 S    
Zn1   O5    1.971728 S    
C11   C15   1.390299 A    
C12   H2    1.084264 S    
O1    Zn1   1.942223 S    
C13   C31   1.515398 S    
C19   C21   1.445989 S    
O2    Zn2   1.971730 S    
C31   C32   1.534262 S    
O6    C3    1.294323 A    
C1    C22   1.421093 S    
O4    Zn2   1.956374 S    
C15   C17   1.449193 S    
C26   H16   1.111943 S    
C27   H15   1.110434 S    
C4    C18   1.448119 S    
C19   H8    1.086231 S    
O2    C1    1.279741 A    
C31   H32   1.108994 S    
C16   N5    1.441955 S    
C30   H20   1.110863 S    
Zn2   N2    2.016690 S    
Zn2   O6    1.942224 S    
C25   C26   1.536607 S    
C23   N1    1.298607 D    
C27   H14   1.110941 S    
