data_mof_unit_25464.cif
_audit_creation_date              2012-12-11T14:15:23-0500
_audit_creation_method            fapswitch 2.2
_symmetry_space_group_name_H-M    P1
_symmetry_Int_Tables_number       1
_space_group_crystal_system       triclinic
_cell_length_a                    10.99476
_cell_length_b                    12.59048
_cell_length_c                    24.12428
_cell_angle_alpha                 91.423897
_cell_angle_beta                  96.720475
_cell_angle_gamma                 68.932198
_cell_volume                      3094.33377024

loop_
_atom_site_label
_atom_site_type_symbol
_atom_type_description
_atom_site_fract_x
_atom_site_fract_y
_atom_site_fract_z
_atom_type_partial_charge
C1    C     C_R   0.121814 0.600565 0.420764 0.531299
C2    C     C_R   0.697214 0.543843 0.305543 -0.018369
C3    C     C_R   0.737110 0.729829 0.318424 -0.009985
C4    C     C_R   0.704145 0.748446 0.259454 0.056870
C5    C     C_R   0.667476 0.667774 0.227365 -0.011760
C6    C     C_R   0.632898 0.682449 0.170987 -0.132075
C7    C     C_R   0.678130 0.857459 0.172318 -0.033628
C8    C     C_R   0.706668 0.843693 0.230069 -0.094321
C9    C     C_1   0.255570 0.132321 0.129249 0.045718
C10   C     C_2   0.227518 0.192116 0.234443 -0.103097
C11   C     C_2   0.117965 0.196700 0.257911 0.262543
C12   C     C_R   0.770554 0.594008 0.400823 0.521257
C13   C     C_1   0.111065 0.226787 0.315977 0.021953
C14   C     C_1   0.240802 0.163125 0.176553 0.031448
C15   C     C_1   0.104953 0.258460 0.363564 0.005345
C16   C     C_1   0.188640 0.775360 0.130556 0.039107
C17   C     C_2   0.153292 0.734385 0.234451 0.250510
C18   C     C_2   0.224901 0.639233 0.265886 0.014732
C19   C     C_1   0.194889 0.626711 0.322196 -0.019751
C20   C     C_1   0.173634 0.753396 0.177434 0.075976
C21   C     C_1   0.165957 0.614761 0.368086 0.026609
C22   C     C_1   0.584681 0.771387 0.857391 -0.000781
C23   C     C_R   0.093407 0.306966 0.417998 0.537632
C24   C     C_2   0.653504 0.739707 0.754632 -0.106276
C25   C     C_2   0.712852 0.636150 0.735250 -0.112568
C26   C     C_1   0.741055 0.618207 0.677964 -0.012759
C27   C     C_1   0.619188 0.756207 0.811119 -0.042361
C28   C     C_1   0.767609 0.599702 0.630560 0.026446
C29   C     C_R   0.217367 0.130465 0.844779 -0.011718
C30   C     C_R   0.085576 0.271416 0.646318 0.011881
C31   C     C_R   0.960686 0.243081 0.717183 -0.103201
C32   C     C_R   0.976916 0.247919 0.660879 0.175479
C33   C     C_R   0.186741 0.267136 0.687330 0.174473
C34   C     C_R   0.128399 0.606716 0.595978 0.527237
C35   C     C_R   0.190140 0.220417 0.738846 0.034159
C36   C     C_R   0.074382 0.213790 0.758181 -0.025477
C37   C     C_R   0.085996 0.171408 0.814963 0.001237
C38   C     C_R   0.325526 0.130969 0.820344 -0.143687
C39   C     C_R   0.311947 0.177669 0.769633 -0.080048
C40   C     C_R   0.174547 0.799071 0.842025 -0.008103
C41   C     C_R   0.177300 0.639509 0.649868 0.002567
C42   C     C_R   0.331448 0.605780 0.732663 -0.103026
C43   C     C_R   0.300679 0.579164 0.677815 -0.067655
C44   C     C_R   0.090978 0.734003 0.674363 -0.100148
C45   C     C_R   0.804979 0.574164 0.575008 0.533913
C46   C     C_R   0.116947 0.760284 0.729491 0.052977
C47   C     C_R   0.239092 0.693156 0.759229 0.024393
C48   C     C_R   0.266685 0.713345 0.815257 -0.133317
C49   C     C_R   0.057568 0.869088 0.811632 -0.148992
C50   C     C_R   0.024801 0.850331 0.756197 -0.001977
C51   C     C_R   0.280216 0.084425 0.075299 0.544064
C52   C     C_R   0.570900 0.788268 0.086072 0.547532
C53   C     C_R   0.209780 0.807504 0.076256 0.534053
C54   C     C_R   0.257406 0.077965 0.900425 0.507107
C55   C     C_R   0.534237 0.789771 0.910808 0.514783
C56   C     C_R   0.086043 0.315929 0.591314 0.571683
C57   C     C_R   0.198490 0.818944 0.901736 0.534561
C58   C     C_R   0.635258 0.775717 0.142659 0.015931
C59   C     C_R   0.729018 0.625645 0.341576 -0.055002
C60   C     C_R   0.663244 0.570479 0.249871 -0.073778
Cr1   Cr    Cr6+3 0.189770 0.415650 0.511620 1.106804
Cr2   Cr    Cr6+3 0.930400 0.667320 0.496770 1.060212
Cr3   Cr    Cr6+3 0.879870 0.417010 0.491650 1.101426
Cr4   Cr    Cr6+3 0.149500 0.973980 0.985330 1.049827
Cr5   Cr    Cr6+3 0.457000 0.976510 0.994660 1.110350
Cr6   Cr    Cr6+3 0.411170 0.724270 0.995270 1.068766
H1    H     H_    0.598887 0.619983 0.149191 0.169820
H2    H     H_    0.740464 0.562806 0.762789 0.149374
H3    H     H_    0.625170 0.813075 0.727090 0.175649
H4    H     H_    0.425221 0.094364 0.840741 0.155005
H5    H     H_    0.401293 0.173951 0.753738 0.206512
H6    H     H_    0.358940 0.661726 0.838274 0.134526
H7    H     H_    0.987686 0.937739 0.832040 0.142396
H8    H     H_    0.425924 0.556569 0.754692 0.145948
H9    H     H_    0.371815 0.511359 0.657577 0.206132
H10   H     H_    0.001767 0.784317 0.649552 0.216705
H11   H     H_    0.634954 0.511733 0.222271 0.209402
H12   H     H_    0.725246 0.913818 0.249342 0.215174
H13   H     H_    0.312276 0.206016 0.258800 0.107784
O1    O     O_R   0.196340 0.303200 0.448500 -0.493847
O2    O     O_R   0.811960 0.658090 0.547150 -0.477837
O3    O     O_R   0.757930 0.506140 0.547110 -0.455918
O4    O     O_R   0.988670 0.321620 0.556040 -0.454509
O5    O     O_3   0.000020 0.499990 0.500010 -0.338738
O6    O     O_R   0.113660 0.883270 0.047820 -0.475554
O7    O     O_R   0.186930 0.068530 0.043990 -0.486752
O8    O     O_R   0.377770 0.089040 0.054220 -0.449309
O9    O     O_R   0.562800 0.872960 0.056970 -0.433143
O10   O     O_R   0.555390 0.700940 0.062700 -0.511280
O11   O     O_R   0.295020 0.731920 0.049950 -0.476912
O12   O     O_R   0.199310 0.519670 0.454880 -0.490872
O13   O     O_R   0.094290 0.884230 0.921550 -0.509576
O14   O     O_R   0.168980 0.069410 0.926940 -0.548306
O15   O     O_R   0.358400 0.089990 0.927950 -0.489203
O16   O     O_R   0.544850 0.873850 0.939920 -0.485875
O17   O     O_R   0.536020 0.701900 0.936430 -0.493942
O18   O     O_R   0.277070 0.732810 0.932890 -0.484486
O19   O     O_3   0.339220 0.891590 0.991750 -0.337772
O20   O     O_R   0.045660 0.691380 0.441680 -0.486318
O21   O     O_R   0.811930 0.659460 0.430950 -0.544202
O22   O     O_R   0.757900 0.507620 0.421760 -0.533509
O23   O     O_R   0.988630 0.322990 0.439840 -0.482689
O24   O     O_R   0.196380 0.301720 0.573850 -0.425778
O25   O     O_R   0.199350 0.518300 0.571080 -0.466672
O26   O     O_R   0.045700 0.689900 0.567030 -0.505357
Cl1   Cl    Cl    0.029958 0.847265 0.262520 -0.531054
C61   C     C_2   0.972381 0.163905 0.843781 0.189930
H14   H     H_    0.980200 0.133659 0.885257 0.192247
O27   O     O_2   0.859447 0.194368 0.823433 -0.532200
C62   C     C_2   0.822042 0.293512 0.728588 0.298105
H15   H     H_    0.848166 0.201595 0.729039 0.306188
O28   O     O_2   0.741545 0.246330 0.717310 -0.492674
Cl2   Cl    Cl    0.854761 0.228345 0.610505 -0.464877
Cl3   Cl    Cl    0.309607 0.323090 0.676462 -0.589492
C63   C     C_2   0.702768 0.956414 0.148801 0.260944
H16   H     H_    0.769067 0.990467 0.173969 0.177236
O29   O     O_2   0.650128 0.003929 0.104216 -0.439598
C64   C     C_2   0.892174 0.927564 0.731467 0.239991
H17   H     H_    0.840330 0.003103 0.753817 0.164697
O30   O     O_2   0.835606 0.908114 0.688182 -0.489838
C65   C     C_2   0.702978 0.425580 0.320784 0.237482
H18   H     H_    0.714611 0.391771 0.362375 0.177637
O31   O     O_2   0.694516 0.358286 0.284357 -0.456940
C66   C     C_2   0.784532 0.814856 0.353904 0.261059
H19   H     H_    0.813490 0.810532 0.397925 0.196355
O32   O     O_2   0.795616 0.898781 0.334828 -0.468684
Cl4   Cl    Cl    0.976827 0.178547 0.220311 -0.464678
C67   C     C_2   0.332667 0.541852 0.245612 0.199573
H20   H     H_    0.385704 0.469297 0.273283 0.138105
O33   O     O_2   0.363737 0.540411 0.198615 -0.504588

loop_
_geom_bond_atom_site_label_1
_geom_bond_atom_site_label_2
_ccdc_geom_bond_type
C38   H4    S    
C1    C21   S    
C57   O13   A    
C41   C43   A    
C6    C58   A    
C11   Cl4   S    
C35   C36   A    
C9    C51   S    
C24   C27   S    
Cr3   O22   S    
C67   H20   S    
C1    O20   A    
C7    C8    A    
Cr6   O11   S    
Cr2   O26   S    
C34   C41   S    
C33   Cl3   S    
Cr5   O9    S    
Cr6   O18   S    
C66   O32   D    
C36   C37   A    
Cr1   O24   S    
Cr4   O14   S    
C37   C61   S    
C5    C6    A    
C2    C60   A    
C23   O23   A    
C29   C54   S    
Cr1   O1    S    
C40   C49   A    
C17   C20   S    
C18   C19   S    
C7    C63   S    
C44   H10   S    
C16   C53   S    
C54   O14   A    
C18   C67   S    
C64   H17   S    
C12   C59   S    
C45   O3    A    
C63   O29   D    
C29   C38   A    
C61   H14   S    
C32   Cl2   S    
C7    C58   A    
C5    C60   A    
C4    C8    A    
C15   C23   S    
C1    O12   A    
C8    H12   S    
C61   O27   D    
C52   O10   A    
C25   H2    S    
C48   H6    S    
Cr3   O23   S    
C51   O7    A    
Cr4   O7    S    
C44   C46   A    
C24   H3    S    
Cr5   O8    S    
Cr6   O10   S    
C62   O28   D    
C43   H9    S    
C28   C45   S    
C60   H11   S    
C42   H8    S    
C65   O31   D    
Cr3   O3    S    
C52   O9    A    
Cr1   O25   S    
C24   C25   D    
C55   O16   A    
C10   C14   S    
C51   O8    A    
C2    C59   A    
C4    C5    A    
C25   C26   S    
C30   C56   S    
C34   O25   A    
C62   H15   S    
C12   O21   A    
Cr3   O4    S    
C35   C39   A    
C9    C14   T    
C47   C48   A    
C16   C20   T    
C57   O18   A    
C17   C18   D    
C65   H18   S    
C52   C58   S    
Cr2   O21   S    
Cr5   O15   S    
Cr2   O2    S    
C22   C27   T    
C13   C15   T    
C23   O1    A    
C41   C44   A    
C49   H7    S    
C42   C43   A    
Cr4   O13   S    
C3    C4    A    
Cr4   O6    S    
C3    C66   S    
C56   O4    A    
Cr6   O17   S    
C2    C65   S    
C40   C48   A    
Cr2   O5    S    
C46   C47   A    
C6    H1    S    
C40   C57   S    
C30   C33   A    
C19   C21   T    
C50   C64   S    
C34   O26   A    
C31   C32   A    
C45   O2    A    
C56   O24   A    
C55   O17   A    
Cr1   O5    S    
C67   O33   D    
Cr5   O19   S    
C10   H13   S    
C22   C55   S    
C46   C50   A    
C26   C28   T    
Cr3   O5    S    
Cr6   O19   S    
C12   O22   A    
C17   Cl1   S    
C30   C32   A    
C11   C13   S    
C38   C39   A    
Cr4   O19   S    
C33   C35   A    
C31   C62   S    
C42   C47   A    
C64   O30   D    
C54   O15   A    
C10   C11   D    
Cr2   O20   S    
Cr1   O12   S    
Cr5   O16   S    
C49   C50   A    
C29   C37   A    
C53   O11   A    
C39   H5    S    
C31   C36   A    
C53   O6    A    
C63   H16   S    
C66   H19   S    
C3    C59   A    
