data_mof_unit_51498.cif
_audit_creation_date              2012-12-11T14:49:46-0500
_audit_creation_method            fapswitch 2.2
_symmetry_space_group_name_H-M    P1
_symmetry_Int_Tables_number       1
_space_group_crystal_system       triclinic
_cell_length_a                    16.898946
_cell_length_b                    16.763322
_cell_length_c                    19.391026
_cell_angle_alpha                 117.684191
_cell_angle_beta                  62.19014
_cell_angle_gamma                 100.715795
_cell_volume                      4299.13989254

loop_
_atom_site_label
_atom_site_type_symbol
_atom_type_description
_atom_site_fract_x
_atom_site_fract_y
_atom_site_fract_z
_atom_type_partial_charge
C1    C     C_R   0.041817 0.758914 0.009409 -0.135739
C2    C     C_R   0.251706 0.520256 0.828001 -0.125036
C3    C     C_R   0.182796 0.490187 0.088368 -0.136247
C4    C     C_R   0.764190 0.418811 0.164489 -0.141378
C5    C     C_R   0.983588 0.345696 0.761739 0.304426
C6    C     C_R   0.256788 0.540789 0.066037 0.068356
C7    C     C_R   0.938491 0.266449 0.758233 0.040144
C8    C     C_R   0.258734 0.457959 0.746637 0.066909
C9    C     C_R   0.028586 0.222849 0.003412 0.064628
C10   C     C_R   0.848214 0.135844 0.705399 -0.239806
C11   C     C_R   0.905859 0.205247 0.693103 0.125081
C12   C     C_R   0.767302 0.437407 0.240582 0.086587
C13   C     C_R   0.939019 0.210784 0.614277 -0.270111
C14   C     C_R   0.917851 0.147974 0.548096 0.138586
C15   C     C_R   0.869121 0.072915 0.557117 0.039597
C16   C     C_R   0.804708 0.560228 0.961243 -0.114603
C17   C     C_R   0.832240 0.067813 0.636678 0.123499
C18   C     C_R   0.952509 0.154727 0.469888 -0.206028
C19   C     C_R   0.947492 0.082606 0.397748 -0.208373
C20   C     C_R   0.910689 0.002500 0.403010 0.152310
C21   C     C_R   0.866856 0.998734 0.483810 0.029143
C22   C     C_R   0.830745 0.917576 0.489195 0.045250
C23   C     C_R   0.723170 0.548408 0.022135 0.056508
C24   C     C_R   0.782917 0.916574 0.571582 -0.096845
C25   C     C_R   0.785160 0.992060 0.644515 -0.264205
C26   C     C_R   0.928047 0.923621 0.327577 -0.244829
C27   C     C_R   0.910295 0.840699 0.331688 0.099027
C28   C     C_R   0.951138 0.672420 0.248792 -0.131053
C29   C     C_R   0.854665 0.838140 0.411697 -0.194525
C30   C     C_R   0.424573 0.432352 0.672909 -0.237465
C31   C     C_R   0.341813 0.412905 0.669056 0.109009
C32   C     C_R   0.339833 0.359367 0.588885 -0.250633
C33   C     C_R   0.418241 0.340106 0.512591 0.166404
C34   C     C_R   0.958743 0.758654 0.254686 0.070321
C35   C     C_R   0.500006 0.372303 0.516815 -0.020319
C36   C     C_R   0.504604 0.414416 0.597149 0.081020
C37   C     C_R   0.414428 0.297601 0.432652 -0.203718
C38   C     C_R   0.488793 0.295648 0.358363 -0.207489
C39   C     C_R   0.567403 0.336089 0.363593 0.161348
C40   C     C_R   0.738278 0.483318 0.040153 -0.120584
C41   C     C_R   0.574772 0.370146 0.441858 0.030686
C42   C     C_R   0.653965 0.410037 0.447040 0.086313
C43   C     C_R   0.661685 0.442255 0.524305 -0.234244
C44   C     C_R   0.587713 0.444742 0.599870 0.291849
C45   C     C_R   0.249846 0.569444 0.012644 -0.141615
C46   C     C_R   0.635141 0.350829 0.294470 -0.259595
C47   C     C_R   0.708880 0.401300 0.303496 0.106974
C48   C     C_R   0.721163 0.424451 0.377317 -0.232094
C49   C     C_R   0.636524 0.592287 0.057635 0.128926
C50   C     C_R   0.323408 0.568472 0.100499 0.128170
C51   C     C_R   0.402424 0.537959 0.163014 -0.218245
C52   C     C_R   0.021859 0.752509 0.173802 -0.119109
C53   C     C_R   0.326780 0.529713 0.149664 -0.172970
C54   C     C_R   0.390836 0.625803 0.075444 -0.275899
C55   C     C_R   0.468978 0.629339 0.083380 0.185580
C56   C     C_R   0.921677 0.261990 0.833877 -0.206460
C57   C     C_R   0.476180 0.581578 0.124035 0.185549
C58   C     C_R   0.559673 0.567531 0.114627 -0.269075
C59   C     C_R   0.627898 0.649768 0.026851 -0.164552
C60   C     C_R   0.543798 0.669649 0.041153 -0.218806
C61   C     C_R   0.832211 0.180024 0.144251 0.117814
C62   C     C_R   0.963779 0.862453 0.992944 0.126657
C63   C     C_R   0.890312 0.948708 0.965126 -0.221033
C64   C     C_R   0.842543 0.487347 0.240319 -0.131325
C65   C     C_R   0.929604 0.868067 0.941587 -0.172527
C66   C     C_R   0.960791 0.940333 0.067016 -0.273092
C67   C     C_R   0.172846 0.449435 0.751695 -0.129680
C68   C     C_R   0.920326 0.021262 0.091763 0.188288
C69   C     C_R   0.883649 0.025074 0.040950 0.187809
C70   C     C_R   0.839413 0.104711 0.067935 -0.283615
C71   C     C_R   0.869284 0.176763 0.193941 -0.153252
C72   C     C_R   0.913236 0.097761 0.168010 -0.226550
C73   C     C_R   0.963553 0.689974 0.933474 -0.135207
C74   C     C_R   0.991750 0.773892 0.976253 0.062091
C75   C     C_3   0.978561 0.405025 0.724580 -1.078336
C76   C     C_2   0.731807 0.838188 0.584126 0.997839
C77   C     C_3   0.597946 0.484511 0.682729 -1.015074
C78   C     C_R   0.051344 0.307809 0.051805 -0.127114
C79   C     C_R   0.973195 0.238919 0.975373 -0.113910
H1    H     H_    0.084361 0.806913 0.035364 0.088614
H2    H     H_    0.988068 0.213521 0.463213 0.129376
H3    H     H_    0.723340 0.370089 0.136536 0.085017
H4    H     H_    0.979764 0.086553 0.336295 0.123108
H5    H     H_    0.965267 0.926963 0.266084 0.111840
H6    H     H_    0.838285 0.773982 0.414188 0.144118
H7    H     H_    0.753093 0.990490 0.707048 0.171080
H8    H     H_    0.426044 0.468257 0.735009 0.137589
H9    H     H_    0.276962 0.339504 0.584760 0.114667
H10   H     H_    0.352330 0.271329 0.428577 0.128850
H11   H     H_    0.482922 0.267811 0.298175 0.128871
H12   H     H_    0.876969 0.217305 0.859618 0.108047
H13   H     H_    0.625933 0.329203 0.236868 0.115256
H14   H     H_    0.816069 0.602093 0.929475 0.089118
H15   H     H_    0.779239 0.460185 0.384159 0.117645
H16   H     H_    0.723983 0.470388 0.526909 0.139680
H17   H     H_    0.564513 0.527807 0.143361 0.119372
H18   H     H_    0.685746 0.674184 0.986623 0.118930
H19   H     H_    0.406666 0.502335 0.195740 0.128271
H20   H     H_    0.538715 0.708369 0.011444 0.130469
H21   H     H_    0.274464 0.487665 0.172544 0.115415
H22   H     H_    0.388045 0.659634 0.040842 0.117339
H23   H     H_    0.152948 0.405045 0.701394 0.113248
H24   H     H_    0.810195 0.108803 0.030397 0.119558
H25   H     H_    0.908366 0.650859 0.298541 0.103221
H26   H     H_    0.863413 0.235528 0.252872 0.124687
H27   H     H_    0.863154 0.950698 0.925152 0.132187
H28   H     H_    0.940753 0.096143 0.207881 0.124004
H29   H     H_    0.931447 0.809600 0.883999 0.120438
H30   H     H_    0.985594 0.937001 0.108082 0.115838
H31   H     H_    0.690803 0.455538 0.083412 0.094958
H32   H     H_    0.047585 0.807436 0.156635 0.086235
H33   H     H_    0.873509 0.501796 0.282399 0.085063
H34   H     H_    0.091788 0.321426 0.085534 0.098934
H35   H     H_    0.933108 0.674689 0.890940 0.085674
H36   H     H_    0.287903 0.620355 0.992561 0.089187
H37   H     H_    0.037403 0.391448 0.661409 0.237797
H38   H     H_    0.915404 0.395503 0.717671 0.263190
H39   H     H_    0.978935 0.477162 0.768429 0.259938
H40   H     H_    0.685671 0.766396 0.654025 0.325016
H41   H     H_    0.556769 0.548146 0.729425 0.247849
H42   H     H_    0.576369 0.435740 0.711407 0.254340
H43   H     H_    0.668543 0.500230 0.671494 0.253114
H44   H     H_    0.940956 0.188466 0.937889 0.098787
H45   H     H_    0.304514 0.543026 0.848386 0.095879
H46   H     H_    0.159338 0.468163 0.138746 0.085120
H47   H     H_    0.820887 0.130540 0.765792 0.119135
H48   H     H_    0.987763 0.258742 0.599750 0.148424
N1    N     N_R   0.036080 0.671900 0.995420 -0.037154
N2    N     N_R   0.867430 0.509300 0.948100 -0.037472
N3    N     N_R   0.003360 0.617250 0.167070 -0.041709
N4    N     N_R   0.825450 0.461270 0.995400 -0.039707
N5    N     N_R   0.045340 0.665280 0.119770 -0.040412
N6    N     N_R   0.883740 0.497640 0.167070 -0.039517
N7    N     N_R   0.987050 0.628910 0.948110 -0.038684
N8    N     N_R   0.174550 0.538730 0.004600 -0.039462
N9    N     N_R   0.954660 0.334720 0.880230 -0.051154
N10   N     N_R   0.116260 0.502360 0.832930 -0.040767
N11   N     N_R   0.012950 0.371090 0.051890 -0.042793
N12   N     N_R   0.963920 0.328100 0.004580 -0.041831
N13   N     N_R   0.165290 0.545350 0.880240 -0.041733
N14   N     N_R   0.132570 0.490700 0.051900 -0.038410
N15   N     N_R   0.996640 0.382750 0.832930 -0.054153
N16   N     N_R   0.834710 0.454650 0.119760 -0.038112
Ni1   Ni    Ni4+2 0.104370 0.604370 0.000010 0.214836
Ni2   Ni    Ni4+2 0.895630 0.395630 0.999990 0.208756
Ni3   Ni    Ni4+2 0.991920 0.505780 0.891500 0.214164
Ni4   Ni    Ni4+2 0.008080 0.494220 0.108500 0.210171
O1    O     O_2   0.695088 0.790589 0.537888 -0.647406
O2    O     O_R   0.722672 0.820851 0.651377 -0.812277

loop_
_geom_bond_atom_site_label_1
_geom_bond_atom_site_label_2
_ccdc_geom_bond_type
C61   C70   A    
N5    Ni1   S    
C66   C68   A    
C63   C65   A    
H40   O2    S    
C6    C45   A    
C27   C29   A    
C41   C42   A    
N15   Ni3   S    
C54   H22   S    
C79   N12   A    
C35   C36   A    
C3    N14   A    
C1    N1    A    
C60   H20   S    
C4    N16   A    
C5    N15   A    
C39   C41   A    
C7    C11   S    
C26   C27   A    
C50   C54   A    
C48   H15   S    
C1    C74   A    
C44   C77   S    
C22   C29   A    
C30   C31   A    
C12   C64   A    
C64   H33   S    
C46   H13   S    
C10   C17   A    
C23   C40   A    
C32   H9    S    
C18   H2    S    
N16   Ni2   S    
C18   C19   A    
C9    C79   A    
C14   C18   A    
C58   H17   S    
C77   H43   S    
C54   C55   A    
C56   H12   S    
C63   C69   A    
C68   C69   A    
C75   H38   S    
C43   H16   S    
C51   C57   A    
C4    C12   A    
C65   H29   S    
C29   H6    S    
N9    Ni2   S    
C55   C60   A    
C61   C71   A    
C51   H19   S    
C28   C34   A    
C59   C60   A    
C53   H21   S    
C13   C14   A    
C75   H39   S    
C7    C56   A    
C12   C47   S    
C19   H4    S    
C78   N11   A    
C56   N9    A    
C27   C34   S    
N7    Ni3   S    
N10   N13   A    
N6    N16   A    
C50   C53   A    
C45   N8    A    
C62   C66   A    
C52   N5    A    
N10   Ni3   S    
C24   C25   A    
N11   N12   A    
C37   H10   S    
C5    C7    A    
N14   Ni4   S    
C70   H24   S    
C24   C76   S    
C40   H31   S    
C52   H32   S    
C79   H44   S    
C33   C37   A    
C49   C58   A    
C51   C53   A    
C5    C75   S    
N3    N5    A    
C43   C44   A    
C37   C38   A    
N1    N7    A    
C28   H25   S    
C47   C48   A    
C72   H28   S    
N8    N14   A    
N11   Ni4   S    
C68   C72   A    
C20   C21   A    
C16   H14   S    
C42   C48   A    
C6    C50   S    
C63   H27   S    
C16   N2    A    
N1    Ni1   S    
N2    Ni3   S    
N9    N15   A    
C39   C46   A    
N6    Ni4   S    
N8    Ni1   S    
C40   N4    A    
C16   C23   A    
C71   H26   S    
C59   H18   S    
C22   C24   A    
C36   C44   A    
C78   H34   S    
C42   C43   A    
C73   C74   A    
C64   N6    A    
C15   C17   A    
C46   C47   A    
N12   Ni2   S    
C26   H5    S    
C62   C65   A    
N3    Ni4   S    
C14   C15   A    
C8    C31   S    
C31   C32   A    
C2    C8    A    
N13   Ni1   S    
C45   H36   S    
C3    H46   S    
C2    H45   S    
C23   C49   S    
C38   H11   S    
C34   C52   A    
C49   C59   A    
C30   C36   A    
C17   C25   A    
C32   C33   A    
C19   C20   A    
C55   C57   A    
C2    N13   A    
C71   C72   A    
C10   H47   S    
C11   C13   A    
C57   C58   A    
C38   C39   A    
C20   C26   A    
C76   O2    S    
C25   H7    S    
C33   C35   A    
N4    Ni2   S    
C28   N3    A    
C9    C78   A    
C66   H30   S    
C69   C70   A    
C35   C41   A    
C77   H42   S    
C10   C11   A    
C73   H35   S    
C13   H48   S    
C15   C21   A    
C4    H3    S    
C73   N7    A    
C76   O1    D    
C8    C67   A    
C3    C6    A    
C1    H1    S    
C77   H41   S    
C62   C74   S    
C75   H37   S    
C30   H8    S    
C21   C22   A    
C67   N10   A    
C67   H23   S    
N2    N4    A    
