data_mof_unit_47792.cif
_audit_creation_date              2013-03-05T16:33:11-0500
_audit_creation_method            fapswitch 2.2
_symmetry_space_group_name_H-M    P1
_symmetry_Int_Tables_number       1
_space_group_crystal_system       triclinic
_cell_length_a                    27.739977
_cell_length_b                    10.88324
_cell_length_c                    9.585681
_cell_angle_alpha                 89.436481
_cell_angle_beta                  91.367342
_cell_angle_gamma                 91.214915
_cell_volume                      2892.32461319

loop_
_atom_site_label
_atom_site_type_symbol
_atom_site_description
_atom_site_fract_x
_atom_site_fract_y
_atom_site_fract_z
_atom_type_partial_charge
O1    O     O_R   0.500000 0.319640 0.618810 -0.581985
O2    O     O_R   0.500010 0.319680 0.381230 -0.575761
C1    C     C_R   0.500761 0.263183 0.500758 0.852605
O3    O     O_R   0.430260 0.500000 0.618780 -0.593680
O4    O     O_R   0.430270 0.500040 0.381190 -0.538977
C2    C     C_R   0.407473 0.501334 0.498519 0.821130
Cu1   Cu    Cu3+1 0.500000 0.499980 0.640670 1.021269
Cu2   Cu    Cu3+1 0.500000 0.500020 0.359330 1.039605
O5    O     O_R   0.499990 0.680320 0.618770 -0.583600
O6    O     O_R   0.500000 0.680360 0.381190 -0.560963
O7    O     O_R   0.569730 0.499960 0.618810 -0.528594
O8    O     O_R   0.569740 0.500000 0.381220 -0.587519
C3    C     C_R   0.499713 0.737429 0.498325 0.817571
C4    C     C_R   0.592215 0.500844 0.501395 0.924679
C5    C     C_R   0.176965 0.427083 0.578911 0.568639
O9    O     O_2   0.201942 0.356937 0.670998 -0.524765
N1    N     N_R   0.201017 0.501710 0.486627 -0.465005
C6    C     C_R   0.176303 0.568480 0.387415 0.559582
C7    C     C_R   0.278943 0.535971 0.611758 -0.084070
C8    C     C_R   0.329259 0.534334 0.615132 -0.212074
C9    C     C_R   0.328300 0.476386 0.371583 -0.166765
C10   C     C_R   0.278081 0.474811 0.369394 -0.097718
C11   C     C_R   0.252973 0.504900 0.489213 0.327604
C12   C     C_R   0.100405 0.491120 0.477458 -0.041550
C13   C     C_R   0.126314 0.421518 0.576907 -0.068680
C14   C     C_R   0.101323 0.341118 0.665158 -0.138383
C15   C     C_R   0.125731 0.561079 0.378266 -0.028866
C16   C     C_R   0.354389 0.504059 0.495039 -0.042442
H1    H     H_    0.346506 0.454478 0.276864 0.204743
H2    H     H_    0.258630 0.449613 0.274285 0.165204
H3    H     H_    0.120810 0.277459 0.732067 0.219245
C17   C     C_R   0.644892 0.505049 0.504558 -0.202075
C18   C     C_R   0.974032 0.438087 0.593190 0.057643
C19   C     C_R   0.973148 0.570770 0.383654 0.051880
C20   C     C_R   0.948408 0.508876 0.491953 0.083399
C21   C     C_R   0.949241 0.398152 0.712657 -0.149451
C22   C     C_R   0.899512 0.406356 0.720072 -0.103646
C23   C     C_R   0.873152 0.463300 0.612681 -0.027888
C24   C     C_R   0.897703 0.521158 0.502146 -0.044886
C25   C     C_R   0.871601 0.592335 0.403323 -0.103464
C26   C     C_R   0.820680 0.584082 0.403669 0.683463
N2    N     N_R   0.797664 0.522883 0.509078 -0.443070
C27   C     C_R   0.822764 0.466928 0.615266 0.600890
C28   C     C_R   0.721414 0.407437 0.462839 -0.081233
C29   C     C_R   0.670568 0.402466 0.461319 0.160554
C30   C     C_R   0.669429 0.612767 0.548620 0.160846
C31   C     C_R   0.719938 0.617733 0.550825 0.319532
C32   C     C_R   0.745861 0.516032 0.506996 0.110617
O10   O     O_2   0.798870 0.412992 0.721350 -0.478521
C33   C     C_R   0.024306 0.420788 0.579635 -0.010965
C34   C     C_R   0.049281 0.489833 0.476279 0.039463
C35   C     C_R   0.023686 0.555411 0.370014 0.011576
C36   C     C_R   0.051105 0.335129 0.662204 0.227728
H4    H     H_    0.881923 0.369584 0.811640 0.208988
H5    H     H_    0.967963 0.365181 0.804863 0.202137
O11   O     O_2   0.200540 0.642219 0.297982 -0.522813
C37   C     C_R   0.100474 0.614385 0.266203 -0.168608
H6    H     H_    0.348456 0.557665 0.711303 0.176850
H7    H     H_    0.260115 0.560669 0.704752 0.163918
H8    H     H_    0.120262 0.656291 0.181269 0.216809
C38   C     C_R   0.947548 0.657978 0.303137 -0.164572
C39   C     C_R   0.897534 0.668192 0.309169 -0.027682
O12   O     O_2   0.794184 0.632017 0.297490 -0.454610
C40   C     C_R   0.050226 0.602230 0.254222 -0.053293
H9    H     H_    0.966530 0.724999 0.240048 0.168349
C41   C     C_R   0.496014 0.060119 0.618927 0.107345
C42   C     C_R   0.502611 0.131258 0.500232 -0.082573
C43   C     C_R   0.509935 0.069933 0.374622 -0.186045
H10   H     H_    0.516446 0.122149 0.279892 0.217417
C44   C     C_R   0.507323 0.941290 0.367798 -0.010330
C45   C     C_R   0.500082 0.870784 0.492949 -0.146675
C46   C     C_R   0.494835 0.936233 0.615115 0.073987
C47   C     C_3   0.485028 0.922921 0.766818 -0.208830
C48   C     C_3   0.485913 0.064844 0.770869 -0.435302
H11   H     H_    0.515498 0.879908 0.824985 0.146940
H12   H     H_    0.450564 0.106856 0.790808 0.224986
H13   H     H_    0.516924 0.104038 0.832449 0.238557
C49   C     C_R   0.525744 0.587647 0.075111 0.251607
N3    N     N_R   0.500300 0.500930 0.147930 -0.211074
C50   C     C_R   0.473218 0.415302 0.070345 0.070418
C51   C     C_R   0.472619 0.418597 0.922466 -0.044648
H14   H     H_    0.451257 0.351774 0.863500 0.148412
N4    N     N_R   0.500310 0.500890 0.852020 -0.179501
C52   C     C_R   0.527331 0.584084 0.928196 0.197429
C53   C     C_3   0.581372 0.598496 0.933122 0.054603
C54   C     C_3   0.578741 0.610376 0.089822 -0.495889
H15   H     H_    0.594393 0.684005 0.880877 0.175441
H16   H     H_    0.597768 0.536646 0.148083 0.265054
H17   H     H_    0.587905 0.704096 0.127727 0.210895
Br1   Br    Br    0.633824 0.755747 0.598528 -0.412107
C55   C     C_2   0.875299 0.767793 0.224545 0.944907
O13   O     O_2   0.846621 0.836575 0.276849 -0.505036
O14   O     O_R   0.889308 0.786981 0.086731 -0.726337
H18   H     H_    0.872368 0.858736 0.040222 0.363530
Br2   Br    Br    0.754336 0.762835 0.615370 -0.269547
C56   C     C_2   0.028475 0.619095 0.112112 0.847757
O15   O     O_2   0.044502 0.698395 0.033513 -0.555621
O16   O     O_R   0.990582 0.541462 0.066557 -0.734077
H19   H     H_    0.978882 0.561942 0.968216 0.347010
C57   C     C_2   0.511087 0.889813 0.226592 0.867910
O17   O     O_2   0.477915 0.827872 0.176082 -0.557704
O18   O     O_R   0.550717 0.923244 0.146208 -0.725474
H20   H     H_    0.548545 0.887717 0.049033 0.317002
C58   C     C_2   0.436418 0.864417 0.793707 0.918358
O19   O     O_2   0.433139 0.780380 0.878691 -0.568915
O20   O     O_R   0.395359 0.904961 0.720867 -0.752045
H21   H     H_    0.365097 0.857290 0.747451 0.338526
C59   C     C_2   0.447655 0.308205 0.131968 0.847260
O21   O     O_2   0.416905 0.321112 0.218833 -0.590118
O22   O     O_R   0.456227 0.191025 0.080595 -0.796313
H22   H     H_    0.435743 0.124563 0.126539 0.344257
Br3   Br    Br    0.616139 0.449999 0.889502 -0.357743
Br4   Br    Br    0.635495 0.257909 0.395454 -0.357687
C60   C     C_2   0.749408 0.300380 0.418326 0.975078
O23   O     O_2   0.739245 0.197203 0.461555 -0.471989
O24   O     O_R   0.788082 0.317852 0.328858 -0.740339
H23   H     H_    0.804704 0.238352 0.307548 0.359256
Br5   Br    Br    0.024279 0.186712 0.743722 -0.440365

loop_
_geom_bond_atom_site_label_1
_geom_bond_atom_site_label_2
_geom_bond_distance
_ccdc_geom_bond_type
Cu1   N4    2.025868 S    
C26   N2    1.368092 A    
O14   H18   1.013975 S    
C47   C48   1.545112 S    
C20   C24   1.421490 A    
C7    C8    1.395835 A    
C12   C15   1.404394 A    
C53   Br3   1.953318 S    
C58   O20   1.398842 S    
C60   O23   1.222745 D    
Cu1   Cu2   2.696830 S    
C53   C54   1.512530 S    
C59   O21   1.217365 D    
Cu1   O7    1.950595 S    
N1    C11   1.440576 S    
C48   H12   1.112112 S    
C21   C22   1.387824 A    
C23   C24   1.409292 A    
C50   C51   1.417329 A    
O7    C4    1.299581 A    
C54   H16   1.108792 S    
C5    C13   1.404771 A    
O20   H21   1.013882 S    
C5    O9    1.349832 S    
C41   C48   1.491319 S    
C18   C21   1.410094 A    
C25   C39   1.415902 A    
O24   H23   1.013808 S    
Cu1   O5    1.971828 S    
C19   C20   1.415295 A    
C17   C29   1.407990 A    
O5    C3    1.305756 A    
O22   H22   1.014041 S    
C47   C58   1.505682 S    
C2    C16   1.473065 S    
N4    C52   1.368547 A    
C43   H10   1.083252 S    
C48   H13   1.111577 S    
C56   O16   1.398984 S    
Cu2   N3    2.026556 S    
C44   C45   1.433586 A    
C6    O11   1.349850 S    
C49   C54   1.489190 S    
C12   C34   1.417730 A    
C41   C42   1.383492 A    
C28   C60   1.485459 S    
C14   H3    1.083583 S    
C9    C10   1.392470 A    
C39   C55   1.483447 S    
C47   H11   1.110692 S    
C38   C39   1.396790 A    
O3    Cu1   1.940955 S    
C58   O19   1.222185 D    
C51   N4    1.353458 A    
C44   C57   1.476830 S    
C51   H14   1.083220 S    
C53   H15   1.110179 S    
C41   C46   1.348811 A    
C33   C36   1.426514 A    
C42   C43   1.403465 A    
C12   C13   1.405456 A    
C40   C56   1.487931 S    
O3    C2    1.301516 A    
C15   C37   1.396584 A    
C55   O13   1.223220 D    
C36   Br5   1.930129 S    
C27   O10   1.349770 S    
C37   H8    1.084249 S    
C3    C45   1.451571 S    
C7    H7    1.082845 S    
C18   C33   1.420406 A    
C9    H1    1.080519 S    
C54   H17   1.108555 S    
C19   C38   1.410247 A    
C34   C35   1.422577 A    
O1    C1    1.293787 A    
C7    C11   1.403675 A    
C22   C23   1.396124 A    
C29   Br4   1.935366 S    
C55   O14   1.398349 S    
C31   C32   1.405719 A    
Cu2   O8    1.940950 S    
C56   O15   1.223550 D    
C57   O18   1.397337 S    
N1    C6    1.370729 A    
C33   C34   1.422037 A    
N2    C32   1.437059 S    
C52   C53   1.503638 S    
C22   H4    1.083458 S    
Cu2   O6    1.975885 S    
C25   C26   1.413590 A    
C9    C16   1.404209 A    
O8    C4    1.296719 A    
C35   C40   1.430249 A    
N2    C27   1.365159 A    
C26   O12   1.348488 S    
C8    H6    1.083211 S    
C14   C36   1.392803 A    
C24   C25   1.413601 A    
C28   C29   1.410071 A    
C37   C40   1.399426 A    
C5    N1    1.370531 A    
C30   C31   1.400653 A    
C10   H2    1.082901 S    
O1    Cu1   1.975886 S    
C17   C30   1.406485 A    
O2    Cu2   1.971831 S    
C6    C15   1.404151 A    
C4    C17   1.460616 S    
C46   C47   1.490864 S    
O6    C3    1.288760 A    
O4    Cu2   1.950598 S    
C60   O24   1.398100 S    
C30   Br1   1.930847 S    
C8    C16   1.405431 A    
C50   C59   1.477047 S    
C19   C35   1.424625 A    
O2    C1    1.294913 A    
C13   C14   1.396271 A    
C45   C46   1.388833 A    
C21   H5    1.076775 S    
C49   N3    1.363236 A    
O4    C2    1.303704 A    
C1    C42   1.437835 S    
C57   O17   1.222491 D    
C18   C20   1.419889 A    
C59   O22   1.398654 S    
O18   H20   1.012035 S    
C49   C52   1.410956 A    
N3    C50   1.393997 A    
C38   H9    1.079478 S    
C23   C27   1.399992 A    
C43   C44   1.402477 A    
O16   H19   1.013887 S    
C31   Br2   1.927245 S    
C10   C11   1.402405 A    
C28   C32   1.413517 A    
