data_mof_unit_68523.cif
_audit_creation_date              2012-12-10T19:42:31-0500
_audit_creation_method            fapswitch 2.2
_symmetry_space_group_name_H-M    P1
_symmetry_Int_Tables_number       1
_space_group_crystal_system       triclinic
_cell_length_a                    11.000629
_cell_length_b                    10.96305
_cell_length_c                    9.767035
_cell_angle_alpha                 98.941662
_cell_angle_beta                  98.708907
_cell_angle_gamma                 94.83117
_cell_volume                      1143.15331913

loop_
_atom_site_label
_atom_site_type_symbol
_atom_type_description
_atom_site_fract_x
_atom_site_fract_y
_atom_site_fract_z
_atom_type_partial_charge
C1    C     C_R   0.501161 0.261724 0.498799 0.791639
C2    C     C_R   0.498837 0.738275 0.501200 0.791636
C3    C     C_R   0.872513 0.498222 0.504291 -0.097571
C4    C     C_R   0.127489 0.501787 0.495711 -0.097568
C5    C     C_R   0.960211 0.531923 0.630694 0.025181
C6    C     C_R   0.039791 0.468091 0.369308 0.025190
C7    C     C_R   0.261205 0.052567 0.022003 -0.129283
C8    C     C_R   0.738796 0.947427 0.977983 -0.129288
C9    C     C_R   0.298277 0.034717 0.159886 -0.243312
C10   C     C_R   0.701721 0.965269 0.840099 -0.243303
C11   C     C_R   0.420034 0.071029 0.228417 0.131170
C12   C     C_R   0.579959 0.928967 0.771578 0.131174
C13   C     C_R   0.504414 0.127306 0.155764 -0.076220
C14   C     C_R   0.495580 0.872696 0.844237 -0.076227
C15   C     C_R   0.466595 0.147767 0.018497 -0.197176
C16   C     C_R   0.533402 0.852240 0.981504 -0.197167
C17   C     C_R   0.344478 0.109924 0.949809 0.219618
C18   C     C_R   0.655521 0.890080 0.050186 0.219620
C19   C     C_R   0.454242 0.913238 0.379341 -0.245573
C20   C     C_R   0.545749 0.086760 0.620656 -0.245559
C21   C     C_R   0.496838 0.872417 0.505184 -0.100569
C22   C     C_R   0.503155 0.127581 0.494814 -0.100572
C23   C     C_R   0.261673 0.500544 0.499106 0.789326
C24   C     C_R   0.738327 0.499459 0.500894 0.789328
C25   C     C_R   0.540339 0.960767 0.629500 0.018020
C26   C     C_R   0.459651 0.039231 0.370497 0.018018
C27   C     C_2   0.511782 0.510203 0.079185 -0.100048
C28   C     C_2   0.488217 0.489799 0.920815 -0.100049
C29   C     C_R   0.166545 0.511104 0.038607 -0.194849
C30   C     C_R   0.833468 0.488920 0.961404 -0.194857
C31   C     C_R   0.139283 0.533081 0.174135 -0.044674
C32   C     C_R   0.860723 0.466940 0.825873 -0.044696
C33   C     C_R   0.073194 0.440752 0.226508 0.093839
C34   C     C_R   0.926810 0.559266 0.773495 0.093841
C35   C     C_R   0.032312 0.325731 0.139016 -0.243660
C36   C     C_R   0.967699 0.674287 0.860987 -0.243667
C37   C     C_R   0.057129 0.303147 0.000502 0.345270
C38   C     C_R   0.942891 0.696874 0.999505 0.345271
C39   C     C_R   0.125720 0.397240 0.952001 -0.167215
C40   C     C_R   0.874299 0.602782 0.048010 -0.167199
C41   C     C_R   0.914058 0.465565 0.376471 -0.260464
C42   C     C_R   0.085943 0.534447 0.623530 -0.260465
Cu1   Cu    Cu3+1 0.521120 0.521140 0.639640 0.938879
Cu2   Cu    Cu3+1 0.478880 0.478860 0.360360 0.938879
H1    H     H_    0.148688 0.384339 0.847712 0.119967
H2    H     H_    0.851336 0.615682 0.152300 0.119960
H3    H     H_    0.598963 0.157706 0.205481 0.129371
H4    H     H_    0.401028 0.842298 0.794524 0.129363
H5    H     H_    0.532581 0.194154 0.966558 0.125161
H6    H     H_    0.467416 0.805857 0.033448 0.125161
H7    H     H_    0.418753 0.845971 0.285047 0.149576
H8    H     H_    0.581241 0.154026 0.714951 0.149574
H9    H     H_    0.414693 0.419822 0.864308 0.153680
H10   H     H_    0.585305 0.580180 0.135692 0.153680
H11   H     H_    0.622119 0.618673 0.905798 0.213196
H12   H     H_    0.377883 0.381326 0.094202 0.213196
H13   H     H_    0.219571 0.582625 0.000578 0.139444
H14   H     H_    0.780444 0.417399 0.999437 0.139444
H15   H     H_    0.173861 0.620426 0.241173 0.124454
H16   H     H_    0.826141 0.379595 0.758836 0.124469
H17   H     H_    0.980834 0.254027 0.178646 0.116208
H18   H     H_    0.019176 0.745989 0.821353 0.116210
H19   H     H_    0.847805 0.439402 0.279937 0.156848
H20   H     H_    0.152197 0.560610 0.720064 0.156850
H21   H     H_    0.167107 0.021891 0.972273 0.144993
H22   H     H_    0.832898 0.978099 0.027706 0.145018
H23   H     H_    0.231913 0.993011 0.214115 0.145517
H24   H     H_    0.768086 0.006959 0.785859 0.145508
N1    N     N_2   0.447120 0.447110 0.150550 -0.280741
N2    N     N_2   0.552880 0.552890 0.849450 -0.280741
O1    O     O_R   0.517830 0.337490 0.617920 -0.592239
O2    O     O_R   0.482170 0.662510 0.382080 -0.592241
O3    O     O_R   0.482150 0.301790 0.382070 -0.570331
O4    O     O_R   0.517850 0.698210 0.617930 -0.570330
O5    O     O_R   0.337480 0.517860 0.617920 -0.587849
O6    O     O_R   0.662520 0.482140 0.382080 -0.587848
O7    O     O_R   0.301810 0.482160 0.382070 -0.571483
O8    O     O_R   0.698190 0.517840 0.617930 -0.571484
N3    N     N_2   0.021165 0.183138 0.916511 -0.450461
H25   H     H_    0.980160 0.118430 0.966165 0.229449
C43   C     C_3   0.965070 0.173850 0.770699 -0.745051
H26   H     H_    0.867068 0.191381 0.764016 0.215081
H27   H     H_    0.967039 0.077970 0.715014 0.228344
H28   H     H_    0.014626 0.237942 0.715379 0.238198
N4    N     N_2   0.978858 0.816886 0.083488 -0.450462
H29   H     H_    0.019885 0.881589 0.033841 0.229433
C44   C     C_3   0.034889 0.826198 0.229330 -0.744976
H30   H     H_    0.032937 0.922098 0.284977 0.228320
H31   H     H_    0.132888 0.808630 0.236083 0.215074
H32   H     H_    0.985270 0.762150 0.284647 0.238182
C45   C     C_3   0.300777 0.142045 0.806682 -0.411727
C46   C     C_3   0.237485 0.031609 0.696144 -0.820106
H33   H     H_    0.304279 0.967294 0.665938 0.250228
H34   H     H_    0.161766 0.979843 0.733726 0.240671
H35   H     H_    0.197166 0.066118 0.600036 0.238506
H36   H     H_    0.234141 0.210374 0.818607 0.218617
H37   H     H_    0.377994 0.188215 0.766236 0.200145
C47   C     C_3   0.699223 0.857967 0.193316 -0.411722
C48   C     C_3   0.762513 0.968409 0.303849 -0.820108
H38   H     H_    0.838209 0.020198 0.266250 0.240666
H39   H     H_    0.695708 0.032705 0.334075 0.250232
H40   H     H_    0.802862 0.933904 0.399948 0.238498
H41   H     H_    0.622009 0.811797 0.233766 0.200145
H42   H     H_    0.765860 0.789639 0.181393 0.218595

loop_
_geom_bond_atom_site_label_1
_geom_bond_atom_site_label_2
_ccdc_geom_bond_type
C38   C40   A    
C5    C42   A    
C8    H22   S    
C17   C45   S    
C44   H30   S    
C43   H26   S    
C27   H10   S    
N4    H29   S    
Cu1   O8    S    
C40   H2    S    
C37   N3    S    
C1    O1    A    
Cu2   O7    S    
C19   C21   A    
C16   H6    S    
C36   H18   S    
C20   C25   A    
C47   H41   S    
C7    C9    A    
C31   H15   S    
Cu2   O6    S    
C19   C26   A    
C45   H36   S    
C7    C17   A    
C6    C41   A    
C31   C33   A    
C2    O4    A    
C39   H1    S    
Cu1   O4    S    
C1    C22   S    
C3    C24   S    
C2    O2    A    
C43   H27   S    
N4    C44   S    
Cu1   O5    S    
C29   H13   S    
C38   N4    S    
C4    C6    A    
C23   O5    A    
C45   C46   S    
N3    C43   S    
C4    C23   S    
C24   O6    A    
C14   H4    S    
C11   C26   S    
C46   H35   S    
C8    C18   A    
C32   C34   A    
Cu1   Cu2   S    
C9    H23   S    
C7    H21   S    
C48   H38   S    
C29   C31   A    
C5    C34   S    
C29   C39   A    
C2    C21   S    
C46   H34   S    
C30   C40   A    
Cu2   N1    S    
C35   H17   S    
C16   C18   A    
C23   O7    A    
C9    C11   A    
C10   C12   A    
C24   O8    A    
C48   H39   S    
C12   C14   A    
H12   N1    S    
Cu1   N2    S    
C13   C15   A    
C14   C16   A    
C32   H16   S    
C42   H20   S    
C43   H28   S    
C13   H3    S    
C15   C17   A    
C21   C25   A    
C3    C41   A    
Cu1   O1    S    
C35   C37   A    
C28   N2    D    
C20   C22   A    
C3    C5    A    
C27   N1    D    
C28   H9    S    
C10   H24   S    
C6    C33   S    
C12   C25   S    
C20   H8    S    
C1    O3    A    
C36   C38   A    
C45   H37   S    
C37   C39   A    
C30   C32   A    
C11   C13   A    
C4    C42   A    
C47   H42   S    
C30   H14   S    
C46   H33   S    
C33   C35   A    
Cu2   O2    S    
C34   C36   A    
C15   H5    S    
Cu2   O3    S    
H11   N2    S    
N3    H25   S    
C19   H7    S    
C48   H40   S    
C8    C10   A    
C47   C48   S    
C22   C26   A    
C44   H32   S    
C27   C28   S    
C44   H31   S    
C41   H19   S    
C18   C47   S    
