data_mof_unit_11156.cif
_audit_creation_date              2012-12-10T18:47:46-0500
_audit_creation_method            fapswitch 2.2
_symmetry_space_group_name_H-M    P1
_symmetry_Int_Tables_number       1
_space_group_crystal_system       triclinic
_cell_length_a                    10.064916
_cell_length_b                    10.612625
_cell_length_c                    15.577357
_cell_angle_alpha                 93.207853
_cell_angle_beta                  68.674186
_cell_angle_gamma                 89.824272
_cell_volume                      1547.04762745

loop_
_atom_site_label
_atom_site_type_symbol
_atom_type_description
_atom_site_fract_x
_atom_site_fract_y
_atom_site_fract_z
_atom_type_partial_charge
C1    C     C_R   0.505247 0.739032 0.490412 0.933546
C2    C     C_R   0.493087 0.262190 0.512208 0.938420
C3    C     C_R   0.337362 0.471149 0.100564 -0.254599
C4    C     C_R   0.666478 0.409182 0.897083 -0.254182
C5    C     C_R   0.235925 0.455728 0.060106 0.180968
C6    C     C_R   0.762330 0.382734 0.940023 0.171557
C7    C     C_R   0.627130 0.939104 0.488784 0.160868
C8    C     C_R   0.365487 0.064171 0.522481 0.159787
C9    C     C_R   0.607461 0.063297 0.523058 0.161202
C10   C     C_R   0.384040 0.939534 0.488932 0.159470
C11   C     C_R   0.483885 0.129087 0.527727 -0.277504
C12   C     C_R   0.509848 0.873920 0.481481 -0.279161
C13   C     C_R   0.961728 0.418079 0.441869 0.168098
C14   C     C_R   0.037331 0.578903 0.560536 0.169219
C15   C     C_R   0.105028 0.419424 0.440634 0.184196
C16   C     C_R   0.894998 0.580208 0.559751 0.178280
C17   C     C_R   0.410692 0.499926 0.675012 0.873915
C18   C     C_R   0.589492 0.498276 0.324964 0.867707
C19   C     C_R   0.359315 0.492269 0.774972 -0.053159
C20   C     C_R   0.643222 0.481178 0.224503 -0.048142
C21   C     C_R   0.172302 0.479636 0.924411 -0.167097
C22   C     C_R   0.813481 0.386059 0.082056 -0.198735
C23   C     C_R   0.214193 0.490777 0.829499 -0.175964
C24   C     C_R   0.772483 0.417887 0.176262 -0.169758
C25   C     C_R   0.461100 0.483089 0.815761 -0.210716
C26   C     C_R   0.553374 0.509942 0.178487 -0.214604
C27   C     C_R   0.421824 0.467752 0.909518 0.059736
C28   C     C_R   0.586389 0.467002 0.086375 0.076307
C29   C     C_R   0.275239 0.468102 0.965114 0.126741
C30   C     C_R   0.722785 0.412928 0.035319 0.120752
C31   C     C_R   0.525522 0.451881 0.949419 0.038219
C32   C     C_R   0.483201 0.470008 0.045893 0.036100
H1    H     H_    0.455248 0.562715 0.216150 0.166790
H2    H     H_    0.572205 0.491696 0.774065 0.182769
H3    H     H_    0.837897 0.388787 0.212740 0.187006
H4    H     H_    0.133857 0.500035 0.799176 0.176614
H5    H     H_    0.060100 0.484781 0.966007 0.174491
H6    H     H_    0.912495 0.334987 0.046517 0.195476
H7    H     H_    0.301675 0.462841 0.174323 0.174053
H8    H     H_    0.700226 0.383025 0.824139 0.164978
N1    N     N_R   0.142780 0.500030 0.500020 -0.142762
N2    N     N_R   0.857220 0.499970 0.499980 -0.141251
O1    O     O_R   0.385370 0.683250 0.500010 -0.574820
O2    O     O_R   0.614630 0.316750 0.499990 -0.571756
O3    O     O_R   0.614700 0.683220 0.500000 -0.572992
O4    O     O_R   0.385300 0.316780 0.500000 -0.572120
O5    O     O_R   0.319830 0.500020 0.632250 -0.601722
O6    O     O_R   0.680170 0.499980 0.367750 -0.602552
O7    O     O_R   0.549160 0.499990 0.632240 -0.605422
O8    O     O_R   0.450840 0.500010 0.367760 -0.596385
Zn1   Zn    Zn3+2 0.346870 0.500020 0.500000 1.033131
Zn2   Zn    Zn3+2 0.653130 0.499980 0.500000 1.030601
N3    N     N_2   0.104837 0.402271 0.111892 -0.333779
H9    H     H_    0.065392 0.438441 0.179478 0.246084
C33   C     C_3   0.114679 0.265240 0.105839 -0.750292
H10   H     H_    0.009253 0.225454 0.143678 0.252096
H11   H     H_    0.191482 0.232172 0.136590 0.275159
H12   H     H_    0.149494 0.228170 0.032629 0.248605
N4    N     N_2   0.898194 0.326807 0.886508 -0.335206
H13   H     H_    0.940016 0.357786 0.820563 0.241941
C34   C     C_3   0.902931 0.190447 0.885419 -0.712983
H14   H     H_    0.014147 0.155278 0.847523 0.256266
H15   H     H_    0.833399 0.149641 0.850038 0.263235
H16   H     H_    0.867490 0.158251 0.956777 0.240695
I1    I     I_    0.842154 0.868312 0.422267 -0.188482
I2    I     I_    0.152146 0.140376 0.587591 -0.226197
I3    I     I_    0.743083 0.136487 0.591918 -0.216254
I4    I     I_    0.241152 0.867450 0.425123 -0.192999
I5    I     I_    0.908906 0.281497 0.355232 -0.289706
I6    I     I_    0.085341 0.699310 0.659377 -0.247212
I7    I     I_    0.260811 0.291437 0.345062 -0.259463
I8    I     I_    0.740236 0.709043 0.654965 -0.237098

loop_
_geom_bond_atom_site_label_1
_geom_bond_atom_site_label_2
_ccdc_geom_bond_type
C34   H16   S    
C19   C23   A    
C33   H10   S    
C9    I3    S    
C8    I2    S    
C14   C16   A    
C10   I4    S    
C27   C29   A    
C15   I7    S    
C26   H1    S    
C26   C28   A    
C31   C32   A    
C16   I8    S    
C13   C15   A    
C28   C32   A    
C25   H2    S    
C3    C5    A    
O7    Zn2   S    
C1    O3    A    
O2    Zn2   S    
C28   C30   A    
O8    Zn1   S    
C3    H7    S    
N4    H13   S    
C8    C10   A    
N3    H9    S    
C2    O4    A    
C9    C11   A    
O1    Zn1   S    
C14   I6    S    
C1    C12   S    
C13   I5    S    
C8    C11   A    
C6    N4    S    
C2    C11   S    
C10   C12   A    
C15   N1    A    
C5    N3    S    
C13   N2    A    
C17   C19   S    
N1    Zn1   S    
C5    C29   A    
C33   H11   S    
C21   C23   A    
C3    C32   A    
C19   C25   A    
C14   N1    A    
C22   C24   A    
C7    C12   A    
N4    C34   S    
C4    C31   A    
C7    I1    S    
C34   H14   S    
N3    C33   S    
C27   C31   A    
C22   H6    S    
C20   C24   A    
O6    Zn2   S    
C21   H5    S    
C2    O2    A    
C18   O8    A    
C18   C20   S    
C4    C6    A    
C23   H4    S    
C33   H12   S    
C17   O7    A    
C7    C9    A    
O5    Zn1   S    
C22   C30   A    
O3    Zn2   S    
C6    C30   A    
C24   H3    S    
C16   N2    A    
C21   C29   A    
O4    Zn1   S    
C1    O1    A    
C34   H15   S    
C4    H8    S    
C17   O5    A    
N2    Zn2   S    
C20   C26   A    
C25   C27   A    
C18   O6    A    
