data_mof_unit_54037.cif
_audit_creation_date              2012-10-26T20:22:30-0400
_audit_creation_method            fapswitch 2.2
_symmetry_space_group_name_H-M    P1
_symmetry_Int_Tables_number       1
_space_group_crystal_system       triclinic
_cell_length_a                    9.634653
_cell_length_b                    10.768357
_cell_length_c                    17.273375
_cell_angle_alpha                 91.195733
_cell_angle_beta                  86.847046
_cell_angle_gamma                 90.855712
_cell_volume                      1788.82895431

loop_
_atom_site_label
_atom_site_type_symbol
_atom_type_description
_atom_site_fract_x
_atom_site_fract_y
_atom_site_fract_z
_atom_type_partial_charge
C1    C     C_R   0.500878 0.737251 0.500365 0.642738
C2    C     C_R   0.074136 0.410377 0.459786 0.173081
C3    C     C_R   0.073218 0.586880 0.541892 0.234166
C4    C     C_R   0.926773 0.413119 0.458121 0.234507
C5    C     C_R   0.482106 0.502342 0.649978 0.628750
C6    C     C_R   0.517894 0.497629 0.349980 0.634714
C7    C     C_R   0.470566 0.510916 0.735298 0.047090
C8    C     C_R   0.529207 0.488389 0.264572 0.061137
C9    C     C_R   0.556509 0.595046 0.774733 0.212816
C10   C     C_R   0.441033 0.405339 0.225711 0.216834
C11   C     C_R   0.544790 0.602772 0.856642 0.086797
C12   C     C_R   0.499128 0.262744 0.499596 0.642020
C13   C     C_R   0.450646 0.397735 0.143880 0.065764
C14   C     C_R   0.446856 0.527639 0.897643 0.031431
C15   C     C_R   0.549475 0.470975 0.102549 0.088455
C16   C     C_R   0.355314 0.448355 0.857875 0.211096
C17   C     C_R   0.643846 0.547596 0.140634 0.214056
C18   C     C_R   0.367681 0.440716 0.776751 0.081862
C19   C     C_R   0.633229 0.557100 0.222586 0.027585
C20   C     C_2   0.447065 0.528436 0.983042 0.311370
C21   C     C_2   0.550265 0.471484 0.017208 0.387372
C22   C     C_R   0.572296 0.933950 0.439312 0.017011
C23   C     C_R   0.427723 0.066023 0.560619 0.017296
C24   C     C_R   0.569633 0.064614 0.438270 0.199247
C25   C     C_R   0.430378 0.935367 0.561660 0.199584
C26   C     C_R   0.497623 0.128508 0.499207 0.057166
C27   C     C_R   0.502387 0.871476 0.500728 0.056711
C28   C     C_R   0.925820 0.589520 0.540326 0.173452
Cu1   Cu    Cu3+1 0.359340 0.499980 0.500000 1.037803
Cu2   Cu    Cu3+1 0.640660 0.500020 0.500000 1.039941
H1    H     H_    0.702096 0.724498 0.764788 0.330046
H2    H     H_    0.807872 0.657302 0.128205 0.330650
H3    H     H_    0.378673 0.224505 0.116976 0.241025
H4    H     H_    0.258332 0.339415 0.114790 0.251311
H5    H     H_    0.735226 0.664387 0.887008 0.262818
H6    H     H_    0.612806 0.777310 0.883564 0.233858
H7    H     H_    0.596257 0.883490 0.325686 0.236901
H8    H     H_    0.746269 0.886891 0.374213 0.233579
H9    H     H_    0.403858 0.116406 0.674242 0.237811
H10   H     H_    0.253801 0.113090 0.625750 0.235199
H11   H     H_    0.682840 0.078696 0.340593 0.325839
H12   H     H_    0.293755 0.277505 0.236493 0.331566
H13   H     H_    0.317127 0.921275 0.659326 0.327457
H14   H     H_    0.837722 0.758045 0.536895 0.248292
H15   H     H_    0.768154 0.663630 0.607775 0.331844
H16   H     H_    0.161535 0.241722 0.463785 0.248077
H17   H     H_    0.232150 0.335712 0.393086 0.332299
H18   H     H_    0.106529 0.667450 0.646058 0.236613
H19   H     H_    0.122118 0.764714 0.570028 0.243533
H20   H     H_    0.893608 0.332492 0.353955 0.234769
H21   H     H_    0.877739 0.235298 0.430012 0.243679
H22   H     H_    0.826297 0.607834 0.253910 0.236883
H23   H     H_    0.716434 0.728158 0.243004 0.235595
H24   H     H_    0.283939 0.270089 0.757835 0.265775
H25   H     H_    0.174233 0.389087 0.748102 0.266745
H26   H     H_    0.720028 0.377213 0.008097 0.337790
H27   H     H_    0.278660 0.624567 0.992108 0.330980
H28   H     H_    0.254440 0.388152 0.952034 0.356409
N1    N     N_R   0.147930 0.499970 0.499980 -0.228018
N2    N     N_3   0.141111 0.306642 0.421959 -0.637609
N3    N     N_3   0.144577 0.675733 0.588506 -0.501228
N4    N     N_3   0.855425 0.324284 0.411489 -0.501663
N5    N     N_R   0.852070 0.500030 0.500020 -0.227812
N6    N     N_3   0.724207 0.638264 0.263832 -0.602407
N7    N     N_3   0.276128 0.359399 0.736073 -0.573597
N8    N     N_3   0.361942 0.316108 0.101321 -0.629265
N9    N     N_3   0.630930 0.686160 0.899639 -0.572735
N10   N     N_3   0.640628 0.862790 0.377692 -0.618202
N11   N     N_3   0.359450 0.137166 0.622258 -0.620213
N12   N     N_3   0.858743 0.692944 0.578495 -0.636313
O1    O     O_R   0.381260 0.680340 0.500000 -0.461219
O2    O     O_3   0.351184 0.330596 0.269708 -0.708901
O3    O     O_3   0.655884 0.414955 0.972553 -0.687582
O4    O     O_3   0.342811 0.586939 0.027698 -0.716222
O5    O     O_3   0.254964 0.374329 0.895323 -0.691893
O6    O     O_3   0.740954 0.613940 0.095431 -0.672778
O7    O     O_3   0.631431 0.133207 0.378448 -0.685637
O8    O     O_3   0.368592 0.866776 0.621488 -0.684204
O9    O     O_R   0.618740 0.319660 0.500000 -0.461184
O10   O     O_R   0.618830 0.680370 0.500010 -0.515303
O11   O     O_R   0.381170 0.319630 0.499990 -0.516147
O12   O     O_R   0.367440 0.500000 0.613600 -0.454320
O13   O     O_R   0.632560 0.500000 0.386400 -0.450474
O14   O     O_R   0.605010 0.500030 0.613600 -0.497718
O15   O     O_R   0.394990 0.499970 0.386400 -0.499295
O16   O     O_3   0.646031 0.670796 0.731202 -0.707257

loop_
_geom_bond_atom_site_label_1
_geom_bond_atom_site_label_2
_ccdc_geom_bond_type
H7    N10   S    
C21   O3    S    
C16   O5    S    
C23   N11   S    
H4    N8    S    
H6    N9    S    
H24   N7    S    
H13   O8    S    
C4    N5    A    
C1    O1    A    
C6    O15   A    
C3    C28   A    
C24   C26   A    
H11   O7    S    
C11   C14   A    
C2    N2    S    
C12   O9    A    
C4    N4    S    
C15   C17   A    
C23   C26   A    
Cu2   O13   S    
C17   C19   A    
H17   N2    S    
Cu1   N1    S    
H28   O5    S    
C17   O6    S    
H14   N12   S    
H26   O3    S    
Cu1   O15   S    
Cu2   O10   S    
H1    O16   S    
Cu2   N5    S    
H21   N4    S    
H25   N7    S    
C11   N9    S    
H3    N8    S    
C13   N8    S    
C3    N3    S    
C8    C19   A    
H19   N3    S    
H10   N11   S    
C25   O8    S    
C14   C20   S    
H22   N6    S    
C5    C7    S    
C5    O14   A    
C2    N1    A    
C6    C8    S    
C12   C26   S    
C18   N7    S    
H27   O4    S    
C2    C4    A    
Cu1   O11   S    
Cu1   Cu2   S    
C9    O16   S    
H5    N9    S    
C19   N6    S    
C7    C18   A    
H12   O2    S    
H9    N11   S    
C20   O4    S    
C9    C11   A    
C22   N10   S    
Cu2   O9    S    
C16   C18   A    
H8    N10   S    
C22   C27   A    
C13   C15   A    
H20   N4    S    
C22   C24   A    
C7    C9    A    
C6    O13   A    
H16   N2    S    
H15   N12   S    
C28   N12   S    
C10   C13   A    
H2    O6    S    
C25   C27   A    
Cu1   O12   S    
C5    O12   A    
H18   N3    S    
H23   N6    S    
C12   O11   A    
C14   C16   A    
C23   C25   A    
Cu2   O14   S    
C28   N5    A    
C24   O7    S    
C15   C21   S    
C20   C21   D    
C8    C10   A    
C1    C27   S    
C1    O10   A    
C10   O2    S    
Cu1   O1    S    
C3    N1    A    
