data_mof_unit_6673.cif
_audit_creation_date              2012-12-11T14:19:13-0500
_audit_creation_method            fapswitch 2.2
_symmetry_space_group_name_H-M    P1
_symmetry_Int_Tables_number       1
_space_group_crystal_system       triclinic
_cell_length_a                    19.479723
_cell_length_b                    7.240003
_cell_length_c                    17.734723
_cell_angle_alpha                 89.601914
_cell_angle_beta                  107.693611
_cell_angle_gamma                 90.445577
_cell_volume                      2382.76838762

loop_
_atom_site_label
_atom_site_type_symbol
_atom_type_description
_atom_site_fract_x
_atom_site_fract_y
_atom_site_fract_z
_atom_type_partial_charge
O1    O     O_R   0.414820 0.494320 0.416790 -0.531740
O2    O     O_R   0.585180 0.994320 0.583210 -0.532365
O3    O     O_R   0.560270 0.819500 0.430140 -0.547548
O4    O     O_R   0.439730 0.319500 0.569860 -0.551623
C1    C     C_R   0.582908 0.657193 0.416461 0.713992
C2    C     C_R   0.417715 0.154433 0.584177 0.735390
O5    O     O_R   0.413840 0.823740 0.407440 -0.528898
O6    O     O_R   0.586160 0.323740 0.592560 -0.534029
O7    O     O_R   0.437710 0.998590 0.560350 -0.509787
O8    O     O_R   0.562290 0.498590 0.439650 -0.540781
C3    C     C_R   0.388077 0.655876 0.385062 0.714382
C4    C     C_R   0.611994 0.156053 0.614823 0.701078
O9    O     O_3   0.508000 0.662290 0.550200 -0.370079
O10   O     O_3   0.492000 0.162290 0.449800 -0.382812
V1    V     V_3+5 0.498520 0.935380 0.490690 1.438074
V2    V     V_3+5 0.501480 0.435380 0.509310 1.423865
C5    C     C_2   0.780731 0.259377 0.792710 -0.212249
C6    C     C_2   0.219245 0.760016 0.207675 -0.211425
C7    C     C_2   0.815096 0.102480 0.824127 0.095140
C8    C     C_2   0.184993 0.603177 0.175681 0.095410
H1    H     H_    0.807425 0.390883 0.810929 0.112680
H2    H     H_    0.192478 0.891123 0.189986 0.111389
C9    C     C_2   0.704001 0.264618 0.740261 0.355750
C10   C     C_2   0.296006 0.766003 0.259975 0.355754
C11   C     C_2   0.682416 0.149489 0.677045 -0.327239
C12   C     C_2   0.317624 0.648764 0.322904 -0.335462
H3    H     H_    0.719929 0.050958 0.666781 0.140206
H4    H     H_    0.280017 0.548613 0.333313 0.140038
C13   C     C_R   0.321666 0.985877 0.629421 0.236994
C14   C     C_R   0.682997 0.804713 0.369899 0.233319
C15   C     C_R   0.366494 0.143322 0.631974 -0.114089
C16   C     C_R   0.634962 0.654183 0.369530 -0.136143
C17   C     C_R   0.362175 0.293295 0.680359 -0.295969
C18   C     C_R   0.637250 0.497114 0.323977 -0.263629
C19   C     C_R   0.315165 0.289398 0.726434 0.091260
C20   C     C_R   0.684189 0.488662 0.277726 0.094048
C21   C     C_R   0.270990 0.133219 0.724528 0.016782
C22   C     C_R   0.730504 0.638860 0.276936 -0.002452
C23   C     C_R   0.273933 0.980674 0.676110 0.025327
C24   C     C_R   0.730231 0.796624 0.323205 0.055453
C25   C     C_R   0.311731 0.439923 0.774662 -0.175407
C26   C     C_R   0.685181 0.332433 0.231574 -0.170534
C27   C     C_R   0.264632 0.436678 0.820500 -0.192781
C28   C     C_R   0.731703 0.324725 0.185090 -0.195868
C29   C     C_R   0.220101 0.282766 0.819026 0.089208
C30   C     C_R   0.778115 0.473124 0.183823 0.091426
C31   C     C_R   0.223382 0.130235 0.771032 0.073255
C32   C     C_R   0.777351 0.631217 0.229650 0.073312
C33   C     C_R   0.179018 0.974757 0.769484 0.091878
C34   C     C_R   0.823295 0.781907 0.228079 0.096335
C35   C     C_R   0.181515 0.825185 0.720968 -0.191795
C36   C     C_R   0.823089 0.937197 0.274497 -0.218492
C37   C     C_R   0.227999 0.828055 0.674701 -0.190617
C38   C     C_R   0.777408 0.944442 0.321631 -0.162699
C39   C     C_R   0.172633 0.278291 0.864966 -0.224127
C40   C     C_R   0.825066 0.466576 0.137374 -0.224191
C41   C     C_R   0.129025 0.121929 0.864479 -0.079255
C42   C     C_R   0.870395 0.617696 0.134860 -0.079785
C43   C     C_R   0.132666 0.971015 0.816328 -0.224901
C44   C     C_R   0.868830 0.775061 0.180257 -0.222734
H5    H     H_    0.396223 0.413718 0.682886 0.143139
H6    H     H_    0.601424 0.381451 0.323520 0.139665
H7    H     H_    0.345374 0.560872 0.776719 0.129268
H8    H     H_    0.650002 0.215701 0.231529 0.129170
H9    H     H_    0.262939 0.554938 0.857004 0.131386
H10   H     H_    0.731386 0.202407 0.150117 0.133378
H11   H     H_    0.170626 0.395211 0.902087 0.127119
H12   H     H_    0.825452 0.344927 0.102196 0.126413
H13   H     H_    0.098959 0.850326 0.814747 0.132130
H14   H     H_    0.903862 0.891597 0.179278 0.131206
H15   H     H_    0.147379 0.705117 0.718752 0.132663
H16   H     H_    0.858170 0.053947 0.274176 0.135184
H17   H     H_    0.227092 0.709055 0.637973 0.142710
H18   H     H_    0.778957 0.067806 0.356278 0.173725
O11   O     O_R   0.937810 0.773680 0.060480 -0.537202
O12   O     O_R   0.062190 0.273680 0.939520 -0.537487
O13   O     O_R   0.086190 0.439740 0.092580 -0.532562
O14   O     O_R   0.913810 0.939740 0.907420 -0.532820
C45   C     C_R   0.113353 0.606909 0.113658 0.680339
C46   C     C_R   0.886672 0.106688 0.886317 0.680944
O15   O     O_R   0.939760 0.444210 0.069890 -0.541933
O16   O     O_R   0.060240 0.944210 0.930110 -0.542416
O17   O     O_R   0.914790 0.269640 0.916760 -0.547496
O18   O     O_R   0.085210 0.769640 0.083240 -0.547539
C47   C     C_R   0.919137 0.611635 0.084871 0.700455
C48   C     C_R   0.080615 0.113206 0.914892 0.700969
O19   O     O_3   0.992050 0.601530 0.949880 -0.379234
O20   O     O_3   0.007950 0.101530 0.050120 -0.379594
V3    V     V_3+5 0.001480 0.328340 0.009300 1.377805
V4    V     V_3+5 0.998520 0.828340 0.990700 1.376461
N1    N     N_2   0.778098 0.929477 0.806177 -0.500786
H19   H     H_    0.768794 0.867437 0.854686 0.252749
C49   C     C_3   0.806337 0.802202 0.760332 -0.547548
H20   H     H_    0.762787 0.705785 0.728388 0.212500
H21   H     H_    0.850961 0.719692 0.799597 0.202421
H22   H     H_    0.826187 0.876794 0.715960 0.183903
N2    N     N_2   0.222139 0.431197 0.192958 -0.500782
H23   H     H_    0.231462 0.372435 0.144216 0.251406
C50   C     C_3   0.194099 0.299806 0.238434 -0.545580
H24   H     H_    0.237919 0.205041 0.270557 0.212072
H25   H     H_    0.149937 0.215977 0.198862 0.201885
H26   H     H_    0.173647 0.370895 0.282615 0.183376
N3    N     N_2   0.654746 0.394840 0.755933 -0.499770
H27   H     H_    0.600989 0.359973 0.733522 0.256084
C51   C     C_3   0.671963 0.469280 0.835173 -0.556059
H28   H     H_    0.628434 0.563758 0.838796 0.196251
H29   H     H_    0.722713 0.550556 0.849997 0.200762
H30   H     H_    0.676749 0.355720 0.878924 0.193035
N4    N     N_2   0.345294 0.898897 0.244422 -0.500581
H31   H     H_    0.399030 0.865170 0.266625 0.254927
C52   C     C_3   0.327985 0.976104 0.165313 -0.557144
H32   H     H_    0.371477 0.072778 0.161805 0.195278
H33   H     H_    0.277219 0.055658 0.150675 0.201664
H34   H     H_    0.323178 0.864281 0.121362 0.193534
N5    N     N_2   0.324130 0.835336 0.578951 -0.500605
H35   H     H_    0.327465 0.706407 0.604773 0.244442
C53   C     C_3   0.272501 0.846149 0.500780 -0.520319
H36   H     H_    0.216610 0.846339 0.504544 0.179997
H37   H     H_    0.278699 0.724725 0.465689 0.177354
H38   H     H_    0.281870 0.973419 0.469842 0.195273
N6    N     N_2   0.686305 0.963591 0.417907 -0.533154
H39   H     H_    0.640010 0.040505 0.406629 0.271883
C54   C     C_3   0.727261 0.942140 0.500374 -0.537130
H40   H     H_    0.732921 0.078386 0.529998 0.181812
H41   H     H_    0.782071 0.889861 0.505931 0.196696
H42   H     H_    0.699624 0.844786 0.530368 0.194066

loop_
_geom_bond_atom_site_label_1
_geom_bond_atom_site_label_2
_ccdc_geom_bond_type
C14   C16   A    
C49   H20   S    
O12   C48   A    
C20   C26   A    
C52   H32   S    
O1    C3    A    
O2    C4    A    
C2    O7    A    
N2    H23   S    
C54   H40   S    
C31   C33   A    
O14   V4    S    
O5    C3    A    
C51   H29   S    
O13   V3    S    
C5    C9    S    
O18   V4    S    
C6    C10   S    
C19   C21   A    
C10   C12   D    
C53   H37   S    
C45   O18   A    
O14   C46   A    
C54   H41   S    
C42   C44   A    
N5    H35   S    
C18   H6    S    
C41   C48   S    
C29   C31   A    
O11   V4    S    
C17   C19   A    
C38   H18   S    
C28   H10   S    
O11   C47   A    
C9    N3    S    
C8    N2    S    
C36   C38   A    
C33   C35   A    
C34   C36   A    
C15   C17   A    
C21   C31   A    
C22   C32   A    
C27   H9    S    
O12   V3    S    
C1    C16   S    
O15   V3    S    
C32   C34   A    
C2    C15   S    
C13   N5    S    
C49   H21   S    
C25   C27   A    
C26   C28   A    
C46   O17   A    
N2    C50   S    
C28   C30   A    
O13   C45   A    
O17   V3    S    
C51   H30   S    
C30   C32   A    
C7    N1    S    
N3    C51   S    
C53   H38   S    
N1    H19   S    
C54   H42   S    
C3    C12   S    
N5    C53   S    
C40   H12   S    
C5    H1    S    
C35   C37   A    
C16   C18   A    
O4    V2    S    
C36   H16   S    
N1    C49   S    
C50   H24   S    
C14   N6    S    
C44   H14   S    
O6    C4    A    
C13   C23   A    
C14   C24   A    
C52   H33   S    
O1    V2    S    
O2    V1    S    
C27   C29   A    
N6    H39   S    
C43   H13   S    
O4    C2    A    
C50   H25   S    
C49   H22   S    
C24   C38   A    
C39   C41   A    
O19   V4    S    
C25   H7    S    
C42   C47   S    
C26   H8    S    
O3    V1    S    
C8    C45   S    
C6    H2    S    
C37   H17   S    
C10   N4    S    
O3    C1    A    
C33   C43   A    
C39   H11   S    
C35   H15   S    
C11   H3    S    
C51   H28   S    
C12   H4    S    
O16   V4    S    
C4    C11   S    
C34   C44   A    
C20   C22   A    
O7    V1    S    
C1    O8    A    
C13   C15   A    
O16   C48   A    
C53   H36   S    
C22   C24   A    
C23   C37   A    
C17   H5    S    
N4    C52   S    
O5    V1    S    
C5    C7    D    
C18   C20   A    
C40   C42   A    
C52   H34   S    
C6    C8    D    
C9    C11   D    
C7    C46   S    
C19   C25   A    
N6    C54   S    
C41   C43   A    
C21   C23   A    
C50   H26   S    
O20   V3    S    
C29   C39   A    
O6    V2    S    
O9    V2    S    
C30   C40   A    
N3    H27   S    
O10   V1    S    
O8    V2    S    
N4    H31   S    
O15   C47   A    
