data_mof_unit_16179.cif
_audit_creation_date              2013-03-05T16:45:42-0500
_audit_creation_method            fapswitch 2.2
_symmetry_space_group_name_H-M    P1
_symmetry_Int_Tables_number       1
_space_group_crystal_system       triclinic
_cell_length_a                    17.46503
_cell_length_b                    10.699363
_cell_length_c                    9.856412
_cell_angle_alpha                 89.626534
_cell_angle_beta                  89.986828
_cell_angle_gamma                 90.171562
_cell_volume                      1841.76798935

loop_
_atom_site_label
_atom_site_type_symbol
_atom_site_description
_atom_site_fract_x
_atom_site_fract_y
_atom_site_fract_z
_atom_type_partial_charge
O1    O     O_R   0.500010 0.316790 0.614690 -0.624078
O2    O     O_R   0.500000 0.316760 0.385350 -0.628512
C1    C     C_R   0.501223 0.260087 0.500365 0.956605
O3    O     O_R   0.389120 0.500020 0.614710 -0.601026
O4    O     O_R   0.389110 0.499990 0.385370 -0.625837
C2    C     C_R   0.353230 0.503054 0.500028 0.935928
Zn1   Zn    Zn3+2 0.500010 0.500020 0.653130 0.986417
Zn2   Zn    Zn3+2 0.499990 0.499980 0.346870 1.003565
O5    O     O_R   0.500000 0.683240 0.614650 -0.614101
O6    O     O_R   0.499990 0.683210 0.385310 -0.570722
O7    O     O_R   0.610890 0.500010 0.614630 -0.640812
O8    O     O_R   0.610880 0.499980 0.385290 -0.618299
C3    C     C_R   0.504785 0.739505 0.499602 0.968486
C4    C     C_R   0.646792 0.502303 0.499915 0.865672
C5    C     C_R   0.847399 0.551623 0.622854 -0.149172
H1    H     H_    0.878056 0.556804 0.718269 0.140279
C6    C     C_R   0.769287 0.527905 0.623104 -0.195093
H2    H     H_    0.740166 0.517364 0.719527 0.152730
C7    C     C_R   0.729552 0.518625 0.499730 -0.028832
C8    C     C_R   0.768853 0.533327 0.376305 -0.145099
H3    H     H_    0.739377 0.527209 0.279925 0.157834
C9    C     C_R   0.846964 0.557057 0.376468 -0.151533
H4    H     H_    0.877275 0.566491 0.280955 0.139590
C10   C     C_R   0.885695 0.566344 0.499649 0.154525
C11   C     C_1   0.966135 0.577788 0.499445 -0.047258
C12   C     C_1   0.034152 0.578634 0.499430 -0.039819
C13   C     C_R   0.152985 0.555756 0.622843 -0.127714
H5    H     H_    0.122419 0.561811 0.718285 0.140565
C14   C     C_R   0.231003 0.532123 0.623112 -0.089967
H6    H     H_    0.260137 0.523385 0.719464 0.162762
C15   C     C_R   0.270618 0.521020 0.499854 -0.024117
C16   C     C_R   0.231402 0.535683 0.376446 -0.166172
H7    H     H_    0.260862 0.529727 0.280159 0.154175
C17   C     C_R   0.153359 0.559237 0.376489 -0.134668
H8    H     H_    0.123075 0.567977 0.280935 0.141842
C18   C     C_R   0.114635 0.568942 0.499612 0.148305
C19   C     C_R   0.493876 0.060970 0.618687 -0.020783
C20   C     C_R   0.509992 0.128585 0.501597 -0.074020
C21   C     C_R   0.541997 0.067798 0.389293 -0.274848
H9    H     H_    0.562034 0.120841 0.302149 0.192830
C22   C     C_R   0.547296 0.937662 0.388838 0.318722
C23   C     C_R   0.517068 0.870724 0.501219 -0.165881
C24   C     C_R   0.497745 0.934652 0.618534 -0.078730
C25   C     C_3   0.436298 0.919692 0.723976 0.108230
C26   C     C_3   0.432314 0.062875 0.725618 0.067260
H10   H     H_    0.453167 0.102999 0.822407 0.078286
C27   C     C_R   0.433356 0.483843 0.071541 0.211484
N1    N     N_R   0.499490 0.499140 0.142800 -0.113963
C28   C     C_R   0.564612 0.527537 0.071685 -0.068762
H11   H     H_    0.617051 0.548049 0.125387 0.167390
C29   C     C_R   0.564641 0.527381 0.927798 -0.125323
H12   H     H_    0.617114 0.547688 0.873770 0.150492
N2    N     N_R   0.499490 0.499180 0.857150 -0.115322
C30   C     C_R   0.433205 0.484809 0.928882 0.232415
C31   C     C_3   0.381372 0.374205 0.923991 -0.447062
C32   C     C_3   0.382176 0.372347 0.077840 -0.486733
H13   H     H_    0.324349 0.397196 0.881107 0.214460
H14   H     H_    0.409563 0.292364 0.878166 0.221089
H15   H     H_    0.325531 0.394056 0.122883 0.207540
H16   H     H_    0.411060 0.288826 0.121636 0.230981
N3    N     N_R   0.582488 0.876466 0.275497 0.216949
O9    O     O_R   0.574518 0.921940 0.153506 -0.402469
O10   O     O_R   0.632156 0.787921 0.296183 -0.413276
N4    N     N_R   0.367148 0.857135 0.673315 0.257443
O11   O     O_R   0.332811 0.774591 0.749465 -0.389416
O12   O     O_R   0.341583 0.877985 0.551145 -0.337611
H17   H     H_    0.458000 0.878790 0.820633 0.122365
N5    N     N_R   0.357999 0.113324 0.682604 0.254899
O13   O     O_R   0.301395 0.113009 0.768365 -0.352596
O14   O     O_R   0.347042 0.158030 0.561070 -0.372492

loop_
_geom_bond_atom_site_label_1
_geom_bond_atom_site_label_2
_geom_bond_distance
_ccdc_geom_bond_type
C19   C24   1.353428 A    
O4    Zn2   1.973265 S    
C24   C25   1.501243 S    
Zn2   N1    2.011498 S    
C10   C11   1.409843 S    
C5    C6    1.386877 A    
C19   C20   1.386459 A    
C13   C18   1.393735 A    
C13   C14   1.386597 A    
C22   C23   1.416230 A    
C30   C31   1.488823 S    
C27   N1    1.361958 A    
C32   H15   1.110096 S    
C22   N3    1.437399 S    
Zn2   O8    1.973459 S    
N4    O11   1.300363 A    
C28   H11   1.080575 S    
C26   N5    1.468730 S    
C6    H2    1.082892 S    
C29   H12   1.080622 S    
C21   C22   1.395757 A    
C5    C10   1.394034 A    
C26   H10   1.109780 S    
C25   C26   1.533948 S    
Zn1   O7    1.973265 S    
C27   C32   1.489475 S    
N4    O12   1.302476 A    
C14   H6    1.081159 S    
O3    Zn1   1.973459 S    
O1    Zn1   1.999144 S    
O4    C2    1.292753 A    
Zn2   O6    1.999144 S    
C3    C23   1.419814 S    
C6    C7    1.404192 A    
C27   C30   1.406087 A    
C8    C9    1.386903 A    
C2    C15   1.456130 S    
C17   C18   1.393769 A    
C31   H13   1.109635 S    
C32   H16   1.112271 S    
N3    O9    1.301806 A    
O7    C4    1.292834 A    
C9    C10   1.393947 A    
C31   C32   1.516466 S    
O3    C2    1.292914 A    
C23   C24   1.389339 A    
Zn1   N2    2.010885 S    
C19   C26   1.505696 S    
C5    H1    1.083939 S    
C25   N4    1.468219 S    
Zn1   O5    1.994263 S    
C21   H9    1.083797 S    
C14   C15   1.403826 A    
C20   C21   1.404270 A    
C8    H3    1.082846 S    
N5    O14   1.301366 A    
C17   H8    1.083924 S    
C31   H14   1.104908 S    
C12   C18   1.409765 S    
C13   H5    1.083928 S    
N3    O10   1.301565 A    
C28   C29   1.418222 A    
O5    C3    1.282966 A    
C9    H4    1.083921 S    
N1    C28   1.368209 A    
C25   H17   1.112892 S    
O2    C1    1.282336 A    
C16   H7    1.081783 S    
O1    C1    1.283450 A    
C11   C12   1.187935 T    
N2    C30   1.364133 A    
C4    C7    1.455389 S    
C15   C16   1.404209 A    
O2    Zn2   1.994263 S    
C7    C8    1.404388 A    
C1    C20   1.415727 S    
O8    C4    1.292684 A    
N5    O13   1.300535 A    
C29   N2    1.368102 A    
O6    C3    1.283518 A    
C16   C17   1.386856 A    
