data_mof_unit_40052.cif
_audit_creation_date              2012-12-10T17:05:17-0500
_audit_creation_method            fapswitch 2.2
_symmetry_space_group_name_H-M    P1
_symmetry_Int_Tables_number       1
_space_group_crystal_system       triclinic
_cell_length_a                    10.088004
_cell_length_b                    10.745988
_cell_length_c                    15.523891
_cell_angle_alpha                 90.769561
_cell_angle_beta                  67.865523
_cell_angle_gamma                 89.916234
_cell_volume                      1558.67250614

loop_
_atom_site_label
_atom_site_type_symbol
_atom_type_description
_atom_site_fract_x
_atom_site_fract_y
_atom_site_fract_z
_atom_type_partial_charge
C1    C     C_R   0.500886 0.737101 0.498654 0.916965
C2    C     C_R   0.736043 0.514754 0.029909 0.179193
C3    C     C_R   0.592691 0.548129 0.085294 0.098308
C4    C     C_R   0.410258 0.501277 0.675755 0.849913
C5    C     C_R   0.833847 0.487026 0.071733 -0.224927
C6    C     C_R   0.788894 0.485979 0.168263 -0.168973
C7    C     C_R   0.550249 0.545359 0.181749 -0.255803
C8    C     C_2   0.609004 0.066732 0.504992 -0.148124
C9    C     C_2   0.492221 0.131761 0.512730 -0.317603
C10   C     C_2   0.604728 0.932910 0.510334 -0.158767
C11   C     C_2   0.505148 0.868692 0.491784 -0.318569
C12   C     C_R   0.426633 0.548702 0.908450 0.095424
C13   C     C_2   0.108323 0.437043 0.440447 -0.077503
C14   C     C_2   0.953567 0.420679 0.452520 -0.077714
C15   C     C_R   0.498618 0.262970 0.502507 0.974681
C16   C     C_R   0.589764 0.501926 0.324312 0.910237
C17   C     C_R   0.356425 0.519119 0.776432 -0.048707
C18   C     C_R   0.645578 0.511658 0.223267 -0.061683
C19   C     C_R   0.187291 0.609567 0.918839 -0.221879
C20   C     C_R   0.221863 0.571981 0.826480 -0.203655
C21   C     C_R   0.453160 0.500855 0.819616 -0.254553
C22   C     C_2   0.215847 0.377308 0.357020 0.493396
C23   C     C_R   0.288984 0.598573 0.960138 0.177261
C24   C     C_2   0.920923 0.310237 0.406407 0.465394
C25   C     C_R   0.533121 0.546054 0.947242 0.071391
C26   C     C_R   0.493159 0.573455 0.043062 0.069683
C27   C     C_R   0.354964 0.623901 0.093261 -0.230379
C28   C     C_R   0.255555 0.637784 0.051752 -0.233909
C29   C     C_R   0.678692 0.519357 0.892923 -0.228116
C30   C     C_R   0.778735 0.505941 0.933776 -0.239885
H1    H     H_    0.151350 0.677619 0.092021 0.152605
H2    H     H_    0.888762 0.483820 0.890203 0.147828
H3    H     H_    0.083093 0.650758 0.956964 0.145191
H4    H     H_    0.145927 0.587831 0.793608 0.153875
H5    H     H_    0.550761 0.450415 0.781583 0.154140
H6    H     H_    0.322107 0.657752 0.163994 0.146379
H7    H     H_    0.719166 0.511398 0.818072 0.147002
H8    H     H_    0.686876 0.887023 0.528124 0.171045
H9    H     H_    0.219345 0.402127 0.288657 0.023729
H10   H     H_    0.960117 0.219529 0.416187 0.028009
H11   H     H_    0.943497 0.461622 0.029922 0.151371
H12   H     H_    0.709990 0.111587 0.495019 0.170578
H13   H     H_    0.388021 0.089898 0.529192 0.154731
H14   H     H_    0.426820 0.911262 0.468926 0.157001
H15   H     H_    0.068347 0.532041 0.558364 0.145694
H16   H     H_    0.883311 0.577453 0.524818 0.149624
H17   H     H_    0.440447 0.562682 0.226189 0.147809
H18   H     H_    0.864557 0.461133 0.199553 0.193424
N1    N     N_2   0.148330 0.498670 0.499030 -0.207335
N2    N     N_2   0.852680 0.498640 0.499000 -0.203867
O1    O     O_R   0.386950 0.680940 0.500010 -0.621512
O2    O     O_2   0.861422 0.320211 0.351605 -0.558218
O3    O     O_R   0.613110 0.680900 0.499990 -0.617606
O4    O     O_R   0.322330 0.500030 0.632270 -0.623835
O5    O     O_R   0.548480 0.499990 0.632240 -0.619661
O6    O     O_R   0.386890 0.319100 0.500010 -0.559632
O7    O     O_R   0.613050 0.319060 0.499990 -0.591937
O8    O     O_R   0.451520 0.500010 0.367760 -0.602540
O9    O     O_R   0.677670 0.499970 0.367730 -0.561241
O10   O     O_2   0.292940 0.293747 0.363866 -0.548045
Zn1   Zn    Zn3+2 0.349000 0.500030 0.500020 0.970718
Zn2   Zn    Zn3+2 0.651000 0.499970 0.499980 0.973578

loop_
_geom_bond_atom_site_label_1
_geom_bond_atom_site_label_2
_ccdc_geom_bond_type
C24   O2    D    
C19   C23   A    
C29   C30   A    
C21   H5    S    
O4    Zn1   S    
C13   C14   S    
C27   H6    S    
C15   O7    A    
O3    Zn2   S    
H16   N2    S    
C19   C20   A    
O1    Zn1   S    
H15   N1    S    
C12   C25   A    
C10   H8    S    
C7    C18   A    
C20   H4    S    
C15   O6    A    
O8    Zn1   S    
C2    C3    A    
C9    C15   S    
C11   H14   S    
C16   O8    A    
C23   C28   A    
C30   H2    S    
C1    O1    A    
C12   C23   A    
C26   C27   A    
C14   N2    D    
C6    H18   S    
C13   N1    D    
C4    C17   S    
C8    C10   S    
C24   H10   S    
C8    H12   S    
C13   C22   S    
C3    C7    A    
C3    C26   A    
C4    O5    A    
C25   C29   A    
C5    C6    A    
C6    C18   A    
C9    H13   S    
C2    C5    A    
N1    Zn1   S    
C2    C30   A    
C22   H9    S    
C14   C24   S    
O5    Zn2   S    
O7    Zn2   S    
C17   C20   A    
N2    Zn2   S    
C16   C18   S    
C10   C11   D    
C29   H7    S    
C27   C28   A    
C5    H11   S    
O6    Zn1   S    
O9    Zn2   S    
C1    O3    A    
C22   O10   D    
C25   C26   A    
C4    O4    A    
C12   C21   A    
C28   H1    S    
C17   C21   A    
C7    H17   S    
C19   H3    S    
C8    C9    D    
C16   O9    A    
C1    C11   S    
