data_mof_unit_65332.cif
_audit_creation_date              2012-12-10T20:28:47-0500
_audit_creation_method            fapswitch 2.2
_symmetry_space_group_name_H-M    P1
_symmetry_Int_Tables_number       1
_space_group_crystal_system       triclinic
_cell_length_a                    10.722064
_cell_length_b                    10.708026
_cell_length_c                    9.919253
_cell_angle_alpha                 88.672452
_cell_angle_beta                  90.854516
_cell_angle_gamma                 89.101763
_cell_volume                      1138.27211945

loop_
_atom_site_label
_atom_site_type_symbol
_atom_type_description
_atom_site_fract_x
_atom_site_fract_y
_atom_site_fract_z
_atom_type_partial_charge
C1    C     C_R   0.499868 0.260571 0.501408 0.936147
C2    C     C_R   0.059726 0.522814 0.622559 -0.176122
C3    C     C_R   0.123717 0.523645 0.498263 -0.278770
C4    C     C_R   0.058365 0.503883 0.376349 0.426727
C5    C     C_R   0.936167 0.463800 0.380644 0.381245
C6    C     C_R   0.874144 0.462150 0.504289 -0.233184
C7    C     C_R   0.589509 0.059982 0.566945 -0.032519
C8    C     C_R   0.494531 0.128799 0.502570 -0.206635
C9    C     C_R   0.402777 0.070123 0.424716 0.516402
C10   C     C_R   0.407346 0.940596 0.414068 0.052223
C11   C     C_R   0.495244 0.871784 0.493425 -0.187530
C12   C     C_R   0.259451 0.512346 0.499007 0.942415
C13   C     C_R   0.586624 0.932215 0.566633 0.041958
C14   C     C_3   0.620949 0.918796 0.712897 0.590840
C15   C     C_3   0.628241 0.060496 0.711768 -0.548354
C16   C     C_R   0.411096 0.437425 0.070175 0.158526
C17   C     C_R   0.578676 0.574085 0.069787 0.209353
C18   C     C_R   0.578651 0.572852 0.926677 -0.163378
C19   C     C_R   0.407309 0.442743 0.928463 0.220174
C20   C     C_3   0.369218 0.311034 0.917997 -0.610425
C21   C     C_3   0.384517 0.300244 0.070606 0.009976
C22   C     C_R   0.496032 0.739586 0.498252 0.955711
C23   C     C_R   0.739643 0.484097 0.501657 0.976548
C24   C     C_R   0.112157 0.562901 0.746775 0.552367
C25   C     C_R   0.081388 0.497790 0.864115 -0.382750
C26   C     C_R   0.987243 0.409884 0.862873 0.388966
C27   C     C_R   0.907355 0.403003 0.747080 0.464937
C28   C     C_R   0.943471 0.465540 0.626171 -0.156598
H1    H     H_    0.558498 0.107414 0.774799 0.202586
H2    H     H_    0.725155 0.093305 0.723934 0.233653
H3    H     H_    0.644904 0.627860 0.871663 0.209959
H4    H     H_    0.271590 0.305171 0.881007 0.193429
H5    H     H_    0.435233 0.253589 0.860852 0.222741
H6    H     H_    0.296579 0.277485 0.122801 0.211479
H7    H     H_    0.136257 0.510044 0.954727 0.207119
N1    N     N_R   0.499160 0.499140 0.142800 -0.116952
N2    N     N_R   0.499160 0.499180 0.857150 -0.117412
O1    O     O_R   0.500020 0.316790 0.614690 -0.655161
O2    O     O_R   0.500000 0.316760 0.385350 -0.570771
O3    O     O_R   0.316770 0.500020 0.614690 -0.583800
O4    O     O_R   0.316760 0.499980 0.385350 -0.559714
O5    O     O_R   0.500000 0.683240 0.614650 -0.551333
O6    O     O_R   0.499980 0.683210 0.385310 -0.591082
O7    O     O_R   0.683240 0.500020 0.614650 -0.594501
O8    O     O_R   0.683230 0.499980 0.385310 -0.566491
Zn1   Zn    Zn3+2 0.500010 0.500020 0.653130 0.999234
Zn2   Zn    Zn3+2 0.499990 0.499980 0.346870 1.044351
O9    O     O_3   0.115923 0.518731 0.253022 -0.578783
C29   C     C_3   0.062637 0.623592 0.183085 -0.149960
H8    H     H_    0.983158 0.594671 0.118840 0.227331
H9    H     H_    0.031510 0.699608 0.250557 0.158294
H10   H     H_    0.133741 0.663784 0.115485 0.183711
I1    I     I_    0.796477 0.821590 0.739842 -0.484625
I2    I     I_    0.706375 0.696775 0.160152 -0.337973
I3    I     I_    0.543647 0.182621 0.120868 -0.458495
O10   O     O_3   0.204825 0.651595 0.755732 -0.573384
C30   C     C_3   0.161829 0.766755 0.699612 -0.245307
H11   H     H_    0.081628 0.803436 0.757050 0.182154
H12   H     H_    0.137200 0.760443 0.590823 0.164977
H13   H     H_    0.238026 0.835241 0.707777 0.205665
O11   O     O_3   0.970617 0.336831 0.977681 -0.587063
C31   C     C_3   0.019314 0.215276 0.958009 -0.295150
H14   H     H_    0.012187 0.183503 0.851905 0.163351
H15   H     H_    0.966344 0.148307 0.021025 0.186926
H16   H     H_    0.117428 0.209295 0.993817 0.182377
O12   O     O_3   0.811044 0.317934 0.739493 -0.637738
C32   C     C_3   0.739525 0.313504 0.857736 -0.175456
H17   H     H_    0.764205 0.228004 0.917916 0.185021
H18   H     H_    0.640794 0.306143 0.827894 0.194949
H19   H     H_    0.747864 0.396937 0.921498 0.183189
O13   O     O_3   0.877445 0.430864 0.261669 -0.559180
C33   C     C_3   0.859752 0.300539 0.264598 -0.119120
H20   H     H_    0.950627 0.249121 0.269548 0.144557
H21   H     H_    0.811778 0.274940 0.169904 0.212343
H22   H     H_    0.799493 0.270031 0.349174 0.131232
O14   O     O_3   0.309933 0.139274 0.357689 -0.573735
C34   C     C_3   0.213793 0.164765 0.449223 -0.299729
H23   H     H_    0.247685 0.218783 0.536588 0.133634
H24   H     H_    0.169398 0.077135 0.485290 0.170543
H25   H     H_    0.141183 0.222940 0.396366 0.188801
I4    I     I_    0.272799 0.855505 0.288615 -0.392966
O15   O     O_3   0.520255 0.867639 0.785916 -0.591803
C35   C     C_3   0.524257 0.899803 0.922774 -0.211530
H26   H     H_    0.619956 0.918168 0.961815 0.194455
H27   H     H_    0.485036 0.822157 0.983564 0.217155
H28   H     H_    0.462397 0.982099 0.937114 0.195752

loop_
_geom_bond_atom_site_label_1
_geom_bond_atom_site_label_2
_ccdc_geom_bond_type
C16   C21   S    
C23   O8    A    
C1    C8    S    
C19   C20   S    
C7    C8    A    
C34   H23   S    
O3    Zn1   S    
C26   C27   A    
C12   O4    A    
C18   N2    A    
C4    O9    S    
C5    C6    A    
C30   H12   S    
O10   C30   S    
N1    Zn2   S    
O5    Zn1   S    
O8    Zn2   S    
C31   H15   S    
C3    C12   S    
C19   N2    A    
C6    C28   A    
C35   H26   S    
C8    C9    A    
C29   H9    S    
C17   N1    A    
C9    C10   A    
C7    C15   S    
O12   C32   S    
C13   C14   S    
C33   H22   S    
O7    Zn1   S    
C15   H1    S    
C34   H24   S    
C32   H17   S    
C24   C25   A    
C33   H21   S    
C21   I3    S    
C4    C5    A    
C30   H13   S    
C21   H6    S    
C25   C26   A    
C23   O7    A    
C32   H18   S    
C12   O3    A    
C31   H14   S    
C22   O6    A    
C9    O14   S    
C29   H10   S    
C35   H28   S    
C17   C18   A    
O4    Zn2   S    
O14   C34   S    
C1    O1    A    
C25   H7    S    
C20   H5    S    
O9    C29   S    
C35   H27   S    
C29   H8    S    
C2    C24   A    
C14   O15   S    
C3    C4    A    
C15   H2    S    
O2    Zn2   S    
C20   H4    S    
C34   H25   S    
C10   I4    S    
C31   H16   S    
C26   O11   S    
C33   H20   S    
C24   O10   S    
C11   C22   S    
C32   H19   S    
C2    C3    A    
O13   C33   S    
C5    O13   S    
C27   O12   S    
C16   N1    A    
C11   C13   A    
C30   H11   S    
C22   O5    A    
C16   C19   A    
C6    C23   S    
O11   C31   S    
O1    Zn1   S    
C10   C11   A    
C1    O2    A    
C7    C13   A    
C14   I1    S    
C20   C21   S    
O15   C35   S    
C27   C28   A    
C14   C15   S    
C2    C28   A    
C18   H3    S    
N2    Zn1   S    
O6    Zn2   S    
C17   I2    S    
