data_mof_unit_45435.cif
_audit_creation_date              2012-12-11T15:21:15-0500
_audit_creation_method            fapswitch 2.2
_symmetry_space_group_name_H-M    P1
_symmetry_Int_Tables_number       1
_space_group_crystal_system       triclinic
_cell_length_a                    18.381107
_cell_length_b                    18.38028
_cell_length_c                    51.153257
_cell_angle_alpha                 90.004287
_cell_angle_beta                  89.749382
_cell_angle_gamma                 120.119764
_cell_volume                      14948.4742521

loop_
_atom_site_label
_atom_site_type_symbol
_atom_type_description
_atom_site_fract_x
_atom_site_fract_y
_atom_site_fract_z
_atom_type_partial_charge
C1    C     C_R   0.408462 0.584291 0.287670 0.570981
C2    C     C_R   0.565126 0.398255 0.860693 0.311137
C3    C     C_R   0.387556 0.969536 0.099361 0.438044
C4    C     C_R   0.507880 0.050698 0.396341 0.420675
C5    C     C_R   0.537735 0.039275 0.102636 0.415557
C6    C     C_R   0.504243 0.930857 0.352470 -0.062698
C7    C     C_R   0.498796 0.916884 0.145861 -0.070738
C8    C     C_R   0.497850 0.893942 0.328061 -0.134927
C9    C     C_R   0.490470 0.878994 0.170098 -0.147354
C10   C     C_R   0.369380 0.896357 0.319707 -0.139450
C11   C     C_R   0.386014 0.915700 0.182845 -0.142619
C12   C     C_R   0.376244 0.933806 0.344004 -0.055231
C13   C     C_R   0.561750 0.462349 0.632327 0.266199
C14   C     C_R   0.397578 0.957631 0.158972 -0.055835
C15   C     C_R   0.442530 0.949368 0.360814 0.236509
C16   C     C_R   0.452469 0.956620 0.139873 0.224960
C17   C     C_R   0.449644 0.016575 0.440468 -0.082093
C18   C     C_R   0.473600 0.027671 0.060163 -0.077105
C19   C     C_R   0.380534 0.941632 0.430890 0.012414
C20   C     C_R   0.393893 0.990101 0.072410 0.037386
C21   C     C_R   0.316582 0.887823 0.448484 0.256748
C22   C     C_R   0.322633 0.971096 0.057202 0.265840
C23   C     C_R   0.125186 0.555222 0.409132 0.410597
C24   C     C_R   0.583242 0.480373 0.866561 0.255680
C25   C     C_R   0.093220 0.564649 0.093759 0.407644
C26   C     C_R   0.512379 0.072337 0.422936 0.030819
C27   C     C_R   0.545886 0.053760 0.075550 0.031524
C28   C     C_R   0.429102 0.874294 0.311712 0.009928
C29   C     C_R   0.431917 0.875356 0.188467 0.015559
C30   C     C_R   0.567004 0.143714 0.685203 0.014841
C31   C     C_R   0.569676 0.146913 0.814701 0.014168
C32   C     C_R   0.412275 0.987802 0.512765 -0.022721
C33   C     C_R   0.417892 0.027880 0.989410 -0.021947
C34   C     C_R   0.531195 0.129607 0.504411 0.006523
C35   C     C_R   0.590716 0.597159 0.484267 -0.028039
C36   C     C_R   0.567253 0.069913 0.992734 0.013207
C37   C     C_R   0.477562 0.065798 0.522254 0.012801
C38   C     C_R   0.496178 0.051019 0.977236 0.007129
C39   C     C_R   0.364657 0.923272 0.530872 -0.139448
C40   C     C_R   0.349919 0.013496 0.973281 -0.134390
C41   C     C_R   0.375405 0.935909 0.557789 0.282750
C42   C     C_R   0.355901 0.015858 0.945996 0.270996
C43   C     C_R   0.440472 0.013345 0.567481 0.029252
C44   C     C_R   0.434083 0.040781 0.933777 0.029945
C45   C     C_R   0.490458 0.079280 0.549719 -0.111948
C46   C     C_R   0.611428 0.539715 0.019085 -0.034143
C47   C     C_R   0.503718 0.055779 0.949398 -0.105688
C48   C     C_R   0.085417 0.590587 0.353976 -0.055384
C49   C     C_R   0.050511 0.572061 0.152076 -0.062592
C50   C     C_R   0.553942 0.158186 0.559338 0.051881
C51   C     C_R   0.580787 0.074968 0.937223 0.052945
C52   C     C_R   0.567322 0.168633 0.586673 0.461571
C53   C     C_R   0.587488 0.082235 0.909681 0.441277
C54   C     C_R   0.457708 0.026294 0.594490 0.421954
C55   C     C_R   0.445071 0.052650 0.906369 0.403080
C56   C     C_R   0.475629 0.117323 0.647836 -0.063662
C57   C     C_R   0.562141 0.526464 0.467564 0.018854
C58   C     C_R   0.601551 0.179181 0.860585 -0.053854
C59   C     C_R   0.491547 0.132354 0.674546 -0.145587
C60   C     C_R   0.618598 0.202610 0.834449 -0.130573
C61   C     C_R   0.624434 0.136326 0.668699 -0.141122
C62   C     C_R   0.502824 0.067112 0.821350 -0.155075
C63   C     C_R   0.608770 0.122210 0.641942 -0.057184
C64   C     C_R   0.486451 0.042855 0.847729 -0.059239
C65   C     C_R   0.535012 0.114254 0.631324 0.244017
C66   C     C_R   0.536094 0.098832 0.867543 0.202444
C67   C     C_R   0.398089 0.975188 0.485433 -0.030530
C68   C     C_R   0.530102 0.512469 0.029414 0.017003
C69   C     C_R   0.409462 0.017696 0.017171 -0.026277
C70   C     C_R   0.457211 0.034907 0.467718 0.021611
C71   C     C_R   0.481349 0.038647 0.032506 0.017255
C72   C     C_R   0.112441 0.612285 0.328197 -0.128939
C73   C     C_R   0.084298 0.594744 0.177064 -0.130861
C74   C     C_R   0.524892 0.111816 0.477113 0.028659
C75   C     C_R   0.561179 0.069807 0.020427 0.028555
C76   C     C_R   0.326427 0.904249 0.475217 -0.135017
C77   C     C_R   0.331378 0.986723 0.030241 -0.134466
C78   C     C_R   0.579498 0.147515 0.432432 -0.118251
C79   C     C_R   0.537685 0.445731 0.478100 0.026134
C80   C     C_R   0.625007 0.092049 0.063543 -0.130148
C81   C     C_R   0.590029 0.209022 0.514486 -0.139580
C82   C     C_R   0.641836 0.085199 0.980082 -0.114724
C83   C     C_R   0.601698 0.223933 0.541336 0.093349
C84   C     C_R   0.649103 0.087233 0.952957 0.093768
C85   C     C_R   0.585611 0.167114 0.458887 -0.152479
C86   C     C_R   0.632711 0.100036 0.036582 -0.147856
C87   C     C_R   0.566900 0.621378 0.402211 0.424086
C88   C     C_R   0.574073 0.554287 0.100910 0.456321
C89   C     C_R   0.519793 0.474851 0.396515 0.415044
C90   C     C_R   0.460413 0.485640 0.012426 0.025289
C91   C     C_R   0.424866 0.484564 0.094103 0.418212
C92   C     C_R   0.555421 0.584570 0.339646 -0.075575
C93   C     C_R   0.444771 0.594859 0.140288 -0.098288
C94   C     C_R   0.525341 0.593636 0.315370 0.043144
C95   C     C_R   0.422525 0.608476 0.165116 0.027268
C96   C     C_R   0.111939 0.481025 0.322794 -0.143965
C97   C     C_R   0.130085 0.491954 0.174668 -0.148389
C98   C     C_R   0.385844 0.539221 0.334728 0.091999
C99   C     C_R   0.474904 0.521771 0.183992 0.040274
C100  C     C_R   0.416688 0.531137 0.358855 0.175399
C101  C     C_R   0.614579 0.675976 0.472815 -0.134991
C102  C     C_R   0.495558 0.506655 0.158572 0.150171
C103  C     C_R   0.501655 0.553577 0.361337 0.191298
C104  C     C_R   0.480028 0.543485 0.136750 0.239652
C105  C     C_R   0.557413 0.536308 0.440060 -0.078694
C106  C     C_R   0.518200 0.513141 0.056883 -0.080417
C107  C     C_R   0.577424 0.615281 0.429362 0.029139
C108  C     C_R   0.587809 0.546678 0.073992 0.023152
C109  C     C_R   0.603944 0.684830 0.446190 0.279187
C110  C     C_R   0.668868 0.573617 0.063583 0.276745
C111  C     C_R   0.531103 0.466521 0.423305 0.029264
C112  C     C_R   0.409436 0.584026 0.212718 0.625189
C113  C     C_R   0.679901 0.572396 0.036477 -0.140534
C114  C     C_R   0.436321 0.480938 0.067145 0.030566
C115  C     C_R   0.440109 0.570731 0.312687 0.031746
C116  C     C_R   0.438379 0.572783 0.187082 0.083585
C117  C     C_R   0.575423 0.435530 0.685777 -0.027136
C118  C     C_R   0.576779 0.432372 0.814286 -0.016685
C119  C     C_R   0.593101 0.586841 0.511822 0.020990
C120  C     C_R   0.621638 0.533432 0.991727 0.014646
C121  C     C_R   0.085502 0.459687 0.348753 -0.041144
C122  C     C_R   0.096397 0.469555 0.149611 -0.058469
C123  C     C_R   0.534077 0.434235 0.505701 0.014916
C124  C     C_R   0.513961 0.389144 0.433755 -0.108216
C125  C     C_R   0.473836 0.494153 0.985035 0.018444
C126  C     C_R   0.562694 0.505033 0.522425 0.037206
C127  C     C_R   0.553443 0.514028 0.974754 0.037406
C128  C     C_R   0.622750 0.655397 0.529386 -0.144672
C129  C     C_R   0.697238 0.544455 0.980706 -0.157539
C130  C     C_R   0.620678 0.643815 0.556236 -0.111717
C131  C     C_R   0.706066 0.539289 0.953827 -0.109066
C132  C     C_R   0.589310 0.563551 0.566907 0.028129
C133  C     C_R   0.640573 0.524789 0.936825 0.029654
C134  C     C_R   0.560346 0.493834 0.550076 -0.035964
C135  C     C_R   0.367375 0.447306 0.050249 -0.105068
C136  C     C_R   0.564506 0.513584 0.947260 -0.035458
C137  C     C_R   0.528774 0.412924 0.560898 0.024206
C138  C     C_R   0.498989 0.500921 0.930260 0.023066
C139  C     C_R   0.529555 0.403308 0.588198 0.470525
C140  C     C_R   0.509914 0.498448 0.903169 0.400912
C141  C     C_R   0.586681 0.551685 0.594147 0.423025
C142  C     C_R   0.648070 0.518205 0.909635 0.468385
C143  C     C_R   0.640519 0.500270 0.644450 -0.109034
C144  C     C_R   0.596778 0.537577 0.846386 -0.103060
C145  C     C_3   0.179098 0.827997 0.437034 0.038477
C146  C     C_R   0.500088 0.353622 0.517285 -0.158024
C147  C     C_3   0.103235 0.747009 0.427217 -0.242284
C148  C     C_3   0.028226 0.759000 0.422097 -0.487731
C149  C     C_3   0.188849 0.861956 0.063899 0.031866
C150  C     C_3   0.105211 0.837481 0.077360 -0.229951
C151  C     C_3   0.041006 0.744493 0.073651 -0.488884
C152  C     C_3   0.242186 0.848920 0.574402 0.021874
C153  C     C_3   0.227917 0.904365 0.593742 -0.246715
C154  C     C_3   0.135630 0.880694 0.594653 -0.488793
C155  C     C_3   0.223217 0.913764 0.933115 0.020446
C156  C     C_3   0.240968 0.860089 0.914030 -0.255227
C157  C     C_R   0.410374 0.484477 0.967525 -0.147901
C158  C     C_3   0.171484 0.768001 0.915185 -0.476503
C159  C     C_3   0.568053 0.788523 0.445624 0.014649
C160  C     C_3   0.488831 0.751657 0.428673 -0.250865
C161  C     C_3   0.427707 0.778672 0.438620 -0.454446
C162  C     C_3   0.773015 0.552890 0.080499 0.012101
C163  C     C_3   0.725588 0.481261 0.100235 -0.261065
C164  C     C_3   0.761882 0.422746 0.100823 -0.458841
C165  C     C_3   0.342094 0.310348 0.645308 0.019957
C166  C     C_3   0.350883 0.231571 0.643596 -0.268460
C167  C     C_3   0.273432 0.154735 0.654854 -0.496884
C168  C     C_R   0.037673 0.480302 0.446662 -0.073719
C169  C     C_3   0.483305 0.271156 0.882002 0.005307
C170  C     C_3   0.417797 0.285267 0.896166 -0.281073
C171  C     C_3   0.338069 0.202197 0.902209 -0.438484
C172  C     C_3   0.879065 0.229956 0.646473 0.026980
C173  C     C_3   0.898328 0.175317 0.664431 -0.279859
C174  C     C_3   0.828773 0.083268 0.663452 -0.478898
C175  C     C_3   0.933894 0.290322 0.872021 0.018237
C176  C     C_3   0.950804 0.244315 0.849961 -0.274453
C177  C     C_3   0.028288 0.236952 0.855639 -0.473540
C178  C     C_3   0.877308 0.198313 0.501815 0.001868
C179  C     C_R   0.005453 0.485767 0.057097 -0.072241
C180  C     C_3   0.822921 0.120712 0.485186 -0.254168
C181  C     C_3   0.870278 0.075414 0.477558 -0.477954
C182  C     C_3   0.706380 0.356527 0.009383 -0.010407
C183  C     C_3   0.630904 0.298698 0.026571 -0.256312
C184  C     C_3   0.585183 0.343065 0.036635 -0.474704
C185  C     C_R   0.497378 0.343374 0.544253 -0.123101
C186  C     C_R   0.423116 0.488619 0.940678 -0.119386
C187  C     C_R   0.517453 0.378914 0.460522 -0.145516
C188  C     C_R   0.075002 0.515809 0.364693 0.239011
C189  C     C_R   0.379115 0.450186 0.023417 -0.143032
C190  C     C_R   0.592371 0.177400 0.711961 0.543760
C191  C     C_R   0.591161 0.175606 0.787587 0.532828
C192  C     C_R   0.824567 0.415593 0.712360 0.546480
C193  C     C_R   0.823826 0.415447 0.787694 0.543078
C194  C     C_R   0.584916 0.408284 0.712111 0.547351
C195  C     C_R   0.584479 0.408437 0.787611 0.541064
C196  C     C_R   0.972895 0.425753 0.429424 0.068465
C197  C     C_R   0.952161 0.419979 0.074335 0.062068
C198  C     C_R   0.895054 0.364339 0.440127 0.088811
C199  C     C_R   0.058771 0.511313 0.137971 0.237673
C200  C     C_R   0.882977 0.346995 0.063865 0.078590
C201  C     C_R   0.112990 0.546391 0.436300 -0.016231
C202  C     C_R   0.076597 0.557932 0.066917 0.002562
C203  C     C_R   0.129464 0.559356 0.312664 0.003251
C204  C     C_R   0.126886 0.556860 0.188251 0.007740
C205  C     C_R   0.870154 0.427336 0.687475 -0.027795
C206  C     C_R   0.863103 0.426523 0.813502 -0.040207
C207  C     C_R   0.943132 0.384999 0.511932 -0.012238
C208  C     C_R   0.891625 0.410368 0.993271 -0.010152
C209  C     C_R   0.079506 0.514023 0.518939 0.023503
C210  C     C_R   0.647366 0.487420 0.670877 -0.160146
C211  C     C_R   0.035968 0.525740 0.985399 0.045589
C212  C     C_R   0.003874 0.445368 0.528986 -0.015023
C213  C     C_R   0.956041 0.464760 0.975760 -0.028101
C214  C     C_R   0.174916 0.590907 0.287575 0.534611
C215  C     C_R   0.175005 0.590804 0.212548 0.553600
C216  C     C_R   0.878622 0.308015 0.523077 0.226512
C217  C     C_R   0.808718 0.359061 0.983280 0.243041
C218  C     C_R   0.863069 0.301360 0.550154 0.114766
C219  C     C_R   0.793207 0.355783 0.956094 0.113887
C220  C     C_R   0.915111 0.368705 0.566771 0.017033
C221  C     C_R   0.594936 0.514088 0.820299 -0.163655
C222  C     C_R   0.860313 0.404480 0.938468 0.000349
C223  C     C_R   0.989562 0.436581 0.556458 -0.077247
C224  C     C_R   0.941816 0.457558 0.948433 -0.078987
C225  C     C_R   0.050164 0.495835 0.573622 0.032611
C226  C     C_R   0.010064 0.503615 0.931096 0.039877
C227  C     C_R   0.031738 0.492357 0.600428 0.428758
C228  C     C_R   0.996743 0.495803 0.904101 0.392334
C229  C     C_R   0.896827 0.369348 0.593608 0.462187
C230  C     C_R   0.848815 0.402606 0.911005 0.486654
C231  C     C_R   0.923067 0.369990 0.654200 0.321105
C232  C     C_R   0.495806 0.400398 0.674049 -0.147768
C233  C     C_R   0.875456 0.362695 0.853677 0.300441
C234  C     C_R   0.893078 0.368185 0.679633 -0.133559
C235  C     C_R   0.853982 0.356232 0.827286 -0.138080
C236  C     C_R   0.882967 0.492023 0.670168 -0.159257
C237  C     C_R   0.898053 0.504645 0.826173 -0.153722
C238  C     C_R   0.415650 0.824902 0.287562 0.536918
C239  C     C_R   0.416189 0.825314 0.212550 0.555422
C240  C     C_R   0.913976 0.494882 0.645019 -0.112647
C241  C     C_R   0.918177 0.511154 0.852573 -0.090151
C242  C     C_R   0.932693 0.433343 0.636792 0.260094
C243  C     C_R   0.562587 0.375049 0.834462 -0.129763
C244  C     C_R   0.904399 0.440006 0.866647 0.237084
C245  C     C_R   0.951788 0.401350 0.484552 -0.004504
C246  C     C_R   0.913350 0.410394 0.020081 -0.004735
C247  C     C_R   0.026940 0.469729 0.474304 -0.003257
C248  C     C_R   0.988333 0.479323 0.029894 -0.014706
C249  C     C_R   0.090060 0.529077 0.491402 0.028579
C250  C     C_R   0.046964 0.541451 0.012568 0.058091
C251  C     C_R   0.884953 0.354675 0.467169 -0.127722
C252  C     C_R   0.864983 0.342793 0.037191 -0.126254
C253  C     C_R   0.172397 0.606405 0.453085 -0.062171
C254  C     C_R   0.487822 0.412764 0.647031 0.331498
C255  C     C_R   0.128767 0.623243 0.049895 -0.114891
C256  C     C_R   0.144153 0.561516 0.536977 -0.148863
C257  C     C_R   0.103621 0.565851 0.967689 -0.118220
C258  C     C_R   0.128729 0.555496 0.563692 -0.115118
C259  C     C_R   0.090893 0.554960 0.941024 -0.129230
C260  C     C_R   0.158660 0.602897 0.479886 0.081976
C261  C     C_R   0.113833 0.616771 0.023108 0.074693
C262  C     C_R   0.987061 0.437328 0.402065 0.440792
C263  C     C_R   0.971112 0.429204 0.101380 0.430098
C264  C     C_R   0.378455 0.921782 0.404114 0.414031
Cr1   Cr    Cr6+3 0.456550 0.732290 0.250000 1.060960
Cr2   Cr    Cr6+3 0.275740 0.543450 0.250000 1.031219
Cr3   Cr    Cr6+3 0.267710 0.724260 0.250000 1.020603
Cr4   Cr    Cr6+3 0.543450 0.275740 0.750000 1.017676
Cr5   Cr    Cr6+3 0.724260 0.267710 0.750000 1.012495
Cr6   Cr    Cr6+3 0.732290 0.456550 0.750000 1.024275
H1    H     H_    0.123046 0.438356 0.311135 0.127829
H2    H     H_    0.905736 0.559865 0.816070 0.149998
H3    H     H_    0.166525 0.742564 0.935222 0.160372
H4    H     H_    0.186248 0.730605 0.901343 0.176915
H5    H     H_    0.110147 0.761556 0.909656 0.159679
H6    H     H_    0.775403 0.323233 0.428764 0.218699
H7    H     H_    0.804781 0.249561 0.427900 0.228152
H8    H     H_    0.768861 0.264321 0.078717 0.223457
H9    H     H_    0.832108 0.223740 0.072690 0.224869
H10   H     H_    0.647735 0.349730 0.542723 0.229561
H11   H     H_    0.721458 0.321584 0.541686 0.233532
H12   H     H_    0.775181 0.161114 0.948638 0.224629
H13   H     H_    0.179166 0.597207 0.576590 0.170043
H14   H     H_    0.739738 0.056545 0.948077 0.229476
H15   H     H_    0.267419 0.467661 0.320996 0.248166
H16   H     H_    0.297604 0.570827 0.326155 0.239157
H17   H     H_    0.455517 0.419449 0.204672 0.239893
H18   H     H_    0.553356 0.504563 0.207539 0.236064
H19   H     H_    0.357947 0.447585 0.388258 0.245814
H20   H     H_    0.386095 0.548358 0.395554 0.230378
H21   H     H_    0.486842 0.392717 0.162008 0.228817
H22   H     H_    0.585743 0.476164 0.164880 0.238045
H23   H     H_    0.600305 0.858214 0.444287 0.152838
H24   H     H_    0.144896 0.587517 0.928167 0.154142
H25   H     H_    0.550310 0.772662 0.466569 0.105650
H26   H     H_    0.506813 0.773765 0.408182 0.212446
H27   H     H_    0.456643 0.681855 0.428934 0.163552
H28   H     H_    0.404349 0.752582 0.458462 0.147954
H29   H     H_    0.373215 0.755061 0.425206 0.220883
H30   H     H_    0.459494 0.848309 0.439413 0.150842
H31   H     H_    0.839377 0.590889 0.086963 0.149852
H32   H     H_    0.775294 0.527135 0.060981 0.095061
H33   H     H_    0.730225 0.508040 0.120046 0.208442
H34   H     H_    0.658062 0.444005 0.094909 0.167608
H35   H     H_    0.920495 0.543209 0.631521 0.128594
H36   H     H_    0.756709 0.394669 0.081209 0.148349
H37   H     H_    0.726401 0.371269 0.115126 0.183478
H38   H     H_    0.828951 0.458064 0.106726 0.173337
H39   H     H_    0.606557 0.586646 0.290239 0.236587
H40   H     H_    0.630862 0.685458 0.298310 0.237241
H41   H     H_    0.414578 0.712251 0.158232 0.229205
H42   H     H_    0.321843 0.621703 0.158173 0.249752
H43   H     H_    0.285741 0.297557 0.633825 0.165467
H44   H     H_    0.328243 0.322898 0.665400 0.118391
H45   H     H_    0.358756 0.219272 0.622802 0.205958
H46   H     H_    0.941161 0.570870 0.862411 0.147959
H47   H     H_    0.407004 0.241057 0.654519 0.167581
H48   H     H_    0.265352 0.164968 0.675817 0.154061
H49   H     H_    0.281045 0.098688 0.653213 0.146447
H50   H     H_    0.216240 0.142304 0.643925 0.151197
H51   H     H_    0.492503 0.225180 0.893471 0.187938
H52   H     H_    0.459606 0.242034 0.862527 0.126548
H53   H     H_    0.444525 0.319125 0.914813 0.184830
H54   H     H_    0.401150 0.324094 0.883669 0.192295
H55   H     H_    0.311175 0.165799 0.883975 0.180341
H56   H     H_    0.290727 0.214829 0.911434 0.147142
H57   H     H_    0.315898 0.882422 0.307528 0.128253
H58   H     H_    0.352309 0.164469 0.916014 0.214231
H59   H     H_    0.871481 0.205464 0.626206 0.182976
H60   H     H_    0.817519 0.223828 0.652184 0.128762
H61   H     H_    0.958691 0.180109 0.658307 0.182368
H62   H     H_    0.905074 0.198273 0.684860 0.160828
H63   H     H_    0.768100 0.076485 0.670104 0.150858
H64   H     H_    0.845019 0.045354 0.676526 0.157789
H65   H     H_    0.821664 0.058601 0.643232 0.154411
H66   H     H_    0.925655 0.255702 0.890614 0.166609
H67   H     H_    0.989678 0.354318 0.874787 0.145008
H68   H     H_    0.341208 0.914676 0.196874 0.124197
H69   H     H_    0.895339 0.180258 0.847672 0.192278
H70   H     H_    0.960971 0.279143 0.831299 0.156551
H71   H     H_    0.084764 0.300426 0.857596 0.161805
H72   H     H_    0.038973 0.203571 0.839301 0.155486
H73   H     H_    0.019054 0.200808 0.873960 0.153672
H74   H     H_    0.741669 0.205672 0.551168 0.268156
H75   H     H_    0.813756 0.176978 0.557527 0.222552
H76   H     H_    0.664527 0.273441 0.960940 0.255976
H77   H     H_    0.710610 0.252106 0.936312 0.266177
H78   H     H_    0.896144 0.178328 0.519905 0.128757
H79   H     H_    0.328168 0.947755 0.350221 0.130988
H80   H     H_    0.934831 0.241547 0.490414 0.146120
H81   H     H_    0.765336 0.076718 0.496350 0.174175
H82   H     H_    0.803470 0.140069 0.467146 0.171950
H83   H     H_    0.927228 0.117792 0.465906 0.156094
H84   H     H_    0.828923 0.019397 0.465560 0.161839
H85   H     H_    0.889190 0.054316 0.495311 0.146039
H86   H     H_    0.684453 0.380753 0.993050 0.153809
H87   H     H_    0.752809 0.410397 0.021382 0.130172
H88   H     H_    0.586092 0.242780 0.015061 0.186799
H89   H     H_    0.652709 0.276807 0.043488 0.170469
H90   H     H_    0.362461 0.989323 0.155217 0.156949
H91   H     H_    0.628693 0.399327 0.048122 0.144759
H92   H     H_    0.532081 0.299723 0.049471 0.162451
H93   H     H_    0.559678 0.362100 0.020020 0.164799
H94   H     H_    0.077372 0.401605 0.356831 0.142071
H95   H     H_    0.162665 0.461769 0.182745 0.146277
H96   H     H_    0.103765 0.423193 0.138676 0.145066
H97   H     H_    0.446259 0.138222 0.686642 0.125572
H98   H     H_    0.669636 0.264933 0.829582 0.128869
H99   H     H_    0.418141 0.110302 0.639772 0.115758
H100  H     H_    0.639565 0.223662 0.875535 0.202759
H101  H     H_    0.320249 0.860190 0.524714 0.114216
H102  H     H_    0.290415 0.001094 0.981139 0.111230
H103  H     H_    0.275409 0.860442 0.487535 0.133560
H104  H     H_    0.274649 0.972668 0.020148 0.111292
H105  H     H_    0.544634 0.877388 0.322528 0.145838
H106  H     H_    0.076798 0.634033 0.366089 0.120332
H107  H     H_    0.526862 0.848611 0.173913 0.142171
H108  H     H_    0.555232 0.941691 0.365386 0.137154
H109  H     H_    0.540376 0.913563 0.131464 0.146413
H110  H     H_    0.628662 0.191318 0.419404 0.166345
H111  H     H_    0.681485 0.113343 0.074973 0.158804
H112  H     H_    0.627443 0.262085 0.501887 0.106859
H113  H     H_    0.695734 0.093180 0.990787 0.110157
H114  H     H_    0.683430 0.145713 0.676229 0.120240
H115  H     H_    0.464463 0.023620 0.806241 0.111290
H116  H     H_    0.654719 0.119137 0.629374 0.133411
H117  H     H_    0.021877 0.604863 0.143077 0.118948
H118  H     H_    0.435848 0.980504 0.852723 0.142316
H119  H     H_    0.640973 0.224651 0.464594 0.102910
H120  H     H_    0.696033 0.131519 0.028975 0.113582
H121  H     H_    0.709577 0.514684 0.679283 0.143103
H122  H     H_    0.608126 0.559486 0.804876 0.124480
H123  H     H_    0.697140 0.537870 0.633061 0.137902
H124  H     H_    0.609835 0.600493 0.850981 0.139022
H125  H     H_    0.643975 0.698642 0.568702 0.162683
H126  H     H_    0.764654 0.546516 0.946398 0.162607
H127  H     H_    0.648394 0.719632 0.523238 0.104024
H128  H     H_    0.227125 0.661378 0.445169 0.211348
H129  H     H_    0.749677 0.553704 0.992511 0.096051
H130  H     H_    0.885710 0.319225 0.692987 0.122707
H131  H     H_    0.826181 0.295069 0.818052 0.149638
H132  H     H_    0.640317 0.732964 0.484007 0.110068
H133  H     H_    0.743803 0.600066 0.029499 0.116559
H134  H     H_    0.621042 0.602899 0.341747 0.140579
H135  H     H_    0.431721 0.622036 0.123411 0.138950
H136  H     H_    0.496091 0.335241 0.421237 0.166545
H137  H     H_    0.303706 0.420311 0.057703 0.165044
H138  H     H_    0.473127 0.296401 0.506079 0.114080
H139  H     H_    0.181146 0.680841 0.057359 0.147686
H140  H     H_    0.350717 0.475923 0.974082 0.109872
H141  H     H_    0.441572 0.362096 0.686149 0.117341
H142  H     H_    0.554070 0.313844 0.829764 0.118077
H143  H     H_    0.471030 0.280224 0.552045 0.162389
H144  H     H_    0.372271 0.480197 0.928057 0.161723
H145  H     H_    0.504511 0.317578 0.466788 0.108440
H146  H     H_    0.322931 0.422213 0.011684 0.109049
H147  H     H_    0.822147 0.312060 0.474142 0.171125
H148  H     H_    0.815103 0.283455 0.030114 0.171376
H149  H     H_    0.124606 0.672795 0.320989 0.138835
H150  H     H_    0.208095 0.602743 0.531044 0.126960
H151  H     H_    0.080357 0.644535 0.187104 0.139204
H152  H     H_    0.263992 0.689717 0.499353 0.225440
H153  H     H_    0.171579 0.688581 0.508357 0.234333
H154  H     H_    0.150421 0.737375 0.013939 0.219492
H155  H     H_    0.225597 0.711006 0.009832 0.225402
H156  H     H_    0.194874 0.878978 0.422451 0.145966
H157  H     H_    0.162068 0.845394 0.456033 0.113259
H158  H     H_    0.120349 0.726874 0.408822 0.206160
H159  H     H_    0.084961 0.696586 0.442069 0.177462
H160  H     H_    0.009224 0.777956 0.440346 0.152574
H161  H     H_    0.167905 0.602876 0.974159 0.151276
H162  H     H_    0.974322 0.698917 0.415131 0.159735
H163  H     H_    0.044298 0.807914 0.406869 0.155173
H164  H     H_    0.213285 0.821732 0.071674 0.169391
H165  H     H_    0.177294 0.850849 0.042558 0.094616
H166  H     H_    0.115799 0.850944 0.098628 0.206107
H167  H     H_    0.079479 0.875871 0.069124 0.174979
H168  H     H_    0.031893 0.728221 0.052546 0.148898
H169  H     H_    0.979771 0.730532 0.082253 0.157664
H170  H     H_    0.062353 0.705202 0.083766 0.176108
H171  H     H_    0.203258 0.782287 0.580716 0.164152
H172  H     H_    0.865546 0.538195 0.675624 0.136715
H173  H     H_    0.219086 0.852822 0.554636 0.096871
H174  H     H_    0.247513 0.896852 0.613611 0.212467
H175  H     H_    0.266520 0.971465 0.587855 0.157558
H176  H     H_    0.114927 0.889193 0.575086 0.147664
H177  H     H_    0.127409 0.921807 0.608827 0.150234
H178  H     H_    0.095688 0.814213 0.600970 0.158921
H179  H     H_    0.162392 0.908716 0.927697 0.155023
H180  H     H_    0.214522 0.887873 0.953309 0.110236
H181  H     H_    0.245498 0.884093 0.893799 0.205261
H182  H     H_    0.301741 0.864267 0.919000 0.164048
N1    N     N_R   0.062306 0.501514 0.392452 -0.398229
N2    N     N_R   0.493450 0.524488 0.110397 -0.372784
N3    N     N_R   0.557803 0.472339 0.604451 -0.360043
N4    N     N_R   0.582209 0.503243 0.893367 -0.370179
N5    N     N_3   0.206143 0.681544 0.493302 -0.651395
N6    N     N_3   0.161695 0.690212 0.007244 -0.662987
N7    N     N_3   0.824489 0.312536 0.423786 -0.545534
N8    N     N_3   0.830518 0.275955 0.080089 -0.546979
N9    N     N_3   0.663537 0.306431 0.550012 -0.534544
N10   N     N_3   0.727420 0.103293 0.941655 -0.555288
N11   N     N_3   0.299792 0.518885 0.333494 -0.570458
N12   N     N_R   0.040205 0.501199 0.110536 -0.398225
N13   N     N_3   0.489296 0.484843 0.206647 -0.630341
N14   N     N_3   0.361096 0.502267 0.381032 -0.561027
N15   N     N_3   0.529410 0.452205 0.154557 -0.590195
N16   N     N_3   0.581365 0.625824 0.293406 -0.607785
N17   N     N_3   0.379339 0.654824 0.167890 -0.616419
N18   N     N_3   0.797859 0.223352 0.560927 -0.544888
N19   N     N_3   0.709622 0.301309 0.946181 -0.551577
N20   N     N_R   0.954633 0.431311 0.609858 -0.373755
N21   N     N_R   0.916958 0.445898 0.894464 -0.384087
N22   N     N_R   0.442384 0.975410 0.387425 -0.396892
N23   N     N_R   0.459120 0.991698 0.113929 -0.390832
N24   N     N_R   0.520016 0.102853 0.603584 -0.412009
N25   N     N_R   0.521602 0.075120 0.894882 -0.406703
N26   N     N_R   0.534005 0.550691 0.386683 -0.397320
O1    O     O_R   0.475290 0.813700 0.278840 -0.508552
O2    O     O_2   0.387388 0.045340 0.892737 -0.508878
O3    O     O_2   0.562437 0.098517 0.381099 -0.500787
O4    O     O_2   0.600746 0.067596 0.116203 -0.510197
O5    O     O_2   0.621051 0.236040 0.595559 -0.409553
O6    O     O_2   0.652315 0.095801 0.898701 -0.448125
O7    O     O_2   0.584985 0.688971 0.392352 -0.474545
O8    O     O_2   0.633610 0.589309 0.115793 -0.454824
O9    O     O_2   0.610079 0.611945 0.608765 -0.517807
O10   O     O_2   0.712497 0.524563 0.900413 -0.483154
O11   O     O_2   0.495026 0.414176 0.382007 -0.509379
O12   O     O_R   0.475290 0.813700 0.221160 -0.501451
O13   O     O_2   0.353714 0.453824 0.103148 -0.516883
O14   O     O_2   0.506343 0.333748 0.597516 -0.499746
O15   O     O_2   0.454088 0.489318 0.888271 -0.539063
O16   O     O_R   0.448450 0.657720 0.276690 -0.465633
O17   O     O_R   0.448450 0.657720 0.223310 -0.475525
O18   O     O_R   0.524710 0.338410 0.721160 -0.515048
O19   O     O_R   0.524710 0.338410 0.778840 -0.506590
O20   O     O_R   0.551550 0.209270 0.723310 -0.495935
O21   O     O_R   0.551550 0.209270 0.776690 -0.494100
O22   O     O_R   0.661590 0.186300 0.721160 -0.514185
O23   O     O_2   0.191871 0.611089 0.400205 -0.494254
O24   O     O_R   0.661590 0.186300 0.778840 -0.502200
O25   O     O_R   0.790730 0.342280 0.723310 -0.497975
O26   O     O_R   0.790730 0.342280 0.776690 -0.503042
O27   O     O_R   0.813700 0.475290 0.721160 -0.512058
O28   O     O_R   0.813700 0.475290 0.778840 -0.504390
O29   O     O_R   0.657720 0.448450 0.723310 -0.494684
O30   O     O_R   0.657720 0.448450 0.776690 -0.486362
O31   O     O_3   0.666667 0.333333 0.750000 -0.233105
O32   O     O_R   0.338410 0.524710 0.278840 -0.524717
O33   O     O_R   0.338410 0.524710 0.221160 -0.494802
O34   O     O_2   0.155248 0.626960 0.102328 -0.521017
O35   O     O_R   0.209270 0.551550 0.276690 -0.506630
O36   O     O_R   0.209270 0.551550 0.223310 -0.492511
O37   O     O_R   0.186300 0.661590 0.278840 -0.512653
O38   O     O_R   0.186300 0.661590 0.221160 -0.508274
O39   O     O_R   0.342280 0.790730 0.276690 -0.500837
O40   O     O_R   0.342280 0.790730 0.223310 -0.489840
O41   O     O_3   0.333333 0.666667 0.250000 -0.240327
O42   O     O_2   0.932593 0.391036 0.386745 -0.460336
O43   O     O_2   0.926097 0.374049 0.116864 -0.463932
O44   O     O_2   0.828623 0.316430 0.602446 -0.462017
O45   O     O_2   0.083724 0.544020 0.615377 -0.507585
O46   O     O_2   0.778395 0.363483 0.901663 -0.438616
O47   O     O_3   0.247409 0.814077 0.440126 -0.526691
O48   O     O_3   0.246056 0.947573 0.069088 -0.523602
O49   O     O_3   0.327449 0.869045 0.574546 -0.514558
O50   O     O_3   0.286107 0.999838 0.931288 -0.539806
O51   O     O_3   0.625041 0.763477 0.436356 -0.519088
O52   O     O_3   0.738685 0.606827 0.079744 -0.515928
O53   O     O_3   0.411435 0.381673 0.633831 -0.539538
O54   O     O_3   0.562100 0.346380 0.880880 -0.540432
O55   O     O_3   0.947965 0.313470 0.646469 -0.554195
O56   O     O_2   0.056095 0.533261 0.889039 -0.545698
O57   O     O_3   0.858331 0.290778 0.867307 -0.533676
O58   O     O_3   0.830017 0.237271 0.508111 -0.603099
O59   O     O_3   0.741935 0.309348 0.999681 -0.607344
O60   O     O_2   0.321021 0.855653 0.395684 -0.470072
O61   O     O_2   0.318330 0.929089 0.109597 -0.484752
O62   O     O_2   0.418167 0.969203 0.610057 -0.466230

loop_
_geom_bond_atom_site_label_1
_geom_bond_atom_site_label_2
_ccdc_geom_bond_type
C174  H63   S    
C63   C65   A    
C167  H49   S    
C49   C73   A    
C195  O30   A    
C39   C41   A    
C193  O28   A    
C21   C76   A    
H74   N18   S    
C23   C201  A    
C117  C210  A    
C159  H25   S    
C48   C188  A    
C4    N22   Am   
C160  H26   S    
C88   C108  A    
C58   C60   A    
C18   C71   A    
C97   H95   S    
C263  O43   D    
C99   N13   S    
C61   C63   A    
C154  H178  S    
C182  C183  S    
C149  H164  S    
C80   C86   A    
C13   N3    S    
C198  C251  A    
C165  H43   S    
Cr1   O17   S    
C68   C90   A    
C229  O44   D    
C147  H159  S    
C151  H169  S    
C258  H13   S    
C34   C81   A    
Cr3   O41   S    
C141  O9    D    
C177  H73   S    
C182  H87   S    
C76   H103  S    
C33   C69   A    
C191  O21   A    
C119  C128  A    
C111  C124  A    
C83   N9    S    
C41   C43   A    
C31   C62   A    
C142  O10   D    
C42   C44   A    
C188  N1    S    
H11   N9    S    
C100  N14   S    
C193  O26   A    
C248  C250  A    
C50   C83   A    
C61   H114  S    
C42   O50   S    
C159  H23   S    
C127  C136  A    
C3    N23   Am   
C7    H109  S    
C139  O14   D    
C191  O24   A    
C123  C126  A    
C241  H46   S    
C109  O51   S    
C85   H119  S    
H152  N5    S    
C64   C66   A    
C183  C184  S    
C234  H130  S    
C264  O60   D    
C43   C54   A    
C178  C180  S    
C175  C176  S    
C204  C215  S    
C179  C202  A    
C218  N18   S    
C56   H99   S    
Cr4   O21   S    
Cr5   O31   S    
C92   C94   A    
C155  O50   S    
Cr2   O35   S    
C230  O46   D    
C118  C195  S    
H42   N17   S    
C138  C140  A    
C72   C203  A    
C211  C257  A    
C82   C84   A    
C103  N26   S    
C8    C28   A    
C139  N3    Am   
C97   C204  A    
C37   C45   A    
C88   N2    Am   
C208  C217  A    
Cr1   O12   S    
Cr2   O32   S    
C91   N2    Am   
C64   H118  S    
C263  N12   Am   
C94   C115  A    
C190  O20   A    
C243  H142  S    
C78   H110  S    
C117  C232  A    
C33   C38   A    
C56   C59   A    
C121  H94   S    
C255  H139  S    
C156  C158  S    
C195  O19   A    
C44   C55   A    
C184  H92   S    
Cr6   O31   S    
C45   C50   A    
C66   N25   S    
Cr1   O41   S    
C3    O61   D    
C207  C216  A    
C231  C234  A    
Cr3   O39   S    
C154  H176  S    
C208  C246  A    
C101  H132  S    
C52   N24   Am   
C264  N22   Am   
C227  N20   Am   
C229  N20   Am   
C156  H181  S    
C159  O51   S    
C119  C126  A    
C87   C107  A    
C126  C134  A    
C132  C134  A    
C30   C61   A    
C155  C156  S    
C125  C127  A    
C55   O2    D    
C262  O42   D    
C1    C115  S    
C215  O38   A    
C23   O23   D    
C199  N12   S    
C208  C213  A    
C155  H179  S    
C181  H84   S    
C192  C205  S    
C146  C185  A    
C69   C77   A    
C147  C148  S    
C253  C260  A    
C120  C127  A    
C158  H5    S    
C105  C107  A    
C133  C142  A    
C122  H96   S    
C220  C229  A    
C19   C21   A    
C216  C218  A    
C252  H148  S    
C175  H67   S    
C159  C160  S    
C172  C173  S    
C95   N17   S    
C213  C224  A    
C214  O37   A    
C170  C171  S    
C242  N20   S    
Cr2   O41   S    
C150  H166  S    
C186  H144  S    
C124  H136  S    
C11   H68   S    
H77   N19   S    
C19   C264  A    
C5    C27   A    
C218  C220  A    
C47   C51   A    
C255  C261  A    
C259  H24   S    
C256  C258  A    
C62   C64   A    
C129  H129  S    
C153  H174  S    
C1    O16   A    
C206  C237  A    
C253  H128  S    
C113  H133  S    
C40   C42   A    
Cr5   O24   S    
C93   C95   A    
C183  H88   S    
C227  O45   D    
C48   C72   A    
C173  H62   S    
C135  H137  S    
C161  H28   S    
C207  C245  A    
C81   C83   A    
C228  N21   Am   
C105  C111  A    
C210  H121  S    
C33   C40   A    
C2    O54   S    
C120  C129  A    
C180  H81   S    
C27   C80   A    
C194  O29   A    
C238  O39   A    
Cr6   O29   S    
H22   N15   S    
C51   C53   A    
Cr3   O37   S    
C170  H54   S    
C160  H27   S    
C145  H157  S    
C46   C68   A    
C148  H163  S    
C162  H32   S    
C36   C75   A    
Cr1   O1    S    
C50   C52   A    
H17   N13   S    
C95   C116  A    
C30   C59   A    
C239  O12   A    
C46   C120  A    
C171  H55   S    
C32   C37   A    
C222  C224  A    
C43   C45   A    
C144  C221  A    
C175  H66   S    
C32   C67   A    
C163  H34   S    
C215  O36   A    
Cr4   O20   S    
C80   H111  S    
C249  C260  A    
C53   N25   Am   
C192  O27   A    
C112  C116  S    
C5    O4    D    
C78   C85   A    
C158  H3    S    
C49   C199  A    
C132  C141  A    
C174  H64   S    
C178  H80   S    
C131  H126  S    
C46   C113  A    
C211  C213  A    
C244  N21   S    
C86   H120  S    
H6    N7    S    
C9    H107  S    
C223  C225  A    
C214  O35   A    
C226  C228  A    
C91   C114  A    
C237  C241  A    
C55   N25   Am   
C221  H122  S    
C10   H57   S    
C22   O48   S    
C219  C222  A    
H18   N13   S    
C62   H115  S    
C260  N5    S    
C166  C167  S    
C106  C108  A    
C13   C254  A    
C225  C227  A    
C25   O34   D    
H154  N6    S    
C237  H2    S    
C30   C190  S    
C74   C85   A    
C140  N4    Am   
C170  H53   S    
C233  O57   S    
C87   N26   Am   
Cr4   O18   S    
C168  C247  A    
C152  C153  S    
C222  C230  A    
Cr1   O16   S    
C150  C151  S    
C230  N21   Am   
C161  H30   S    
C177  H72   S    
C220  C223  A    
C148  H160  S    
H75   N18   S    
C169  H52   S    
C177  H71   S    
C34   C37   A    
H14   N10   S    
H7    N7    S    
C52   O5    D    
C14   H90   S    
C176  H69   S    
C149  H165  S    
C112  O17   A    
C212  C223  A    
C134  C137  A    
C179  C248  A    
Cr6   O27   S    
C40   H102  S    
C165  O53   S    
C96   H1    S    
C137  C139  A    
C16   N23   S    
C146  H138  S    
C238  O1    A    
C205  C234  A    
C138  C186  A    
C225  C258  A    
C99   C116  A    
C172  H59   S    
C125  C157  A    
C6    H108  S    
C101  C109  A    
C31   C191  S    
H10   N9    S    
C209  C212  A    
C1    O32   A    
C32   C39   A    
C28   C238  S    
H155  N6    S    
C217  O59   S    
C152  H171  S    
C65   N24   S    
C254  O53   S    
Cr2   O36   S    
C54   N24   Am   
C130  C132  A    
C23   N1    Am   
C200  N8    S    
H40   N16   S    
C245  C251  A    
Cr5   O25   S    
C167  H50   S    
C107  C109  A    
H12   N10   S    
C184  H93   S    
C145  C147  S    
C41   O49   S    
C143  C210  A    
C137  C185  A    
C247  C249  A    
C82   H113  S    
Cr2   O33   S    
C178  O58   S    
C231  C242  A    
C232  C254  A    
C24   N4    S    
C196  C198  A    
C185  H143  S    
C6    C8    A    
C141  N3    Am   
C131  C133  A    
C4    O3    D    
C100  C103  A    
C144  H124  S    
C31   C60   A    
C197  C200  A    
C88   O8    D    
C154  H177  S    
C94   N16   S    
C183  H89   S    
C81   H112  S    
C233  C244  A    
C59   H97   S    
C165  H44   S    
C12   C15   A    
C166  H47   S    
C182  O59   S    
C21   O47   S    
C151  H170  S    
C48   H106  S    
C26   C78   A    
C49   H117  S    
C182  H86   S    
C148  H162  S    
C192  O25   A    
C34   C74   A    
C96   C121  A    
C7    C16   A    
C20   C22   A    
C149  O48   S    
C98   C100  A    
C245  C247  A    
C232  H141  S    
C102  N15   S    
C172  H60   S    
C162  O52   S    
C152  O49   S    
C261  N6    S    
C180  C181  S    
C162  C163  S    
C10   C28   A    
Cr4   O31   S    
C181  H83   S    
C205  C236  A    
C22   C77   A    
C157  H140  S    
C35   C101  A    
C128  C130  A    
H41   N17   S    
C262  N1    Am   
C4    C26   A    
C25   N12   Am   
C172  O55   S    
H15   N11   S    
H8    N8    S    
H9    N8    S    
C35   C57   A    
C241  C244  A    
C36   C38   A    
C197  C263  A    
C149  C150  S    
C200  C252  A    
C121  C188  A    
C216  O58   S    
C164  H37   S    
C24   C144  A    
C152  H173  S    
C201  C253  A    
C236  H172  S    
C90   C125  A    
C150  H167  S    
C13   C143  A    
C211  C250  A    
C98   N11   S    
C231  O55   S    
C256  H150  S    
C99   C102  A    
C77   H104  S    
C60   H98   S    
C167  H48   S    
C112  O33   A    
C219  N19   S    
C87   O7    D    
C51   C84   A    
C166  H45   S    
C209  C249  A    
C240  H35   S    
C57   C105  A    
C165  C166  S    
C169  C170  S    
C57   C79   A    
C203  C214  S    
C35   C119  A    
C163  C164  S    
C173  H61   S    
C98   C115  A    
C246  C252  A    
C173  C174  S    
C147  H158  S    
C15   N22   S    
C79   C187  A    
C106  C114  A    
C17   C26   A    
C180  H82   S    
C39   H101  S    
C209  C256  A    
C11   C14   A    
C12   H79   S    
C189  H146  S    
Cr5   O22   S    
Cr6   O30   S    
H16   N11   S    
C56   C65   A    
C168  C201  A    
C151  H168  S    
Cr3   O40   S    
C69   C71   A    
C70   C74   A    
C135  C189  A    
H21   N15   S    
C117  C194  S    
C75   C86   A    
C92   C103  A    
C6    C15   A    
C145  H156  S    
C104  N2    S    
C58   C66   A    
C202  C255  A    
C108  C110  A    
C164  H38   S    
C133  C136  A    
C114  C135  A    
C123  C146  A    
C171  H58   S    
C122  C199  A    
H20   N14   S    
C2    C243  A    
C44   C47   A    
C9    C29   A    
C163  H33   S    
H153  N5    S    
C17   C70   A    
C155  H180  S    
C181  H85   S    
C118  C221  A    
C54   O62   D    
C5    N23   Am   
C68   C106  A    
C235  H131  S    
C93   C104  A    
H76   N19   S    
C72   H149  S    
C158  H4    S    
C174  H65   S    
C73   C204  A    
C246  C248  A    
C3    C20   A    
C157  C186  A    
C136  C138  A    
C25   C202  A    
C36   C82   A    
C58   H100  S    
C179  C197  A    
C194  O18   A    
C79   C123  A    
C236  C240  A    
C8    H105  S    
C206  C235  A    
C257  C259  A    
C250  C261  A    
C190  O22   A    
C97   C122  A    
C92   H134  S    
H19   N14   S    
C93   H135  S    
Cr5   O26   S    
C240  C242  A    
C153  H175  S    
C102  C104  A    
C233  C235  A    
C110  C113  A    
C38   C47   A    
C10   C12   A    
C176  C177  S    
C156  H182  S    
C140  O15   D    
C2    C24   A    
C207  C212  A    
C14   C16   A    
C142  N4    Am   
C161  H29   S    
C91   O13   D    
C89   N26   Am   
C118  C243  A    
C96   C203  A    
C145  O47   S    
C63   H116  S    
C89   O11   D    
C7    C9    A    
C257  H161  S    
C169  H51   S    
C193  C206  S    
C84   N10   S    
C110  O52   S    
C18   C27   A    
C176  H70   S    
C175  O57   S    
C143  H123  S    
C224  C226  A    
C226  C259  A    
C124  C187  A    
C239  O40   A    
Cr6   O28   S    
C217  C219  A    
C128  H127  S    
C89   C111  A    
Cr3   O38   S    
C196  C262  A    
C184  H91   S    
C53   O6    D    
C162  H31   S    
C71   C75   A    
C169  O54   S    
H39   N16   S    
C130  H125  S    
C178  H78   S    
C17   C19   A    
C171  H56   S    
C18   C20   A    
C198  N7    S    
C251  H147  S    
C160  C161  S    
C164  H36   S    
C11   C29   A    
C73   H151  S    
Cr4   O19   S    
C168  C196  A    
C67   C76   A    
C67   C70   A    
C228  O56   D    
C153  C154  S    
C187  H145  S    
C29   C239  S    
C129  C131  A    
C90   C189  A    
