data_mof_unit_31545.cif
_audit_creation_date              2012-10-26T17:13:02-0400
_audit_creation_method            fapswitch 2.2
_symmetry_space_group_name_H-M    P1
_symmetry_Int_Tables_number       1
_space_group_crystal_system       triclinic
_cell_length_a                    16.804091
_cell_length_b                    16.834876
_cell_length_c                    16.844052
_cell_angle_alpha                 67.541621
_cell_angle_beta                  67.556098
_cell_angle_gamma                 67.63498
_cell_volume                      3913.52106898

loop_
_atom_site_label
_atom_site_type_symbol
_atom_type_description
_atom_site_fract_x
_atom_site_fract_y
_atom_site_fract_z
_atom_type_partial_charge
C1    C     C_R   0.319590 0.973062 0.446368 -0.000677
C2    C     C_R   0.308843 0.431119 0.010065 -0.003273
C3    C     C_R   0.545905 0.425670 0.964810 0.024305
C4    C     C_R   0.990441 0.463369 0.590982 0.025271
C5    C     C_R   0.946801 0.554129 0.427863 0.025192
C6    C     C_R   0.984167 0.694772 0.567788 -0.002582
C7    C     C_R   0.950440 0.322487 0.454752 -0.001288
C8    C     C_R   0.445575 0.014293 0.445182 -0.005159
C9    C     C_R   0.537662 0.041323 0.538382 -0.005159
C10   C     C_R   0.955819 0.462145 0.463110 -0.005454
C11   C     C_R   0.982438 0.555241 0.555600 -0.005403
C12   C     C_R   0.451840 0.450509 0.993910 -0.005303
C13   C     C_R   0.548547 0.549431 0.005651 -0.004955
C14   C     C_R   0.013690 0.831769 0.569477 0.559857
C15   C     C_R   0.674238 0.057556 0.544192 -0.002364
C16   C     C_R   0.973058 0.171438 0.434938 0.554929
C17   C     C_R   0.831770 0.569792 0.013442 0.556647
C18   C     C_R   0.168303 0.430236 0.986421 0.559184
C19   C     C_R   0.565179 0.026630 0.828556 0.555866
C20   C     C_R   0.430494 0.986225 0.168224 0.558258
C21   C     C_R   0.435111 0.171601 0.972391 0.544193
C22   C     C_R   0.564939 0.828398 0.027519 0.560139
C23   C     C_R   0.971215 0.435568 0.171893 0.551280
C24   C     C_R   0.025127 0.565682 0.828544 0.552298
C25   C     C_R   0.171520 0.974292 0.434502 0.561667
C26   C     C_R   0.941913 0.456003 0.325762 -0.002763
C27   C     C_R   0.828112 0.028858 0.564358 0.544411
C28   C     C_R   0.399585 0.999915 0.398956 0.023940
C29   C     C_R   0.586111 0.048597 0.586980 0.023935
C30   C     C_R   0.949379 0.413450 0.414271 0.023863
C31   C     C_R   0.997356 0.601311 0.601407 0.023424
C32   C     C_R   0.403344 0.401605 0.987292 0.024735
C33   C     C_R   0.596986 0.598382 0.012272 0.025413
C34   C     C_R   0.268761 0.968681 0.397518 -0.026711
C35   C     C_R   0.728595 0.046210 0.597842 -0.026075
C36   C     C_R   0.953764 0.402156 0.271378 -0.025873
C37   C     C_R   0.023575 0.553853 0.681584 -0.002518
C38   C     C_R   0.029585 0.602609 0.731635 -0.026554
C39   C     C_R   0.398376 0.269041 0.963618 -0.026613
C40   C     C_R   0.601795 0.730960 0.036121 -0.026868
C41   C     C_R   0.598532 0.042215 0.729902 -0.024373
C42   C     C_R   0.390367 0.991124 0.261421 -0.020927
C43   C     C_R   0.737885 0.610689 0.009910 -0.022849
C44   C     C_R   0.262312 0.389382 0.989732 -0.023344
C45   C     C_R   0.008162 0.738573 0.609717 -0.021420
C46   C     C_R   0.956833 0.270234 0.401591 -0.024338
C47   C     C_R   0.453772 0.048170 0.713455 -0.114062
C48   C     C_R   0.449240 0.322842 0.958786 -0.001883
C49   C     C_R   0.505758 0.053029 0.259550 -0.114843
C50   C     C_R   0.946436 0.740610 0.494266 -0.115313
C51   C     C_R   0.946919 0.287470 0.546957 -0.114626
C52   C     C_R   0.735738 0.499800 0.946400 -0.114623
C53   C     C_R   0.264647 0.500384 0.052901 -0.114801
C54   C     C_R   0.291950 0.954700 0.540575 -0.112523
C55   C     C_R   0.703374 0.078583 0.449401 -0.120622
C56   C     C_R   0.543651 0.301282 0.926209 -0.119724
C57   C     C_R   0.456664 0.698621 0.073446 -0.114611
C58   C     C_R   0.921702 0.550785 0.296388 -0.120988
C59   C     C_R   0.551038 0.677106 0.040878 -0.000298
C60   C     C_R   0.039875 0.459721 0.709927 -0.120133
C61   C     C_R   0.307961 0.971940 0.307362 -0.165372
C62   C     C_R   0.688746 0.041125 0.688844 -0.166946
C63   C     C_R   0.958972 0.311071 0.311260 -0.165261
C64   C     C_R   0.027252 0.692582 0.691990 -0.165097
C65   C     C_R   0.306932 0.306636 0.971656 -0.163559
C66   C     C_R   0.693235 0.693410 0.028053 -0.163056
C67   C     C_R   0.653320 0.075453 0.400672 0.010711
C68   C     C_R   0.332012 0.977354 0.584609 0.013358
C69   C     C_R   0.016168 0.416178 0.670240 0.009092
C70   C     C_R   0.545631 0.046930 0.678043 -0.001193
C71   C     C_R   0.924434 0.599543 0.346581 0.009914
C72   C     C_R   0.408558 0.647885 0.070684 0.013987
C73   C     C_R   0.591814 0.352101 0.928797 0.012054
C74   C     C_R   0.554628 0.061445 0.305678 0.009586
C75   C     C_R   0.412902 0.024609 0.671363 0.009898
C76   C     C_R   0.312290 0.548263 0.060585 0.011893
C77   C     C_R   0.688119 0.451899 0.938661 0.011850
C78   C     C_R   0.969244 0.329729 0.588716 0.010915
C79   C     C_R   0.938000 0.694523 0.445441 0.009267
C80   C     C_R   0.682596 0.095517 0.307005 -0.128684
C81   C     C_R   0.432598 0.014531 0.305363 -0.002060
C82   C     C_R   0.293138 0.975403 0.675041 -0.124173
C83   C     C_R   0.016202 0.326175 0.709678 -0.132891
C84   C     C_R   0.905482 0.693148 0.316869 -0.128831
C85   C     C_R   0.314858 0.669823 0.103160 -0.126276
C86   C     C_R   0.685511 0.330402 0.895980 -0.129048
C87   C     C_R   0.632826 0.090054 0.259794 -0.125965
C88   C     C_R   0.331326 0.002706 0.717093 -0.125076
C89   C     C_R   0.267162 0.620176 0.098550 -0.125488
C90   C     C_R   0.733225 0.380176 0.900407 -0.126162
C91   C     C_R   0.989051 0.284345 0.671111 -0.128834
C92   C     C_R   0.691470 0.568958 0.989426 -0.002869
C93   C     C_R   0.910716 0.740359 0.366695 -0.125978
C94   C     C_R   0.524731 0.041579 0.399041 0.024781
C95   C     C_R   0.454262 0.022612 0.582533 0.024437
C96   C     C_R   0.972599 0.418263 0.547185 0.024904
C97   C     C_R   0.956559 0.601272 0.475879 0.024427
C98   C     C_R   0.406223 0.524686 0.029131 0.024448
C99   C     C_R   0.594186 0.475301 0.970342 0.024311
C100  C     C_R   0.572608 0.051551 0.446212 0.025515
C101  C     C_R   0.410728 0.004565 0.537333 0.024767
C102  C     C_R   0.454493 0.574272 0.034727 0.024712
Cu1   Cu    Cu3+1 0.995180 0.995180 0.424630 0.899057
Cu2   Cu    Cu3+1 0.004820 0.004820 0.575370 0.897433
Cu3   Cu    Cu3+1 0.995180 0.424630 0.995180 0.897584
Cu4   Cu    Cu3+1 0.004820 0.575370 0.004820 0.902579
Cu5   Cu    Cu3+1 0.424630 0.995180 0.995180 0.902418
Cu6   Cu    Cu3+1 0.575370 0.004820 0.004820 0.900231
H1    H     H_    0.272418 0.962008 0.271636 0.156307
H2    H     H_    0.987211 0.215480 0.703687 0.101646
H3    H     H_    0.805590 0.361669 0.875133 0.109619
H4    H     H_    0.194776 0.638947 0.123440 0.109112
H5    H     H_    0.231603 0.955993 0.712176 0.104115
H6    H     H_    0.743926 0.115365 0.270263 0.105464
H7    H     H_    0.721999 0.274567 0.867351 0.104062
H8    H     H_    0.278351 0.725801 0.131592 0.107765
H9    H     H_    0.886764 0.729841 0.255103 0.105626
H10   H     H_    0.034304 0.289150 0.771733 0.100486
H11   H     H_    0.410391 0.068625 0.772344 0.150614
H12   H     H_    0.729789 0.032454 0.729492 0.157140
H13   H     H_    0.524645 0.080206 0.187973 0.153118
H14   H     H_    0.919923 0.812215 0.474910 0.153450
H15   H     H_    0.925931 0.228525 0.589579 0.149066
H16   H     H_    0.807092 0.484060 0.915511 0.147828
H17   H     H_    0.193314 0.516222 0.083759 0.147975
H18   H     H_    0.240194 0.921564 0.581843 0.145323
H19   H     H_    0.762948 0.100848 0.411766 0.143949
H20   H     H_    0.580467 0.247363 0.895136 0.137488
H21   H     H_    0.419817 0.752482 0.104591 0.137957
H22   H     H_    0.900403 0.588506 0.236464 0.146167
H23   H     H_    0.968503 0.270203 0.270171 0.158407
H24   H     H_    0.072809 0.417787 0.761492 0.148200
H25   H     H_    0.038004 0.728139 0.727068 0.157174
H26   H     H_    0.269434 0.269795 0.966281 0.157085
H27   H     H_    0.730689 0.730236 0.033522 0.157728
H28   H     H_    0.299005 0.003361 0.786258 0.103611
H29   H     H_    0.656680 0.106127 0.187518 0.107082
H30   H     H_    0.895612 0.812574 0.342422 0.106853
O1    O     O_R   0.124540 0.978640 0.385460 -0.501039
O2    O     O_R   0.124540 0.385460 0.978640 -0.511435
O3    O     O_R   0.021360 0.875460 0.614540 -0.510522
O4    O     O_R   0.978640 0.124540 0.385460 -0.511124
O5    O     O_R   0.013780 0.867370 0.487190 -0.518022
O6    O     O_R   0.986220 0.132630 0.512810 -0.519401
O7    O     O_R   0.867370 0.487190 0.013780 -0.515100
O8    O     O_R   0.132630 0.512810 0.986220 -0.513122
O9    O     O_R   0.487190 0.013780 0.867370 -0.519856
O10   O     O_R   0.512810 0.986220 0.132630 -0.518761
O11   O     O_R   0.512810 0.132630 0.986220 -0.524498
O12   O     O_R   0.875460 0.021360 0.614540 -0.513618
O13   O     O_R   0.487190 0.867370 0.013780 -0.508035
O14   O     O_R   0.986220 0.512810 0.132630 -0.525346
O15   O     O_R   0.013780 0.487190 0.867370 -0.528399
O16   O     O_R   0.132630 0.986220 0.512810 -0.513282
O17   O     O_R   0.867370 0.013780 0.487190 -0.526564
O18   O     O_R   0.978640 0.385460 0.124540 -0.504607
O19   O     O_R   0.021360 0.614540 0.875460 -0.502720
O20   O     O_R   0.385460 0.124540 0.978640 -0.513552
O21   O     O_R   0.614540 0.875460 0.021360 -0.502750
O22   O     O_R   0.614540 0.021360 0.875460 -0.510928
O23   O     O_R   0.385460 0.978640 0.124540 -0.512390
O24   O     O_R   0.875460 0.614540 0.021360 -0.513574

loop_
_geom_bond_atom_site_label_1
_geom_bond_atom_site_label_2
_ccdc_geom_bond_type
Cu3   O15   S    
C23   O14   A    
C6    C45   A    
C51   H15   S    
C21   O20   A    
C74   C94   A    
C17   O7    A    
C50   H14   S    
C61   H1    S    
C50   C79   A    
C60   H24   S    
C72   C85   A    
C75   C95   A    
Cu6   O21   S    
C54   H18   S    
C89   H4    S    
C19   O22   A    
C90   H3    S    
C83   H10   S    
C57   H21   S    
C16   O6    A    
C79   C93   A    
C80   C87   A    
C18   C44   S    
C58   C71   A    
C57   C59   A    
C54   C68   A    
C22   O21   A    
C76   C98   A    
C2    C32   A    
C80   H6    S    
C49   C81   A    
C93   H30   S    
C4    C96   A    
Cu5   O23   S    
C78   C96   A    
C84   H9    S    
C1    C28   A    
C24   C38   S    
Cu5   Cu6   S    
C20   O10   A    
C3    C12   A    
C63   H23   S    
C74   C87   A    
C36   C63   A    
C8    C101  A    
C9    C95   A    
C62   H12   S    
C65   H26   S    
C9    C29   A    
C25   C34   S    
Cu5   O13   S    
C47   H11   S    
C6    C31   A    
C25   O16   A    
C14   O3    A    
C11   C31   A    
C33   C59   A    
C7    C30   A    
C40   C66   A    
C23   O18   A    
C12   C32   A    
C39   C65   A    
C44   C65   A    
C42   C81   A    
C41   C62   A    
C87   H29   S    
C15   C35   A    
C4    C69   A    
C1    C34   A    
C15   C29   A    
C14   C45   S    
C38   C64   A    
C27   O17   A    
C49   H13   S    
C77   C90   A    
Cu4   O14   S    
C7    C46   A    
C8    C94   A    
C68   C101  A    
C88   H28   S    
C86   C90   A    
C33   C92   A    
C2    C44   A    
C85   C89   A    
C22   C40   S    
C27   C35   S    
C10   C96   A    
C98   C102  A    
C34   C61   A    
C19   O9    A    
C31   C37   A    
C86   H7    S    
C15   C55   A    
C13   C99   A    
C16   O4    A    
C1    C54   A    
C17   C43   S    
C47   C70   A    
C13   C33   A    
C37   C38   A    
C69   C83   A    
Cu1   O1    S    
Cu5   O9    S    
C10   C30   A    
C20   C42   S    
C21   C39   S    
C94   C100  A    
C66   H27   S    
Cu3   O7    S    
C71   C84   A    
Cu2   O6    S    
C49   C74   A    
C6    C50   A    
C4    C11   A    
C18   O2    A    
C26   C58   A    
C42   C61   A    
C53   H17   S    
C67   C100  A    
Cu1   O17   S    
C5    C97   A    
C26   C30   A    
C27   O12   A    
C21   O11   A    
C8    C28   A    
C52   C92   A    
C53   C76   A    
C22   O13   A    
C16   C46   S    
C52   C77   A    
Cu1   O4    S    
Cu5   O20   S    
C24   O15   A    
C91   H2    S    
C29   C70   A    
C26   C36   A    
C48   C56   A    
C64   H25   S    
C56   C73   A    
C25   O1    A    
C28   C81   A    
C24   O19   A    
C12   C98   A    
C79   C97   A    
C85   H8    S    
C67   C80   A    
C82   H5    S    
C55   H19   S    
C18   O8    A    
C2    C53   A    
Cu1   O5    S    
C55   C67   A    
Cu2   O12   S    
Cu6   O22   S    
Cu4   O24   S    
C78   C91   A    
C9    C100  A    
Cu4   O19   S    
C83   C91   A    
Cu3   Cu4   S    
C76   C89   A    
C45   C64   A    
C95   C101  A    
C43   C92   A    
Cu4   O8    S    
C46   C63   A    
C11   C97   A    
C68   C82   A    
C14   O5    A    
C51   C78   A    
C7    C51   A    
C5    C10   A    
C5    C71   A    
Cu3   O2    S    
C52   H16   S    
C32   C48   A    
C72   C102  A    
C60   C69   A    
C58   H22   S    
C43   C66   A    
C82   C88   A    
C20   O23   A    
C77   C99   A    
C35   C62   A    
C84   C93   A    
C56   H20   S    
C57   C72   A    
C3    C73   A    
C73   C86   A    
C37   C60   A    
C17   O24   A    
C47   C75   A    
Cu6   O11   S    
C3    C99   A    
C75   C88   A    
Cu3   O18   S    
C23   C36   S    
Cu1   Cu2   S    
C40   C59   A    
Cu2   O3    S    
C41   C70   A    
Cu2   O16   S    
C13   C102  A    
C19   C41   S    
C39   C48   A    
Cu6   O10   S    
