data_mof_unit_27575.cif
_audit_creation_date              2012-12-10T17:02:16-0500
_audit_creation_method            fapswitch 2.2
_symmetry_space_group_name_H-M    P1
_symmetry_Int_Tables_number       1
_space_group_crystal_system       triclinic
_cell_length_a                    10.648301
_cell_length_b                    10.717141
_cell_length_c                    10.058442
_cell_angle_alpha                 90.50318
_cell_angle_beta                  90.032393
_cell_angle_gamma                 90.442404
_cell_volume                      1147.78408364

loop_
_atom_site_label
_atom_site_type_symbol
_atom_type_description
_atom_site_fract_x
_atom_site_fract_y
_atom_site_fract_z
_atom_type_partial_charge
C1    C     C_R   0.495450 0.262734 0.499090 0.942986
C2    C     C_R   0.067159 0.608361 0.571974 0.098623
C3    C     C_R   0.128533 0.513453 0.499512 -0.088498
C4    C     C_R   0.063502 0.424499 0.424505 -0.196132
C5    C     C_R   0.935220 0.424619 0.424656 -0.185316
C6    C     C_R   0.871951 0.513242 0.500417 -0.096764
C7    C     C_2   0.516055 0.932780 0.390327 -0.230950
C8    C     C_2   0.542009 0.867968 0.500735 -0.171109
C9    C     C_2   0.520511 0.067073 0.388649 -0.112324
C10   C     C_2   0.483011 0.130792 0.495764 -0.278801
C11   C     C_2   0.581475 0.560402 0.927551 -0.142120
C12   C     C_R   0.260691 0.503902 0.499985 0.861380
C13   C     C_2   0.592004 0.544462 0.075784 -0.063066
C14   C     C_R   0.508683 0.737506 0.500654 0.818557
C15   C     C_R   0.739450 0.504250 0.500175 0.861228
C16   C     C_R   0.133188 0.705103 0.639452 -0.166506
C17   C     C_R   0.068734 0.796783 0.710268 -0.135237
C18   C     C_R   0.938209 0.795094 0.713312 -0.102441
C19   C     C_R   0.871666 0.702509 0.644400 -0.167434
C20   C     C_R   0.935442 0.607644 0.573445 0.084104
H1    H     H_    0.112398 0.353043 0.368219 0.160948
H2    H     H_    0.445637 0.085253 0.583523 0.154636
H3    H     H_    0.644326 0.627466 0.881590 0.173830
H4    H     H_    0.678118 0.574706 0.124266 0.162141
H5    H     H_    0.414308 0.493696 0.104197 0.171129
H6    H     H_    0.234432 0.712278 0.636701 0.156963
H7    H     H_    0.120222 0.869960 0.761953 0.151362
H8    H     H_    0.888338 0.866563 0.768020 0.157311
H9    H     H_    0.770551 0.707259 0.646224 0.157253
H10   H     H_    0.884932 0.353389 0.368262 0.169063
H11   H     H_    0.478273 0.887912 0.301454 0.184098
H12   H     H_    0.551108 0.112788 0.298110 0.186859
N1    N     N_2   0.501340 0.501330 0.852150 -0.169960
N2    N     N_2   0.501380 0.501360 0.147810 -0.178926
O1    O     O_R   0.499980 0.319060 0.613040 -0.597446
O2    O     O_R   0.500020 0.319100 0.386900 -0.611065
O3    O     O_R   0.316750 0.499980 0.613090 -0.592136
O4    O     O_R   0.316790 0.500020 0.386950 -0.619880
O5    O     O_R   0.499980 0.680900 0.613100 -0.599862
O6    O     O_R   0.500020 0.680940 0.386960 -0.616035
O7    O     O_R   0.683210 0.499980 0.613050 -0.623468
O8    O     O_R   0.683250 0.500020 0.386910 -0.615453
Zn1   Zn    Zn3+2 0.499970 0.499970 0.650990 1.008539
Zn2   Zn    Zn3+2 0.500030 0.500030 0.349010 0.963058
C21   C     C_2   0.452108 0.383907 0.894060 1.038563
O9    O     O_2   0.344933 0.354276 0.863095 -0.629019
O10   O     O_R   0.527960 0.299530 0.962239 -0.809316
H13   H     H_    0.482099 0.218984 0.983872 0.334609
C22   C     C_2   0.616351 0.920524 0.614819 0.887055
O11   O     O_2   0.595180 0.886220 0.728333 -0.638713
O12   O     O_R   0.711689 0.008191 0.591448 -0.787410
H14   H     H_    0.753687 0.038508 0.676362 0.341091

loop_
_geom_bond_atom_site_label_1
_geom_bond_atom_site_label_2
_ccdc_geom_bond_type
O3    Zn1   S    
O5    Zn1   S    
O4    Zn2   S    
O12   H14   S    
C11   N1    D    
C2    C16   A    
N1    C21   S    
C9    C10   D    
C15   O8    A    
C19   C20   A    
O6    Zn2   S    
H5    N2    S    
O1    Zn1   S    
C17   C18   A    
C14   O5    A    
N2    Zn2   S    
C7    C8    D    
C19   H9    S    
C21   O9    D    
C10   H2    S    
C12   O4    A    
C4    H1    S    
O7    Zn1   S    
C15   O7    A    
O8    Zn2   S    
C6    C20   A    
C4    C5    A    
C11   H3    S    
C2    C3    A    
C21   O10   S    
C16   H6    S    
C5    C6    A    
O2    Zn2   S    
C11   C13   S    
C7    H11   S    
C2    C20   A    
C3    C4    A    
C17   H7    S    
C13   N2    D    
C18   H8    S    
C1    O1    A    
C22   O11   D    
C5    H10   S    
C12   O3    A    
C7    C9    S    
C18   C19   A    
C8    C14   S    
C3    C12   S    
C9    H12   S    
C6    C15   S    
C1    O2    A    
C14   O6    A    
C8    C22   S    
C1    C10   S    
O10   H13   S    
C13   H4    S    
C16   C17   A    
C22   O12   S    
N1    Zn1   S    
