data_mof_unit_18200.cif
_audit_creation_date              2012-12-10T16:59:19-0500
_audit_creation_method            fapswitch 2.2
_symmetry_space_group_name_H-M    P1
_symmetry_Int_Tables_number       1
_space_group_crystal_system       triclinic
_cell_length_a                    7.797909
_cell_length_b                    8.564972
_cell_length_c                    27.724453
_cell_angle_alpha                 92.501006
_cell_angle_beta                  84.870875
_cell_angle_gamma                 93.165918
_cell_volume                      1840.06077608

loop_
_atom_site_label
_atom_site_type_symbol
_atom_type_description
_atom_site_fract_x
_atom_site_fract_y
_atom_site_fract_z
_atom_type_partial_charge
C1    C     C_R   0.544405 0.794326 0.498984 0.907221
C2    C     C_R   0.455595 0.205674 0.501015 0.907220
C3    C     C_R   0.473857 0.510373 0.899255 -0.140220
C4    C     C_R   0.526143 0.489626 0.100745 -0.140219
C5    C     C_R   0.517317 0.650249 0.874864 -0.169451
C6    C     C_R   0.482683 0.349750 0.125136 -0.169451
C7    C     C_R   0.554838 0.788070 0.901695 0.689847
C8    C     C_R   0.445161 0.211929 0.098305 0.689847
C9    C     C_R   0.418867 0.375522 0.872877 -0.124167
C10   C     C_R   0.581134 0.624477 0.127123 -0.124167
C11   C     C_R   0.499801 0.501826 0.646943 -0.296362
C12   C     C_R   0.500198 0.498173 0.353057 -0.296363
C13   C     C_R   0.562586 0.636099 0.026051 -0.032217
C14   C     C_R   0.437415 0.363900 0.973949 -0.032217
C15   C     C_R   0.460813 0.357060 0.023959 0.004225
C16   C     C_R   0.539187 0.642939 0.976041 0.004225
C17   C     C_R   0.515489 0.494588 0.050067 0.024936
C18   C     C_R   0.484512 0.505411 0.949933 0.024936
C19   C     C_R   0.638301 0.763025 0.052990 0.595651
C20   C     C_R   0.361700 0.236974 0.947010 0.595650
C21   C     C_R   0.640853 0.758292 0.102793 -0.072966
C22   C     C_R   0.359148 0.241707 0.897207 -0.072965
C23   C     C_R   0.500668 0.499142 0.593990 0.970227
C24   C     C_R   0.499332 0.500858 0.406010 0.970228
C25   C     C_R   0.559723 0.784834 0.951460 -0.167805
C26   C     C_R   0.440277 0.215165 0.048540 -0.167805
C27   C     C_2   0.562950 0.956386 0.506488 0.108217
C28   C     C_2   0.437050 0.043614 0.493512 0.108217
C29   C     C_R   0.517864 0.648172 0.824258 0.683900
C30   C     C_R   0.482135 0.351827 0.175742 0.683901
C31   C     C_R   0.419919 0.379229 0.822560 0.693638
C32   C     C_R   0.580081 0.620770 0.177440 0.693638
C33   C     C_R   0.626588 0.453813 0.721287 0.645787
C34   C     C_R   0.373411 0.546186 0.278713 0.645786
C35   C     C_R   0.636912 0.447501 0.670795 0.305007
C36   C     C_R   0.363088 0.552498 0.329205 0.305007
C37   C     C_R   0.355003 0.559779 0.674512 -0.235358
C38   C     C_R   0.644997 0.440221 0.325487 -0.235358
C39   C     C_R   0.345157 0.564159 0.724721 0.420200
C40   C     C_R   0.654843 0.435841 0.275279 0.420199
C41   C     C_R   0.481478 0.511501 0.748023 -0.035961
C42   C     C_R   0.518522 0.488498 0.251977 -0.035960
H1    H     H_    0.248455 0.602119 0.657131 0.252007
H2    H     H_    0.751545 0.397882 0.342868 0.252008
H3    H     H_    0.695039 0.859382 0.122111 0.242221
H4    H     H_    0.304962 0.140617 0.877889 0.242222
H5    H     H_    0.573574 0.897346 0.969822 0.237989
H6    H     H_    0.426427 0.102653 0.030178 0.237989
N1    N     N_R   0.472280 0.513262 0.799527 -0.330706
N2    N     N_R   0.527719 0.486737 0.200473 -0.330705
N3    N     N_2   0.950320 0.457960 0.486880 0.151511
N4    N     N_2   0.049680 0.542040 0.513120 0.151511
O1    O     O_R   0.389250 0.738570 0.503220 -0.587559
O2    O     O_R   0.610750 0.261430 0.496780 -0.587559
O3    O     O_R   0.678390 0.711630 0.494810 -0.561084
O4    O     O_R   0.321610 0.288370 0.505190 -0.561084
O5    O     O_R   0.355440 0.513440 0.575450 -0.616188
O6    O     O_R   0.644560 0.486560 0.424550 -0.616189
O7    O     O_R   0.644590 0.486500 0.567040 -0.549831
O8    O     O_R   0.355410 0.513500 0.432960 -0.549831
O9    O     O_2   0.564929 0.778527 0.799693 -0.398305
O10   O     O_2   0.435070 0.221472 0.200307 -0.398305
O11   O     O_2   0.629850 0.749951 0.203337 -0.457960
O12   O     O_2   0.370151 0.250048 0.796663 -0.457960
Zn1   Zn    Zn3+2 0.306940 0.517990 0.505620 1.184818
Zn2   Zn    Zn3+2 0.693060 0.482010 0.494380 1.184818
Cl1   Cl    Cl    0.040332 0.321857 0.446016 -0.337832
Cl2   Cl    Cl    0.959668 0.678143 0.553983 -0.337832
Cl3   Cl    Cl    0.159925 0.633973 0.757853 -0.411344
Cl4   Cl    Cl    0.840075 0.366029 0.242147 -0.411343
F1    F     F_    0.583150 0.928069 0.880383 -0.595378
F2    F     F_    0.416849 0.071930 0.119617 -0.595379
Cl5   Cl    Cl    0.179982 0.635545 0.360098 -0.376962
Cl6   Cl    Cl    0.820018 0.364453 0.639902 -0.376962
F3    F     F_    0.243170 0.597978 0.255226 -0.550935
F4    F     F_    0.756829 0.402019 0.744774 -0.550935
F5    F     F_    0.724397 0.887872 0.032037 -0.656215
F6    F     F_    0.275604 0.112127 0.967963 -0.656215
Cl7   Cl    Cl    0.728759 0.023196 0.543779 -0.412600
Cl8   Cl    Cl    0.271241 0.976804 0.456221 -0.412600

loop_
_geom_bond_atom_site_label_1
_geom_bond_atom_site_label_2
_ccdc_geom_bond_type
C35   Cl6   S    
C8    C26   A    
C14   C18   A    
C34   C42   A    
C39   C41   A    
C29   N1    A    
C23   O7    A    
C40   Cl4   S    
C19   C21   A    
C27   Cl7   S    
O7    Zn2   S    
C7    F1    S    
C9    C22   A    
O4    Zn1   S    
C3    C18   A    
C11   C37   A    
C19   F5    S    
C1    O1    A    
O6    Zn2   S    
C12   C36   A    
O1    Zn1   S    
C25   H5    S    
C21   H3    S    
N4    Cl2   S    
C26   H6    S    
C34   F3    S    
C40   C42   A    
C30   N2    A    
C31   N1    A    
C41   N1    S    
C5    C29   A    
C10   C21   A    
C29   O9    S    
C8    F2    S    
C13   C19   A    
N3    N4    D    
C14   C20   A    
C4    C6    A    
C2    O2    A    
C5    C7    A    
C15   C26   A    
C6    C8    A    
N3    Zn2   S    
C37   H1    S    
C38   H2    S    
C3    C9    A    
C33   F4    S    
C24   O8    A    
C39   Cl3   S    
N3    Cl1   S    
C32   N2    A    
C42   N2    S    
C4    C17   A    
C24   O6    A    
C22   H4    S    
C20   C22   A    
O8    Zn1   S    
C30   O10   S    
C4    C10   A    
O3    Zn2   S    
C16   C25   A    
C23   O5    A    
C6    C30   A    
C31   O12   S    
C32   O11   S    
O5    Zn1   S    
C3    C5    A    
C15   C17   A    
O2    Zn2   S    
C20   F6    S    
C12   C24   S    
C7    C25   A    
C13   C17   A    
C33   C41   A    
C11   C35   A    
C1    O3    A    
C37   C39   A    
C2    O4    A    
C38   C40   A    
C11   C23   S    
C33   C35   A    
C34   C36   A    
C12   C38   A    
C28   Cl8   S    
C36   Cl5   S    
C9    C31   A    
C10   C32   A    
C16   C18   A    
C13   C16   A    
C27   C28   D    
C1    C27   S    
C14   C15   A    
C2    C28   S    
N4    Zn1   S    
