data_mof_unit_57015.cif
_audit_creation_date              2012-12-10T17:44:32-0500
_audit_creation_method            fapswitch 2.2
_symmetry_space_group_name_H-M    P1
_symmetry_Int_Tables_number       1
_space_group_crystal_system       triclinic
_cell_length_a                    9.897819
_cell_length_b                    10.70391
_cell_length_c                    15.568212
_cell_angle_alpha                 91.477295
_cell_angle_beta                  67.851665
_cell_angle_gamma                 89.184856
_cell_volume                      1526.65507111

loop_
_atom_site_label
_atom_site_type_symbol
_atom_type_description
_atom_site_fract_x
_atom_site_fract_y
_atom_site_fract_z
_atom_type_partial_charge
C1    C     C_R   0.501012 0.740423 0.494980 0.854584
C2    C     C_R   0.403708 0.537882 0.916474 0.097242
C3    C     C_R   0.259973 0.501222 0.969734 0.151963
C4    C     C_R   0.503518 0.563589 0.959909 0.065296
C5    C     C_R   0.465151 0.533747 0.053973 0.078797
C6    C     C_R   0.319250 0.501331 0.106290 -0.198384
C7    C     C_R   0.218086 0.487323 0.064794 -0.187928
C8    C     C_R   0.640145 0.618157 0.912458 -0.216150
C9    C     C_R   0.740616 0.634365 0.954098 -0.189664
C10   C     C_R   0.709478 0.594602 0.043682 0.088476
C11   C     C_R   0.573163 0.540614 0.093137 0.099734
C12   C     C_R   0.408592 0.501528 0.675800 0.864813
C13   C     C_R   0.811922 0.610121 0.085318 -0.316569
C14   C     C_R   0.779188 0.574366 0.176305 0.612958
C15   C     C_R   0.549395 0.494332 0.180353 -0.333326
C16   C     C_R   0.246827 0.895609 0.486978 -0.154019
C17   C     C_R   0.112241 0.959452 0.518566 -0.229040
C18   C     C_R   0.093457 0.070512 0.570406 -0.203391
C19   C     C_R   0.213231 0.124753 0.581611 0.656707
C20   C     C_R   0.354076 0.067248 0.539784 -0.026882
C21   C     C_R   0.365862 0.943591 0.506137 0.020807
C22   C     C_R   0.496728 0.874989 0.493446 -0.078844
C23   C     C_R   0.494072 0.261590 0.510888 0.937968
C24   C     C_R   0.619958 0.936005 0.494777 -0.199007
C25   C     C_R   0.615734 0.063061 0.507544 -0.219976
C26   C     C_R   0.485091 0.129647 0.526137 -0.098683
C27   C     C_R   0.788974 0.670007 0.618741 -0.141636
C28   C     C_R   0.824871 0.752443 0.676924 -0.244163
C29   C     C_R   0.962939 0.747451 0.679657 -0.179337
C30   C     C_R   0.067400 0.662656 0.621972 -0.111169
C31   C     C_R   0.036438 0.581229 0.559666 0.040481
C32   C     C_R   0.892246 0.582841 0.558846 0.157175
C33   C     C_R   0.963012 0.421069 0.443617 -0.208605
C34   C     C_R   0.591274 0.500932 0.324286 0.926621
C35   C     C_R   0.106358 0.421292 0.443363 0.659557
C36   C     C_R   0.351107 0.507634 0.777020 -0.058033
C37   C     C_R   0.645923 0.517827 0.224407 -0.196057
C38   C     C_R   0.161303 0.475482 0.926589 -0.212717
C39   C     C_R   0.206462 0.479552 0.830395 -0.165994
C40   C     C_R   0.446893 0.538649 0.820252 -0.268513
H1    H     H_    0.108008 0.461120 0.106785 0.193920
H2    H     H_    0.914957 0.653956 0.048622 0.171443
H3    H     H_    0.721380 0.886064 0.484018 0.177497
H4    H     H_    0.256209 0.811633 0.445060 0.187450
H5    H     H_    0.021287 0.920533 0.505327 0.176488
H6    H     H_    0.986774 0.116046 0.600155 0.160262
H7    H     H_    0.716123 0.109158 0.500157 0.174572
H8    H     H_    0.937157 0.356653 0.397660 0.177062
H9    H     H_    0.679074 0.677492 0.623713 0.197478
H10   H     H_    0.743882 0.819114 0.721526 0.155758
H11   H     H_    0.453776 0.441595 0.216770 0.212162
H12   H     H_    0.989737 0.810247 0.726208 0.153256
H13   H     H_    0.171441 0.664001 0.627418 0.197214
H14   H     H_    0.130483 0.456182 0.797752 0.188270
H15   H     H_    0.558202 0.556179 0.776925 0.161558
H16   H     H_    0.278665 0.489616 0.180252 0.178283
H17   H     H_    0.670253 0.653923 0.844072 0.153734
N1    N     N_R   0.856800 0.501200 0.500850 -0.141968
N2    N     N_R   0.142390 0.501280 0.500880 -0.162062
O1    O     O_R   0.385310 0.683220 0.500000 -0.664285
O2    O     O_R   0.614640 0.683250 0.500010 -0.631744
O3    O     O_R   0.319840 0.499980 0.632240 -0.609867
O4    O     O_R   0.549160 0.500000 0.632250 -0.641557
O5    O     O_R   0.385360 0.316750 0.499990 -0.525079
O6    O     O_R   0.614690 0.316780 0.500000 -0.639725
O7    O     O_R   0.450840 0.500000 0.367750 -0.587285
O8    O     O_R   0.680160 0.500020 0.367760 -0.554763
Zn1   Zn    Zn3+2 0.346880 0.499980 0.499990 1.012688
Zn2   Zn    Zn3+2 0.653120 0.500020 0.500010 0.968814
F1    F     F_    0.189748 0.229298 0.637169 -0.680503
F2    F     F_    0.208838 0.340400 0.385495 -0.663408
F3    F     F_    0.874166 0.600122 0.218090 -0.670954
H18   H     H_    0.843502 0.677471 0.915685 0.149168
H19   H     H_    0.050986 0.448136 0.966850 0.151030

loop_
_geom_bond_atom_site_label_1
_geom_bond_atom_site_label_2
_ccdc_geom_bond_type
O7    Zn1   S    
C33   N1    A    
C34   C37   S    
C19   C20   A    
C32   N1    A    
C4    C8    A    
C34   O7    A    
C16   C21   A    
O5    Zn1   S    
C28   C29   A    
C17   H5    S    
C5    C11   A    
C3    C7    A    
C5    C6    A    
C8    H17   S    
C39   H14   S    
C35   N2    A    
C18   C19   A    
C23   C26   S    
C31   N2    A    
C15   C37   A    
C28   H10   S    
O4    Zn2   S    
C3    C38   A    
C16   C17   A    
C15   H11   S    
C12   C36   S    
C9    C10   A    
C25   H7    S    
C35   F2    S    
C1    C22   S    
C21   C22   A    
C9    H18   S    
C18   H6    S    
C13   H2    S    
C38   C39   A    
C30   H13   S    
C36   C40   A    
C24   C25   A    
C1    O1    A    
C12   O4    A    
C8    C9    A    
C25   C26   A    
O8    Zn2   S    
C2    C4    A    
C29   C30   A    
N2    Zn1   S    
C12   O3    A    
C31   C32   A    
C40   H15   S    
C17   C18   A    
C23   O5    A    
C11   C15   A    
C22   C24   A    
C38   H19   S    
O2    Zn2   S    
C24   H3    S    
C16   H4    S    
C27   C32   A    
C14   F3    S    
C36   C39   A    
C6    H16   S    
C4    C5    A    
C10   C13   A    
C1    O2    A    
C34   O8    A    
N1    Zn2   S    
C6    C7    A    
O3    Zn1   S    
C23   O6    A    
C2    C3    A    
C14   C37   A    
C30   C31   A    
C20   C26   A    
O6    Zn2   S    
C33   C35   A    
C7    H1    S    
C10   C11   A    
C2    C40   A    
C20   C21   A    
O1    Zn1   S    
C27   C28   A    
C33   H8    S    
C19   F1    S    
C13   C14   A    
C27   H9    S    
C29   H12   S    
