data_mof_unit_64426.cif
_audit_creation_date              2012-10-26T18:18:41-0400
_audit_creation_method            fapswitch 2.2
_symmetry_space_group_name_H-M    P1
_symmetry_Int_Tables_number       1
_space_group_crystal_system       triclinic
_cell_length_a                    30.935728
_cell_length_b                    29.359692
_cell_length_c                    30.629837
_cell_angle_alpha                 90.167761
_cell_angle_beta                  90.012513
_cell_angle_gamma                 89.811447
_cell_volume                      27819.6908008

loop_
_atom_site_label
_atom_site_type_symbol
_atom_type_description
_atom_site_fract_x
_atom_site_fract_y
_atom_site_fract_z
_atom_type_partial_charge
C1    C     C_R   0.309139 0.000031 0.690710 0.585326
C2    C     C_R   0.627073 0.035138 0.591297 0.044355
C3    C     C_R   0.749937 0.084599 0.250032 0.554669
C4    C     C_R   0.250090 0.415400 0.249895 0.534821
C5    C     C_R   0.749960 0.584595 0.250067 0.553758
C6    C     C_R   0.749745 0.415409 0.249593 0.522411
C7    C     C_R   0.249987 0.584597 0.250002 0.554467
C8    C     C_R   0.120533 0.034927 0.900393 -0.080609
C9    C     C_R   0.877318 0.033639 0.904551 -0.074962
C10   C     C_R   0.618926 0.536921 0.901165 -0.071263
C11   C     C_R   0.378094 0.534354 0.903699 -0.075586
C12   C     C_R   0.587638 0.020925 0.368261 -0.106639
C13   C     C_R   0.867661 0.529011 0.585815 0.086419
C14   C     C_R   0.376022 0.032339 0.405926 -0.074390
C15   C     C_R   0.122147 0.465725 0.403800 -0.076700
C16   C     C_R   0.879381 0.463934 0.402714 -0.081038
C17   C     C_3   0.134096 0.080616 0.917293 0.212761
C18   C     C_3   0.881359 0.084528 0.901527 0.251565
C19   C     C_3   0.645864 0.561180 0.934622 0.246227
C20   C     C_3   0.383304 0.585030 0.899653 0.252832
C21   C     C_3   0.573293 0.068032 0.356114 0.210564
C22   C     C_3   0.377975 0.083466 0.404972 0.248975
C23   C     C_3   0.117429 0.414952 0.400069 0.253979
C24   C     C_R   0.114646 0.456494 0.606252 0.077932
C25   C     C_3   0.851003 0.443904 0.437383 0.250366
C26   C     C_3   0.171680 0.079174 0.882294 0.566001
C27   C     C_3   0.839978 0.084000 0.873226 0.545645
C28   C     C_3   0.681637 0.564448 0.899518 0.553621
C29   C     C_3   0.341926 0.584898 0.871319 0.544968
C30   C     C_3   0.609227 0.067512 0.320006 0.567072
C31   C     C_3   0.336636 0.082300 0.376642 0.546909
C32   C     C_3   0.158811 0.415176 0.371746 0.546371
C33   C     C_3   0.814965 0.440840 0.402473 0.562745
C34   C     C_R   0.941799 0.999950 0.938224 0.572653
C35   C     C_R   0.863853 0.002460 0.078954 0.051483
C36   C     C_R   0.059877 0.999772 0.939873 0.585618
C37   C     C_R   0.441824 0.499919 0.938179 0.576777
C38   C     C_R   0.559805 0.499786 0.939820 0.576237
C39   C     C_R   0.441689 0.999988 0.438360 0.586455
C40   C     C_R   0.560409 0.999833 0.440533 0.582749
C41   C     C_R   0.940051 0.500116 0.439976 0.602494
C42   C     C_R   0.058117 0.499991 0.438119 0.584024
C43   C     C_R   0.440861 0.000240 0.560937 0.595410
C44   C     C_R   0.560486 0.000030 0.559531 0.608172
C45   C     C_R   0.939610 0.499876 0.559586 0.565193
C46   C     C_R   0.094390 0.038572 0.124578 0.117616
C47   C     C_R   0.060480 0.499651 0.559795 0.583288
C48   C     C_R   0.941714 0.000186 0.061240 0.597964
C49   C     C_R   0.058550 0.000171 0.061273 0.596481
C50   C     C_R   0.440183 0.500332 0.060278 0.563291
C51   C     C_R   0.560116 0.499916 0.059859 0.582854
C52   C     C_R   0.190957 0.999816 0.809257 0.632589
C53   C     C_R   0.809027 0.001124 0.809515 0.606765
C54   C     C_R   0.690830 0.501165 0.809394 0.592102
C55   C     C_R   0.309009 0.501224 0.809510 0.607168
C56   C     C_R   0.690776 0.999532 0.309418 0.609319
C57   C     C_R   0.403535 0.538546 0.123588 0.061096
C58   C     C_R   0.309045 0.000961 0.309535 0.609386
C59   C     C_R   0.190997 0.498618 0.309502 0.608034
C60   C     C_R   0.809173 0.499026 0.309407 0.591348
C61   C     C_1   0.249951 0.864116 0.750054 -0.025759
C62   C     C_1   0.749853 0.135865 0.750138 -0.035526
C63   C     C_1   0.750260 0.864128 0.749784 -0.043666
C64   C     C_1   0.249914 0.135875 0.750114 -0.016082
C65   C     C_1   0.749955 0.364117 0.750086 -0.023458
C66   C     C_1   0.249782 0.635866 0.750056 -0.045405
C67   C     C_1   0.250168 0.364127 0.749907 -0.034186
C68   C     C_R   0.630558 0.469281 0.087625 0.068527
C69   C     C_1   0.750734 0.635875 0.749062 -0.053733
C70   C     C_1   0.749909 0.864128 0.250133 -0.046915
C71   C     C_1   0.249868 0.135871 0.250219 -0.041350
C72   C     C_1   0.250189 0.864129 0.249869 -0.047118
C73   C     C_1   0.749870 0.135875 0.249989 -0.032787
C74   C     C_1   0.250023 0.364123 0.249996 -0.043292
C75   C     C_1   0.749870 0.635875 0.250193 -0.027484
C76   C     C_1   0.749708 0.364121 0.249318 -0.052566
C77   C     C_1   0.250000 0.635874 0.249992 -0.036466
C78   C     C_1   0.249925 0.821627 0.750100 -0.035222
C79   C     C_R   0.409846 0.000741 0.596522 -0.010537
C80   C     C_1   0.749881 0.178347 0.750219 -0.050294
C81   C     C_1   0.750420 0.821641 0.749626 -0.043443
C82   C     C_1   0.249934 0.178360 0.750156 -0.045720
C83   C     C_1   0.749947 0.321627 0.750156 -0.031638
C84   C     C_1   0.249806 0.678348 0.750128 -0.053577
C85   C     C_1   0.250156 0.321640 0.749979 -0.041703
C86   C     C_1   0.750772 0.678362 0.749037 -0.045232
C87   C     C_1   0.749868 0.821642 0.250207 -0.044628
C88   C     C_1   0.249868 0.178357 0.250313 -0.050439
C89   C     C_1   0.250210 0.821642 0.249886 -0.042530
C90   C     C_R   0.595995 0.999903 0.590406 0.005507
C91   C     C_1   0.749786 0.178361 0.249892 -0.047975
C92   C     C_1   0.249971 0.321638 0.250135 -0.051537
C93   C     C_1   0.749842 0.678363 0.250243 -0.035867
C94   C     C_1   0.749693 0.321635 0.249365 -0.044067
C95   C     C_1   0.250035 0.678360 0.249990 -0.040501
C96   C     C_1   0.249896 0.771228 0.750149 -0.002918
C97   C     C_1   0.749927 0.228738 0.750254 -0.007427
C98   C     C_1   0.750585 0.771245 0.749404 -0.001435
C99   C     C_1   0.250001 0.228753 0.750149 -0.009454
C100  C     C_1   0.749944 0.271228 0.750228 -0.000044
C101  C     C_R   0.903726 0.498957 0.589939 -0.018101
C102  C     C_1   0.249862 0.728739 0.750164 -0.009335
C103  C     C_1   0.250078 0.271243 0.750088 -0.003689
C104  C     C_1   0.750695 0.728755 0.749213 -0.000965
C105  C     C_1   0.749842 0.771248 0.250253 -0.004095
C106  C     C_1   0.249894 0.228752 0.250343 -0.009577
C107  C     C_1   0.250165 0.771247 0.249932 0.000642
C108  C     C_1   0.749714 0.228754 0.249724 -0.005400
C109  C     C_1   0.249919 0.271243 0.250285 -0.009741
C110  C     C_1   0.749835 0.728759 0.250262 -0.002459
C111  C     C_1   0.749692 0.271242 0.249555 -0.001375
C112  C     C_R   0.690945 0.000194 0.690548 0.595699
C113  C     C_R   0.096370 0.498217 0.590679 -0.000621
C114  C     C_1   0.250104 0.728756 0.249966 0.000449
C115  C     C_R   0.351359 0.962663 0.633523 -0.139062
C116  C     C_R   0.631585 0.963643 0.651155 -0.112010
C117  C     C_R   0.872729 0.468357 0.655717 -0.114950
C118  C     C_R   0.146710 0.539615 0.635989 -0.126356
C119  C     C_R   0.885363 0.007489 0.167362 -0.090461
C120  C     C_R   0.153653 0.967659 0.127893 -0.125817
C121  C     C_R   0.340165 0.471433 0.122545 -0.102339
C122  C     C_R   0.625979 0.531364 0.156842 -0.121746
C123  C     C_R   0.342679 0.001298 0.658243 0.022987
C124  C     C_R   0.907342 0.001368 0.092426 -0.004789
C125  C     C_R   0.658948 0.000709 0.656337 0.020717
C126  C     C_R   0.840958 0.501604 0.656223 0.013876
C127  C     C_R   0.159196 0.499765 0.656768 0.036450
C128  C     C_R   0.841897 0.002721 0.155881 -0.003971
C129  C     C_R   0.157951 0.002583 0.157894 0.003350
C130  C     C_R   0.341290 0.502200 0.156981 0.014687
C131  C     C_R   0.658903 0.499073 0.156234 0.021482
C132  C     C_R   0.371494 0.038297 0.656617 0.114894
C133  C     C_R   0.659015 0.035332 0.624486 0.073121
C134  C     C_R   0.836672 0.530710 0.619899 0.099352
C135  C     C_R   0.090915 0.001299 0.095140 -0.005995
C136  C     C_R   0.145917 0.457685 0.639698 0.124243
C137  C     C_R   0.830854 0.003107 0.110688 0.112860
C138  C     C_R   0.127708 0.038994 0.156380 0.066998
C139  C     C_R   0.371676 0.537658 0.156437 0.109377
C140  C     C_R   0.662911 0.469548 0.120018 0.120698
C141  C     C_3   0.324527 0.990495 0.530880 -0.131329
C142  C     C_3   0.532153 0.001428 0.681360 -0.155076
C143  C     C_3   0.532946 0.870148 0.656775 -0.083154
C144  C     C_3   0.405033 0.871230 0.598860 -0.121241
C145  C     C_3   0.968606 0.391328 0.610088 -0.059150
C146  C     C_R   0.405940 0.502251 0.092626 -0.034182
C147  C     C_3   0.134147 0.616133 0.556358 -0.125177
C148  C     C_3   0.039342 0.621670 0.650807 -0.086720
C149  C     C_3   0.970426 0.518361 0.665524 -0.119078
C150  C     C_3   0.932792 0.905193 0.146430 -0.147511
C151  C     C_3   0.078835 0.887656 0.124010 -0.118042
C152  C     C_3   0.163883 0.961357 0.019518 -0.131423
C153  C     C_3   0.013155 0.990604 0.203464 -0.084920
C154  C     C_3   0.377163 0.412776 0.011037 -0.036511
C155  C     C_3   0.565244 0.621067 0.130106 -0.128712
C156  C     C_3   0.501908 0.515077 0.196703 -0.108432
C157  C     C_R   0.595144 0.499880 0.091155 0.006403
C158  C     C_3   0.429582 0.406916 0.133738 -0.123596
C159  C     C_3   0.100432 0.926513 0.784878 -0.087899
C160  C     C_3   0.841133 0.892553 0.832362 -0.090945
C161  C     C_3   0.597209 0.433553 0.781088 -0.086467
C162  C     C_3   0.337920 0.392263 0.836008 -0.094921
C163  C     C_3   0.691147 0.899288 0.366278 -0.081549
C164  C     C_3   0.345394 0.893133 0.327945 -0.082521
C165  C     C_3   0.161314 0.607425 0.335563 -0.094352
C166  C     C_3   0.905996 0.561129 0.279353 -0.085644
C167  C     C_3   0.095190 0.887992 0.905303 -0.071393
C168  C     C_R   0.384546 0.962270 0.603622 -0.009956
C169  C     C_3   0.968173 0.937388 0.847996 -0.068592
C170  C     C_3   0.590831 0.389684 0.898666 -0.084413
C171  C     C_3   0.465472 0.432887 0.849193 -0.065539
C172  C     C_3   0.657699 0.970785 0.481676 -0.082235
C173  C     C_3   0.471772 0.943883 0.347463 -0.083487
C174  C     C_3   0.034606 0.566228 0.347739 -0.067408
C175  C     C_3   0.912729 0.609617 0.395379 -0.084936
C176  C     C_3   0.176942 0.152702 0.851651 -0.103356
C177  C     C_3   0.764460 0.088730 0.877879 -0.098801
C178  C     C_3   0.844041 0.148048 0.828458 -0.071731
C179  C     C_R   0.600667 0.963351 0.618943 0.060896
C180  C     C_3   0.232550 0.107405 0.921123 -0.126775
C181  C     C_3   0.709779 0.612039 0.845657 -0.103040
C182  C     C_3   0.266530 0.591403 0.875852 -0.097838
C183  C     C_3   0.347410 0.647783 0.825239 -0.072647
C184  C     C_3   0.746731 0.564549 0.938183 -0.069333
C185  C     C_3   0.568659 0.097934 0.260600 -0.115724
C186  C     C_3   0.260985 0.083795 0.381441 -0.103429
C187  C     C_3   0.338096 0.148348 0.334400 -0.072072
C188  C     C_3   0.644255 0.138212 0.310246 -0.106263
C189  C     C_3   0.234261 0.409436 0.376315 -0.101346
C190  C     C_R   0.903170 0.466213 0.623241 -0.006537
C191  C     C_3   0.784561 0.391615 0.350809 -0.094627
C192  C     C_3   0.748629 0.446538 0.438961 -0.091916
C193  C     C_3   0.153884 0.351669 0.326027 -0.072403
C194  C     C_R   0.115578 0.538868 0.604039 0.014372
C195  C     C_R   0.917299 0.007011 0.136224 0.062149
C196  C     C_R   0.809027 0.501281 0.690536 0.588223
C197  C     C_R   0.120988 0.966530 0.098696 -0.049243
C198  C     C_R   0.372177 0.470702 0.091498 -0.008505
C199  C     C_R   0.594962 0.532243 0.124572 0.018449
C200  C     C_3   0.359363 0.931585 0.572956 0.569062
C201  C     C_3   0.568674 0.938726 0.647070 0.537343
C202  C     C_3   0.935947 0.445956 0.655138 0.531696
C203  C     C_3   0.097614 0.584468 0.618091 0.554839
C204  C     C_3   0.948807 0.982711 0.165168 0.523634
C205  C     C_3   0.135295 0.920634 0.080781 0.571746
C206  C     C_3   0.368501 0.419336 0.086568 0.542868
C207  C     C_R   0.191055 0.501395 0.690673 0.590275
C208  C     C_3   0.559978 0.544780 0.157019 0.531655
C209  C     C_3   0.322440 0.932673 0.606886 -0.207574
C210  C     C_3   0.603826 0.938794 0.683060 -0.226640
C211  C     C_3   0.901282 0.450121 0.690679 -0.153078
C212  C     C_3   0.132554 0.584704 0.653740 -0.214790
C213  C     C_3   0.912903 0.983285 0.200289 -0.209070
C214  C     C_3   0.172553 0.922806 0.114640 -0.183164
C215  C     C_3   0.333229 0.421171 0.121777 -0.166191
C216  C     C_3   0.595010 0.543488 0.192420 -0.194406
C217  C     C_R   0.153010 0.033765 0.871196 0.010598
C218  C     C_R   0.809233 0.000103 0.190230 0.565772
C219  C     C_R   0.842651 0.032564 0.876194 -0.047683
C220  C     C_R   0.651169 0.537989 0.870162 -0.059618
C221  C     C_R   0.343443 0.533511 0.875358 -0.051158
C222  C     C_R   0.618683 0.020351 0.336455 0.017318
C223  C     C_R   0.341361 0.030905 0.377563 -0.049607
C224  C     C_R   0.156819 0.466602 0.375492 -0.052563
C225  C     C_R   0.846913 0.463268 0.371834 -0.063536
C226  C     C_R   0.158188 0.998061 0.842167 -0.020316
C227  C     C_R   0.841190 0.999070 0.843565 -0.031911
C228  C     C_R   0.657347 0.500708 0.842198 -0.021989
C229  C     C_R   0.190924 0.000375 0.190730 0.556018
C230  C     C_R   0.341103 0.499213 0.843593 -0.030322
C231  C     C_R   0.657455 0.996822 0.342441 -0.028833
C232  C     C_R   0.341253 0.998802 0.343600 -0.033517
C233  C     C_R   0.158898 0.500599 0.343583 -0.031335
C234  C     C_R   0.842645 0.499329 0.342269 -0.022582
C235  C     C_R   0.129277 0.961071 0.844575 0.226844
C236  C     C_R   0.870179 0.961942 0.845283 0.243810
C237  C     C_R   0.626780 0.465116 0.842010 0.244215
C238  C     C_R   0.368857 0.461168 0.846491 0.243380
C239  C     C_R   0.662176 0.968782 0.379593 0.235290
C240  C     C_R   0.309038 0.499709 0.190630 0.582515
C241  C     C_R   0.371833 0.963015 0.343835 0.246235
C242  C     C_R   0.130819 0.538393 0.346300 0.241817
C243  C     C_R   0.874699 0.533389 0.340939 0.244209
C244  C     C_R   0.098067 0.959942 0.878608 0.225122
C245  C     C_R   0.904386 0.962384 0.875629 0.245966
C246  C     C_R   0.595613 0.462984 0.875648 0.230846
C247  C     C_R   0.403075 0.461434 0.876851 0.237705
C248  C     C_R   0.630672 0.970530 0.412902 0.247740
C249  C     C_R   0.405993 0.963703 0.374207 0.255726
C250  C     C_R   0.096550 0.538087 0.376583 0.242300
C251  C     C_R   0.690944 0.499262 0.190505 0.584419
C252  C     C_R   0.905720 0.535627 0.374675 0.227897
C253  C     C_R   0.092467 0.998666 0.906093 -0.047308
C254  C     C_R   0.908525 0.999397 0.904931 -0.058708
C255  C     C_R   0.591866 0.499523 0.905486 -0.050048
C256  C     C_R   0.408383 0.499250 0.905026 -0.064507
C257  C     C_R   0.593867 0.998688 0.407774 -0.038103
C258  C     C_R   0.408583 0.999542 0.404959 -0.050031
C259  C     C_R   0.091530 0.500529 0.404922 -0.059682
C260  C     C_R   0.908062 0.500177 0.405588 -0.032579
C261  C     C_R   0.249989 0.915399 0.750008 0.546736
C262  C     C_R   0.404897 0.038592 0.625255 0.064464
C263  C     C_R   0.749891 0.084593 0.749982 0.553070
C264  C     C_R   0.750079 0.915405 0.749939 0.539304
C265  C     C_R   0.249944 0.084599 0.750053 0.572472
C266  C     C_R   0.749985 0.415400 0.750018 0.556157
C267  C     C_R   0.249844 0.584594 0.749930 0.533721
C268  C     C_R   0.250063 0.415405 0.749950 0.559905
C269  C     C_R   0.750464 0.584586 0.749468 0.521489
C270  C     C_R   0.749976 0.915403 0.250030 0.522371
C271  C     C_R   0.249931 0.084596 0.250039 0.541191
C272  C     C_R   0.250064 0.915406 0.249942 0.539380
Cu1   Cu    Cu3+1 0.280900 0.000000 0.780900 0.996759
Cu2   Cu    Cu3+1 0.780910 0.000000 0.719100 1.004161
Cu3   Cu    Cu3+1 0.719090 0.500000 0.719100 0.950850
Cu4   Cu    Cu3+1 0.280910 0.500000 0.719100 0.989644
Cu5   Cu    Cu3+1 0.719090 1.000000 0.219100 0.999633
Cu6   Cu    Cu3+1 0.280910 1.000000 0.219100 0.982537
Cu7   Cu    Cu3+1 0.219090 0.500000 0.219100 0.992912
Cu8   Cu    Cu3+1 0.780910 0.500000 0.219100 0.957058
Cu9   Cu    Cu3+1 1.000000 0.957530 0.999990 1.025070
Cu10  Cu    Cu3+1 0.000000 0.042470 0.999990 0.975318
Cu11  Cu    Cu3+1 0.500000 0.457530 0.999990 0.953598
Cu12  Cu    Cu3+1 0.719100 0.000000 0.780900 0.897771
Cu13  Cu    Cu3+1 0.500000 0.542470 0.999990 0.958856
Cu14  Cu    Cu3+1 0.500000 0.957530 0.499990 1.077545
Cu15  Cu    Cu3+1 0.500000 0.042470 0.499990 0.968366
Cu16  Cu    Cu3+1 1.000000 0.457530 0.499990 0.893357
Cu17  Cu    Cu3+1 1.000000 0.542470 0.499990 1.011362
Cu18  Cu    Cu3+1 0.780900 0.500000 0.780900 0.950355
Cu19  Cu    Cu3+1 0.219100 0.500000 0.780900 0.921301
Cu20  Cu    Cu3+1 0.780900 1.000000 0.280900 0.972176
Cu21  Cu    Cu3+1 0.219100 1.000000 0.280900 0.888337
Cu22  Cu    Cu3+1 0.280900 0.500000 0.280900 0.911824
Cu23  Cu    Cu3+1 0.719100 0.500000 0.280900 0.939558
Cu24  Cu    Cu3+1 0.219090 0.000000 0.719100 0.948058
H1    H     H_    0.291955 0.949939 0.597408 0.113591
H2    H     H_    0.170639 0.897079 0.141089 0.119694
H3    H     H_    0.838713 0.864607 0.808043 0.141875
H4    H     H_    0.807770 0.905225 0.838789 0.106277
H5    H     H_    0.855396 0.878002 0.862659 0.147010
H6    H     H_    0.603435 0.408638 0.754515 0.137702
H7    H     H_    0.595999 0.468017 0.766016 0.116437
H8    H     H_    0.565357 0.425091 0.795662 0.141229
H9    H     H_    0.334657 0.363532 0.812654 0.140913
H10   H     H_    0.304922 0.406075 0.842211 0.107252
H11   H     H_    0.352019 0.378429 0.866692 0.143898
H12   H     H_    0.720598 0.878056 0.370281 0.145844
H13   H     H_    0.205271 0.926570 0.100149 0.132988
H14   H     H_    0.684589 0.902037 0.330637 0.092907
H15   H     H_    0.664057 0.881490 0.382908 0.145886
H16   H     H_    0.344062 0.866214 0.302496 0.142957
H17   H     H_    0.311582 0.904217 0.334651 0.104604
H18   H     H_    0.359996 0.877807 0.357722 0.155576
H19   H     H_    0.164438 0.635906 0.312069 0.141320
H20   H     H_    0.194384 0.593890 0.341870 0.106143
H21   H     H_    0.147108 0.621522 0.366158 0.145641
H22   H     H_    0.900890 0.585056 0.251860 0.137335
H23   H     H_    0.906159 0.525998 0.265509 0.116195
H24   H     H_    0.920329 0.005928 0.228444 0.139252
H25   H     H_    0.937981 0.569025 0.293982 0.139485
H26   H     H_    0.108237 0.900396 0.937084 0.147598
H27   H     H_    0.121824 0.874329 0.884678 0.158672
H28   H     H_    0.072956 0.859402 0.912423 0.139411
H29   H     H_    0.986383 0.967579 0.859981 0.114182
H30   H     H_    0.956798 0.943147 0.813962 0.132667
H31   H     H_    0.990876 0.908090 0.847217 0.174466
H32   H     H_    0.604869 0.399938 0.930709 0.116522
H33   H     H_    0.616585 0.376012 0.876950 0.161162
H34   H     H_    0.567683 0.361677 0.904902 0.132472
H35   H     H_    0.300378 0.412614 0.109556 0.151800
H36   H     H_    0.484512 0.463311 0.859134 0.125395
H37   H     H_    0.453636 0.436837 0.815087 0.134949
H38   H     H_    0.487503 0.403024 0.849689 0.173795
H39   H     H_    0.639102 0.002038 0.490302 0.114016
H40   H     H_    0.690754 0.979979 0.470478 0.147839
H41   H     H_    0.661095 0.950297 0.511865 0.147069
H42   H     H_    0.488160 0.973863 0.362249 0.084460
H43   H     H_    0.461385 0.951741 0.313494 0.142385
H44   H     H_    0.495870 0.915885 0.345676 0.147139
H45   H     H_    0.015502 0.535675 0.356993 0.125607
H46   H     H_    0.602267 0.577158 0.207287 0.117701
H47   H     H_    0.047261 0.562373 0.313909 0.136283
H48   H     H_    0.012492 0.596023 0.347825 0.175258
H49   H     H_    0.897857 0.601202 0.427474 0.120313
H50   H     H_    0.887811 0.623437 0.372842 0.161056
H51   H     H_    0.936786 0.636909 0.401154 0.133625
H52   H     H_    0.087745 0.112035 0.878720 0.238212
H53   H     H_    0.076623 0.112495 0.932424 0.264530
H54   H     H_    0.870206 0.141633 0.938632 0.250178
H55   H     H_    0.851231 0.093472 0.961569 0.248458
H56   H     H_    0.926199 0.078052 0.851330 0.230242
H57   H     H_    0.591720 0.515340 0.216340 0.132555
H58   H     H_    0.946845 0.097504 0.898631 0.255740
H59   H     H_    0.156241 0.110033 0.974351 0.234266
H60   H     H_    0.172737 0.055260 0.967253 0.225385
H61   H     H_    0.650773 0.624182 0.963306 0.247934
H62   H     H_    0.615900 0.622970 0.920898 0.249966
H63   H     H_    0.373165 0.643150 0.935594 0.248601
H64   H     H_    0.353527 0.595837 0.959604 0.250833
H65   H     H_    0.449095 0.595989 0.896546 0.257786
H66   H     H_    0.427921 0.576376 0.849561 0.230318
H67   H     H_    0.664982 0.499771 0.962159 0.230357
H68   H     H_    0.341435 0.404384 0.153177 0.100899
H69   H     H_    0.630189 0.530528 0.992693 0.239762
H70   H     H_    0.523439 0.040867 0.319194 0.219160
H71   H     H_    0.508210 0.062802 0.367321 0.241284
H72   H     H_    0.364486 0.138303 0.444391 0.248359
H73   H     H_    0.347667 0.088294 0.465359 0.239226
H74   H     H_    0.423397 0.080933 0.354976 0.232011
H75   H     H_    0.442624 0.100529 0.402902 0.259379
H76   H     H_    0.573295 0.133711 0.379412 0.230780
H77   H     H_    0.612044 0.100539 0.401984 0.246483
H78   H     H_    0.147273 0.405268 0.460129 0.246144
H79   H     H_    0.393619 0.081129 0.703321 0.252189
H80   H     H_    0.128143 0.357419 0.436398 0.248390
H81   H     H_    0.892156 0.405341 0.474881 0.251771
H82   H     H_    0.879359 0.380590 0.427228 0.244336
H83   H     H_    0.830119 0.506505 0.461751 0.234688
H84   H     H_    0.820780 0.461741 0.495096 0.240019
H85   H     H_    0.051750 0.403249 0.397011 0.257061
H86   H     H_    0.072732 0.422484 0.349911 0.230363
H87   H     H_    0.212375 0.158171 0.850476 0.127773
H88   H     H_    0.162887 0.166227 0.882417 0.131658
H89   H     H_    0.162755 0.172906 0.824637 0.141194
H90   H     H_    0.360179 0.105528 0.666273 0.244209
H91   H     H_    0.757466 0.053273 0.888116 0.141721
H92   H     H_    0.763903 0.091984 0.841883 0.165964
H93   H     H_    0.738248 0.110713 0.890957 0.128056
H94   H     H_    0.864997 0.164103 0.853629 0.149555
H95   H     H_    0.810291 0.160494 0.832089 0.137810
H96   H     H_    0.855775 0.159322 0.796041 0.135059
H97   H     H_    0.246500 0.093038 0.951496 0.128062
H98   H     H_    0.209298 0.134401 0.930724 0.086234
H99   H     H_    0.259377 0.123207 0.902585 0.138441
H100  H     H_    0.687856 0.600980 0.818962 0.111408
H101  H     H_    0.673567 0.102347 0.631007 0.225271
H102  H     H_    0.740055 0.591690 0.845700 0.171508
H103  H     H_    0.718760 0.647929 0.839245 0.135382
H104  H     H_    0.258873 0.556326 0.886780 0.140602
H105  H     H_    0.266049 0.593843 0.839807 0.165458
H106  H     H_    0.240736 0.614217 0.888466 0.131101
H107  H     H_    0.368781 0.663868 0.850031 0.147721
H108  H     H_    0.313952 0.661136 0.828683 0.139906
H109  H     H_    0.359314 0.658034 0.792572 0.131418
H110  H     H_    0.728537 0.580315 0.965687 0.147304
H111  H     H_    0.764729 0.591252 0.920235 0.129250
H112  H     H_    0.597530 0.958920 0.713055 0.108000
H113  H     H_    0.707853 0.072286 0.598461 0.233506
H114  H     H_    0.770876 0.540885 0.952459 0.128192
H115  H     H_    0.583514 0.115656 0.232435 0.121265
H116  H     H_    0.559802 0.123904 0.285478 0.123967
H117  H     H_    0.538469 0.081773 0.248754 0.143959
H118  H     H_    0.255201 0.047728 0.390430 0.140332
H119  H     H_    0.260250 0.088481 0.345573 0.172825
H120  H     H_    0.234062 0.104247 0.395299 0.125119
H121  H     H_    0.358123 0.164264 0.360414 0.147619
H122  H     H_    0.303835 0.159088 0.338108 0.136281
H123  H     H_    0.349666 0.161517 0.302591 0.132979
H124  H     H_    0.782172 0.556308 0.592294 0.232383
H125  H     H_    0.672388 0.158002 0.322154 0.138830
H126  H     H_    0.614907 0.156829 0.321051 0.087337
H127  H     H_    0.646884 0.136896 0.274128 0.151259
H128  H     H_    0.241634 0.444720 0.387024 0.139105
H129  H     H_    0.234757 0.406524 0.340284 0.166785
H130  H     H_    0.260245 0.387024 0.389076 0.127075
H131  H     H_    0.807309 0.399709 0.323901 0.106791
H132  H     H_    0.755392 0.413596 0.349347 0.170531
H133  H     H_    0.773784 0.355960 0.346039 0.134764
H134  H     H_    0.730791 0.472811 0.457883 0.119102
H135  H     H_    0.815323 0.595892 0.614973 0.249524
H136  H     H_    0.764233 0.423093 0.462765 0.140926
H137  H     H_    0.724663 0.427252 0.419365 0.133060
H138  H     H_    0.132624 0.335685 0.350878 0.147626
H139  H     H_    0.187448 0.338674 0.329603 0.137886
H140  H     H_    0.142108 0.340901 0.293401 0.134245
H141  H     H_    0.137689 0.396884 0.669528 0.255579
H142  H     H_    0.177967 0.397988 0.632066 0.250503
H143  H     H_    0.781588 0.973352 0.077826 0.246412
H144  H     H_    0.780996 0.031092 0.077270 0.251160
H145  H     H_    0.161662 0.090640 0.183767 0.235309
H146  H     H_    0.125854 0.065055 0.217723 0.249968
H147  H     H_    0.399845 0.572623 0.205779 0.243637
H148  H     H_    0.617376 0.904428 0.689893 0.131133
H149  H     H_    0.366311 0.603949 0.173954 0.250673
H150  H     H_    0.685637 0.404855 0.117147 0.244904
H151  H     H_    0.714816 0.443302 0.088520 0.255077
H152  H     H_    0.425864 0.094923 0.593501 0.255891
H153  H     H_    0.464488 0.067532 0.623419 0.242398
H154  H     H_    0.655042 0.071105 0.542505 0.217872
H155  H     H_    0.621381 0.101839 0.575120 0.235787
H156  H     H_    0.882188 0.549031 0.522869 0.256844
H157  H     H_    0.831188 0.553427 0.536185 0.217814
H158  H     H_    0.106858 0.411682 0.556117 0.255772
H159  H     H_    0.316958 0.899455 0.623244 0.127159
H160  H     H_    0.069441 0.407177 0.597262 0.247853
H161  H     H_    0.865677 0.971753 0.019632 0.239648
H162  H     H_    0.866597 0.029418 0.018224 0.248221
H163  H     H_    0.080672 0.105507 0.117315 0.247131
H164  H     H_    0.048546 0.077888 0.153218 0.269435
H165  H     H_    0.428495 0.595174 0.095684 0.256724
H166  H     H_    0.465033 0.562407 0.122911 0.300176
H167  H     H_    0.630612 0.454029 0.022847 0.226693
H168  H     H_    0.608782 0.413398 0.055458 0.252566
H169  H     H_    0.330172 0.013889 0.558799 0.099752
H170  H     H_    0.889275 0.416927 0.703100 0.148586
H171  H     H_    0.290069 0.980204 0.529416 0.122133
H172  H     H_    0.331365 0.010015 0.500729 0.146387
H173  H     H_    0.560889 0.022920 0.674710 0.111078
H174  H     H_    0.531441 0.989997 0.715863 0.119950
H175  H     H_    0.503215 0.023152 0.676517 0.146497
H176  H     H_    0.543932 0.869946 0.691367 0.100062
H177  H     H_    0.532114 0.834275 0.645358 0.124011
H178  H     H_    0.499486 0.883849 0.654508 0.149634
H179  H     H_    0.391009 0.873647 0.632183 0.095608
H180  H     H_    0.435945 0.890260 0.596882 0.146571
H181  H     H_    0.157569 0.611379 0.649446 0.113731
H182  H     H_    0.412544 0.834827 0.592622 0.139276
H183  H     H_    0.993895 0.417469 0.604656 0.172086
H184  H     H_    0.946502 0.388880 0.581655 0.133632
H185  H     H_    0.985363 0.358028 0.613074 0.122325
H186  H     H_    0.126475 0.588480 0.532769 0.134699
H187  H     H_    0.166010 0.610050 0.572069 0.102951
H188  H     H_    0.136662 0.648227 0.537536 0.143821
H189  H     H_    0.030321 0.644195 0.623148 0.172171
H190  H     H_    0.062726 0.639165 0.672719 0.112568
H191  H     H_    0.009586 0.615344 0.670000 0.100185
H192  H     H_    0.119772 0.581843 0.687557 0.127898
H193  H     H_    0.993918 0.532140 0.689459 0.168533
H194  H     H_    0.938014 0.530994 0.675385 0.081869
H195  H     H_    0.979038 0.532355 0.633152 0.174949
H196  H     H_    0.943702 0.878830 0.122846 0.148634
H197  H     H_    0.900356 0.916832 0.135511 0.108871
H198  H     H_    0.931009 0.888681 0.178933 0.113510
H199  H     H_    0.053010 0.912920 0.117005 0.166080
H200  H     H_    0.096227 0.896745 0.154519 0.089733
H201  H     H_    0.062775 0.854484 0.129690 0.144468
H202  H     H_    0.187509 0.978992 0.040980 0.107445
H203  H     H_    0.908252 0.475394 0.716787 0.123228
H204  H     H_    0.135389 0.983374 0.012994 0.135031
H205  H     H_    0.180029 0.955160 0.987710 0.141018
H206  H     H_    0.032690 0.965017 0.185259 0.149186
H207  H     H_    0.996973 0.974452 0.231907 0.102819
H208  H     H_    0.035818 0.016570 0.216364 0.127301
H209  H     H_    0.409042 0.395898 0.015693 0.180850
H210  H     H_    0.380785 0.449771 0.004644 0.123220
H211  H     H_    0.362333 0.397555 0.981448 0.125755
H212  H     H_    0.568693 0.612431 0.094941 0.143360
H213  H     H_    0.597447 0.625126 0.145659 0.104313
H214  H     H_    0.899090 0.950097 0.210192 0.097776
H215  H     H_    0.548531 0.654483 0.132117 0.145196
H216  H     H_    0.488006 0.549963 0.198823 0.171670
H217  H     H_    0.519011 0.506616 0.227488 0.102783
H218  H     H_    0.474381 0.491167 0.193520 0.121281
H219  H     H_    0.444321 0.376942 0.149981 0.142253
H220  H     H_    0.410885 0.425621 0.158996 0.083730
H221  H     H_    0.456485 0.428535 0.122113 0.162458
H222  H     H_    0.106788 0.900187 0.759618 0.138381
H223  H     H_    0.099174 0.960088 0.768084 0.120313
H224  H     H_    0.068565 0.918783 0.799810 0.141973
N1    N     N_3   0.365264 0.076487 0.685293 -0.606170
N2    N     N_3   0.625594 0.070614 0.559202 -0.616688
N3    N     N_3   0.862206 0.558661 0.548686 -0.619637
N4    N     N_3   0.101920 0.412728 0.589866 -0.636158
N5    N     N_3   0.852579 0.001308 0.033495 -0.641425
N6    N     N_3   0.063755 0.075301 0.122838 -0.563948
N7    N     N_3   0.433685 0.575560 0.123616 -0.623718
N8    N     N_3   0.633841 0.436954 0.052531 -0.641581
N9    N     N_3   0.101521 0.116178 0.909686 -0.622690
N10   N     N_3   0.877109 0.107226 0.944062 -0.581054
N11   N     N_3   0.920110 0.099625 0.877911 -0.605699
N12   N     N_3   0.690051 0.071438 0.627435 -0.613233
N13   N     N_3   0.146833 0.077857 0.963364 -0.616751
N14   N     N_3   0.626733 0.604797 0.948156 -0.581311
N15   N     N_3   0.379542 0.608760 0.941715 -0.577143
N16   N     N_3   0.422421 0.598581 0.875792 -0.606447
N17   N     N_3   0.657238 0.532847 0.972396 -0.611271
N18   N     N_3   0.528442 0.068278 0.340510 -0.633683
N19   N     N_3   0.372861 0.104037 0.448398 -0.582160
N20   N     N_3   0.415978 0.101427 0.381994 -0.603939
N21   N     N_3   0.579889 0.101167 0.391424 -0.580875
N22   N     N_3   0.121411 0.391815 0.442289 -0.584343
N23   N     N_3   0.802109 0.563442 0.618974 -0.602964
N24   N     N_3   0.866634 0.399635 0.453184 -0.569679
N25   N     N_3   0.843066 0.475941 0.473498 -0.633626
N26   N     N_3   0.078446 0.400676 0.376280 -0.606095
N27   N     N_3   0.163277 0.416277 0.657398 -0.607814
N28   N     N_3   0.786565 0.002525 0.096812 -0.577126
N29   N     N_3   0.130619 0.076852 0.185949 -0.642349
N30   N     N_3   0.370203 0.572478 0.189372 -0.597295
N31   N     N_3   0.698245 0.437849 0.117778 -0.592470
N32   N     N_3   0.432164 0.077934 0.622753 -0.642135
O1    O     O_R   0.321180 0.000000 0.731010 -0.489951
O2    O     O_R   0.731020 0.000000 0.678820 -0.480269
O3    O     O_3   0.375643 0.886389 0.566572 -0.511445
O4    O     O_3   0.944436 0.398956 0.648365 -0.550226
O5    O     O_3   0.100631 0.621128 0.587416 -0.559182
O6    O     O_3   0.055326 0.579533 0.635228 -0.566254
O7    O     O_3   0.974726 0.470371 0.664864 -0.553808
O8    O     O_3   0.963749 0.940455 0.147021 -0.571202
O9    O     O_3   0.107052 0.882904 0.087877 -0.515941
O10   O     O_3   0.150913 0.918950 0.036860 -0.525431
O11   O     O_3   0.983428 0.012330 0.175354 -0.553774
O12   O     O_3   0.349287 0.405380 0.046659 -0.561680
O13   O     O_R   0.768980 0.500000 0.678820 -0.477474
O14   O     O_3   0.539623 0.588306 0.151707 -0.570232
O15   O     O_3   0.529326 0.509043 0.160196 -0.569426
O16   O     O_3   0.404709 0.391252 0.097857 -0.544680
O17   O     O_3   0.133925 0.924704 0.816092 -0.560118
O18   O     O_3   0.867521 0.927076 0.814965 -0.542359
O19   O     O_3   0.630769 0.429895 0.812098 -0.555419
O20   O     O_3   0.365008 0.425406 0.817292 -0.544276
O21   O     O_3   0.698797 0.942346 0.385176 -0.534585
O22   O     O_3   0.370670 0.929388 0.312166 -0.539609
O23   O     O_3   0.134413 0.573911 0.316986 -0.545093
O24   O     O_R   0.231020 0.500000 0.678820 -0.501416
O25   O     O_3   0.872281 0.567431 0.309822 -0.553903
O26   O     O_3   0.071756 0.922284 0.883336 -0.573526
O27   O     O_3   0.933630 0.926661 0.876152 -0.535665
O28   O     O_3   0.568295 0.425927 0.878695 -0.576779
O29   O     O_3   0.431203 0.424779 0.878477 -0.543356
O30   O     O_3   0.635930 0.944437 0.450062 -0.536285
O31   O     O_3   0.436703 0.929363 0.373290 -0.528671
O32   O     O_3   0.068062 0.574442 0.377991 -0.538839
O33   O     O_3   0.934227 0.571747 0.376876 -0.581946
O34   O     O_3   0.167227 0.106478 0.844244 -0.565796
O35   O     O_R   0.768980 1.000000 0.178820 -0.466154
O36   O     O_3   0.803995 0.103432 0.895696 -0.603185
O37   O     O_3   0.845604 0.099970 0.829822 -0.577983
O38   O     O_3   0.214991 0.071424 0.896138 -0.555485
O39   O     O_3   0.688643 0.610240 0.886231 -0.604281
O40   O     O_3   0.306351 0.605675 0.893347 -0.603546
O41   O     O_3   0.347917 0.599731 0.827596 -0.576353
O42   O     O_3   0.719931 0.539637 0.909411 -0.557288
O43   O     O_3   0.597250 0.063457 0.275204 -0.548207
O44   O     O_3   0.299991 0.099241 0.399847 -0.607154
O45   O     O_3   0.341599 0.100352 0.333911 -0.575911
O46   O     O_R   0.231020 1.000000 0.178820 -0.505866
O47   O     O_3   0.646765 0.094219 0.328174 -0.584709
O48   O     O_3   0.194569 0.395030 0.393909 -0.604628
O49   O     O_3   0.805303 0.394778 0.391580 -0.571731
O50   O     O_3   0.778207 0.468664 0.410983 -0.573787
O51   O     O_3   0.152963 0.399745 0.328106 -0.576327
O52   O     O_R   0.268980 0.500000 0.178820 -0.505214
O53   O     O_R   0.731020 0.500000 0.178820 -0.476629
O54   O     O_R   0.276100 0.938030 0.776090 -0.499423
O55   O     O_R   0.723900 0.061970 0.776090 -0.517459
O56   O     O_R   0.723900 0.938030 0.776090 -0.499345
O57   O     O_R   0.678820 0.000000 0.731010 -0.516558
O58   O     O_R   0.276100 0.061970 0.776090 -0.478702
O59   O     O_R   0.776100 0.438030 0.776090 -0.490332
O60   O     O_R   0.223900 0.561970 0.776090 -0.520185
O61   O     O_R   0.223900 0.438030 0.776090 -0.490835
O62   O     O_R   0.776100 0.561970 0.776090 -0.513407
O63   O     O_R   0.776100 0.938030 0.276090 -0.494552
O64   O     O_R   0.223900 0.061970 0.276090 -0.518746
O65   O     O_R   0.223900 0.938030 0.276090 -0.493727
O66   O     O_R   0.776100 0.061970 0.276090 -0.491622
O67   O     O_R   0.276100 0.438030 0.276090 -0.521411
O68   O     O_R   0.821180 0.500000 0.731010 -0.520409
O69   O     O_R   0.723900 0.561970 0.276090 -0.491248
O70   O     O_R   0.723900 0.438030 0.276090 -0.516950
O71   O     O_R   0.276100 0.561970 0.276090 -0.488395
O72   O     O_R   0.223900 0.938040 0.723900 -0.494660
O73   O     O_R   0.776100 0.061960 0.723900 -0.475057
O74   O     O_R   0.776100 0.938040 0.723900 -0.482284
O75   O     O_R   0.223900 0.061960 0.723900 -0.493121
O76   O     O_R   0.723900 0.438040 0.723900 -0.487835
O77   O     O_R   0.276100 0.561960 0.723900 -0.486262
O78   O     O_R   0.276100 0.438040 0.723900 -0.477315
O79   O     O_R   0.178820 0.500000 0.731010 -0.494261
O80   O     O_R   0.723900 0.561960 0.723900 -0.486654
O81   O     O_R   0.723900 0.938040 0.223900 -0.498653
O82   O     O_R   0.276100 0.061960 0.223900 -0.481569
O83   O     O_R   0.276100 0.938040 0.223900 -0.480231
O84   O     O_R   0.723900 0.061960 0.223900 -0.483343
O85   O     O_R   0.223900 0.438040 0.223900 -0.484238
O86   O     O_R   0.776100 0.561960 0.223900 -0.487200
O87   O     O_R   0.776100 0.438040 0.223900 -0.484750
O88   O     O_R   0.223900 0.561960 0.223900 -0.479276
O89   O     O_R   0.231010 1.000000 0.821180 -0.471084
O90   O     O_R   0.821180 0.000000 0.231010 -0.519704
O91   O     O_R   0.768990 1.000000 0.821180 -0.542332
O92   O     O_R   0.731010 0.500000 0.821180 -0.472155
O93   O     O_R   0.268990 0.500000 0.821180 -0.542891
O94   O     O_R   0.731010 0.000000 0.321180 -0.461423
O95   O     O_R   0.268990 0.000000 0.321180 -0.540296
O96   O     O_R   0.231010 0.500000 0.321180 -0.543815
O97   O     O_R   0.768990 0.500000 0.321180 -0.474739
O98   O     O_R   0.178810 0.000000 0.768990 -0.499827
O99   O     O_R   0.821190 0.000000 0.768990 -0.454691
O100  O     O_R   0.678810 0.500000 0.768990 -0.502456
O101  O     O_R   0.178820 0.000000 0.231010 -0.514467
O102  O     O_R   0.321190 0.500000 0.768990 -0.455886
O103  O     O_R   0.678810 0.000000 0.268990 -0.479515
O104  O     O_R   0.321190 0.000000 0.268990 -0.450329
O105  O     O_R   0.178810 0.500000 0.268990 -0.454321
O106  O     O_R   0.821190 0.500000 0.268990 -0.498012
O107  O     O_R   0.954900 0.964110 0.954900 -0.468911
O108  O     O_R   0.045100 0.035890 0.954900 -0.524887
O109  O     O_R   0.045100 0.964110 0.954900 -0.471453
O110  O     O_R   0.954900 0.035890 0.954900 -0.517741
O111  O     O_R   0.454900 0.464110 0.954900 -0.482697
O112  O     O_R   0.321180 0.500000 0.231010 -0.486975
O113  O     O_R   0.545100 0.535890 0.954900 -0.501285
O114  O     O_R   0.545100 0.464110 0.954900 -0.484245
O115  O     O_R   0.454900 0.535890 0.954900 -0.502994
O116  O     O_R   0.454900 0.964110 0.454900 -0.451406
O117  O     O_R   0.545100 0.035890 0.454900 -0.496349
O118  O     O_R   0.545100 0.964110 0.454900 -0.487870
O119  O     O_R   0.454900 0.035890 0.454900 -0.519944
O120  O     O_R   0.954900 0.464110 0.454900 -0.524311
O121  O     O_R   0.045100 0.535890 0.454900 -0.462340
O122  O     O_R   0.045100 0.464110 0.454900 -0.509222
O123  O     O_R   0.678820 0.500000 0.231010 -0.518137
O124  O     O_R   0.954900 0.535890 0.454900 -0.481439
O125  O     O_R   0.454900 0.964130 0.545070 -0.476523
O126  O     O_R   0.545100 0.035870 0.545070 -0.492421
O127  O     O_R   0.545100 0.964130 0.545070 -0.481013
O128  O     O_R   0.454900 0.035870 0.545070 -0.527686
O129  O     O_R   0.954900 0.464130 0.545070 -0.534226
O130  O     O_R   0.045100 0.535870 0.545070 -0.468076
O131  O     O_R   0.045100 0.464130 0.545070 -0.537848
O132  O     O_R   0.954900 0.535870 0.545070 -0.505155
O133  O     O_R   0.954900 0.964130 0.045070 -0.504421
O134  O     O_R   0.268980 0.000000 0.678820 -0.519965
O135  O     O_R   0.045100 0.035870 0.045070 -0.474588
O136  O     O_R   0.045100 0.964130 0.045070 -0.497364
O137  O     O_R   0.954900 0.035870 0.045070 -0.500973
O138  O     O_R   0.454900 0.464130 0.045070 -0.513862
O139  O     O_R   0.545100 0.535870 0.045070 -0.507139
O140  O     O_R   0.545100 0.464130 0.045070 -0.518521
O141  O     O_R   0.454900 0.535870 0.045070 -0.506330
O142  O     O_3   0.351458 0.951450 0.531104 -0.511678
O143  O     O_3   0.529177 0.963666 0.652880 -0.568742
O144  O     O_3   0.561247 0.894775 0.629537 -0.537870

loop_
_geom_bond_atom_site_label_1
_geom_bond_atom_site_label_2
_ccdc_geom_bond_type
C137  N28   S    
C99   C103  T    
C105  C110  T    
C96   C102  T    
C151  H201  S    
C180  H98   S    
C144  O3    S    
C229  O46   A    
C150  H197  S    
C200  O142  S    
C171  O29   S    
Cu5   Cu20  S    
H67   N17   S    
Cu7   O105  S    
C170  O28   S    
C75   C93   T    
C272  O65   A    
C236  O18   S    
C35   C124  A    
C188  O47   S    
H143  N28   S    
C218  O35   A    
C33   C225  S    
C64   C265  S    
C159  H222  S    
C185  H116  S    
C92   C109  S    
C70   C270  S    
C171  H37   S    
C246  C255  A    
C32   O48   S    
C94   C111  S    
C269  O80   A    
C141  O142  S    
C74   C92   T    
Cu14  O118  S    
C166  H25   S    
C127  C207  S    
C131  C140  A    
C76   C94   T    
C214  H2    S    
H90   N1    S    
C188  H126  S    
C20   N16   S    
C210  H148  S    
C166  H22   S    
Cu20  O94   S    
C238  C247  A    
C248  O30   S    
C155  H212  S    
C187  O45   S    
C187  H121  S    
C154  O12   S    
H142  N27   S    
C263  O55   A    
C160  H5    S    
C183  H107  S    
H85   N26   S    
C85   C103  S    
C166  O25   S    
C93   C110  S    
Cu12  O91   S    
C119  C128  A    
C191  O49   S    
H151  N31   S    
H150  N31   S    
C177  O36   S    
C28   C220  S    
C6    O70   A    
C145  H185  S    
C176  O34   S    
Cu10  O135  S    
H62   N14   S    
C65   C266  S    
C236  C245  A    
C32   C224  S    
Cu5   O81   S    
Cu1   O1    S    
C11   C20   S    
C67   C85   T    
C115  C123  A    
C184  H110  S    
C232  C241  A    
C19   N14   S    
C241  C249  A    
C127  C136  A    
C30   C222  S    
C7    O88   A    
Cu1   O54   S    
H155  N2    S    
C250  O32   S    
C269  O62   A    
C51   C157  S    
C239  C248  A    
Cu16  O120  S    
Cu1   Cu24  S    
C41   C260  S    
C29   C221  S    
C224  C233  A    
C240  O112  A    
H163  N6    S    
C41   O120  A    
C14   C223  A    
C182  H104  S    
C23   N26   S    
C11   C256  A    
Cu6   O83   S    
C44   O126  A    
C237  O19   S    
C241  O22   S    
C112  C125  S    
C173  H43   S    
H147  N30   S    
Cu20  O63   S    
H70   N18   S    
C59   O105  A    
C152  H202  S    
C205  C214  S    
Cu22  O96   S    
C83   C100  S    
C68   C140  A    
Cu24  O75   S    
C38   O114  A    
H77   N21   S    
C51   O140  A    
C128  C218  S    
C47   O130  A    
C223  C232  A    
C252  C260  A    
C164  H17   S    
C21   C30   S    
C16   C25   S    
C201  O144  S    
C189  H130  S    
C132  N1    S    
C155  H215  S    
C156  O15   S    
C148  O6    S    
C8    C17   S    
C159  H224  S    
C45   O129  A    
C62   C263  S    
C135  C197  A    
Cu8   O87   S    
Cu21  O95   S    
C112  O57   A    
C192  O50   S    
C181  H100  S    
Cu1   O58   S    
C200  C209  S    
C108  C111  T    
C264  O74   A    
C252  O33   S    
C119  C213  S    
Cu14  O116  S    
C19   N17   S    
C61   C261  S    
C270  O81   A    
C55   O93   A    
C33   O50   S    
C53   C227  S    
C203  O6    S    
C165  H19   S    
Cu17  O130  S    
C12   C21   S    
C170  H32   S    
Cu4   O77   S    
C26   O34   S    
C206  O16   S    
C161  H7    S    
C58   C232  S    
H58   N11   S    
C71   C88   T    
C265  O75   A    
C211  H203  S    
H160  N4    S    
C142  H174  S    
C169  H29   S    
C174  H47   S    
C79   C262  A    
Cu7   O88   S    
C170  H33   S    
C18   N10   S    
H52   N9    S    
C44   O127  A    
C35   C137  A    
C66   C267  S    
C25   N25   S    
C207  O79   A    
Cu17  O121  S    
C172  O30   S    
C80   C97   S    
C143  H177  S    
C84   C102  S    
C113  C194  A    
C59   O96   A    
C174  O32   S    
H154  N2    S    
C249  C258  A    
C158  H221  S    
C86   C104  S    
C63   C264  S    
Cu8   Cu23  S    
C34   O110  A    
C42   O121  A    
C161  O19   S    
C176  H87   S    
Cu10  O108  S    
C141  H172  S    
C57   C139  A    
C42   C259  S    
C4    O85   A    
C180  O38   S    
C225  C234  A    
C121  C215  S    
C62   C80   T    
C165  O23   S    
Cu3   O80   S    
C191  H133  S    
C182  O40   S    
C16   C260  A    
C177  H92   S    
C2    C90   A    
C18   N11   S    
C186  H118  S    
C192  H136  S    
C15   C224  A    
Cu11  O111  S    
C8    C217  A    
C193  H139  S    
H86   N26   S    
C158  O16   S    
C181  H103  S    
C136  N27   S    
C221  C230  A    
Cu21  O64   S    
C52   O98   A    
C147  H188  S    
C151  H199  S    
C119  C195  A    
C149  H194  S    
C7    C77   S    
C247  C256  A    
C37   C256  S    
C49   C135  S    
C155  H213  S    
C55   C230  S    
Cu2   O74   S    
C162  H11   S    
C59   C233  S    
C60   O106  A    
C182  H105  S    
H83   N25   S    
C70   C87   T    
C153  H207  S    
C131  C251  S    
C43   O125  A    
C266  O59   A    
C4    O67   A    
C54   O100  A    
C120  C129  A    
C40   O117  A    
Cu23  O69   S    
Cu15  O128  S    
C267  O77   A    
C78   C96   S    
C193  O51   S    
C190  C202  S    
H161  N5    S    
C148  H189  S    
Cu17  O132  S    
C229  O101  A    
C202  O4    S    
C17   N13   S    
C156  H216  S    
C56   C231  S    
C143  H176  S    
C213  H24   S    
H72   N19   S    
C54   O92   A    
Cu12  O57   S    
C146  C198  A    
H158  N4    S    
C192  H137  S    
C39   C258  S    
H69   N17   S    
C34   O107  A    
C17   N9    S    
C87   C105  S    
C169  H31   S    
C174  H45   S    
C159  O17   S    
C145  H184  S    
C178  H96   S    
C163  H14   S    
C19   C28   S    
C12   C222  A    
C191  H132  S    
Cu13  O141  S    
C1    O1    A    
C189  O48   S    
C272  O83   A    
Cu14  O127  S    
C68   N8    S    
C186  O44   S    
C22   N19   S    
C167  O26   S    
H71   N18   S    
C31   C223  S    
C211  H170  S    
H145  N29   S    
C154  H211  S    
C57   N7    S    
C27   O36   S    
C122  C131  A    
C49   O135  A    
C97   C100  T    
C132  C262  A    
H149  N30   S    
C117  C126  A    
C208  O15   S    
H74   N20   S    
Cu5   O35   S    
C249  O31   S    
C39   O119  A    
C53   O99   A    
C210  H112  S    
Cu21  O65   S    
C150  H198  S    
Cu3   Cu18  S    
Cu16  O122  S    
H54   N10   S    
C47   O131  A    
C6    C76   S    
C164  H16   S    
C271  O64   A    
C246  O28   S    
C217  C226  A    
C144  H182  S    
C205  O10   S    
C38   O113  A    
C116  C125  A    
C14   C22   S    
C155  O14   S    
Cu18  O92   S    
C46   N6    S    
C133  N12   S    
C24   N4    S    
Cu8   O86   S    
C67   C268  S    
C185  H115  S    
C9    C219  A    
C29   O40   S    
C5    O69   A    
C13   N3    S    
Cu22  O112  S    
C199  C208  S    
C147  H186  S    
C122  C216  S    
C180  H97   S    
C212  H181  S    
C3    C73   S    
C175  H50   S    
C121  C198  A    
Cu6   O46   S    
C162  H10   S    
C200  O3    S    
Cu4   O102  S    
C9    C18   S    
C187  H123  S    
C144  H179  S    
C163  O21   S    
C166  H23   S    
C118  C127  A    
H56   N11   S    
C162  H9    S    
C115  C168  A    
Cu8   O53   S    
C112  O2    A    
C158  H219  S    
C25   C33   S    
C267  O60   A    
C26   C217  S    
C106  C109  T    
C206  C215  S    
Cu4   O24   S    
C153  H208  S    
C27   C219  S    
C31   O45   S    
H60   N13   S    
C183  O41   S    
C82   C99   S    
C37   O115  A    
C197  C205  S    
Cu15  O126  S    
H63   N15   S    
C185  O43   S    
C44   C90   S    
C148  H191  S    
H80   N22   S    
C227  C236  A    
C26   O38   S    
H55   N10   S    
C206  O12   S    
C160  H3    S    
C183  H109  S    
C207  O24   A    
C152  O10   S    
C123  C132  A    
C51   O139  A    
C36   O109  A    
C32   O51   S    
C81   C98   S    
C95   C114  S    
Cu19  O60   S    
C218  O90   A    
C141  H169  S    
C8    C253  A    
C60   O97   A    
C266  O76   A    
C220  C228  A    
Cu13  O113  S    
C178  H94   S    
Cu10  O137  S    
C163  H12   S    
C116  C210  S    
C69   C269  S    
C46   C135  A    
C56   O103  A    
C179  C201  S    
Cu14  O125  S    
H168  N8    S    
C245  O27   S    
C153  O11   S    
C261  O72   A    
C172  H40   S    
C167  H28   S    
H144  N28   S    
C173  H42   S    
Cu18  O68   S    
C50   C146  S    
C25   N24   S    
C38   C255  S    
C124  C195  A    
C268  O61   A    
H152  N32   S    
C57   C146  A    
C171  H38   S    
Cu9   O136  S    
C11   C221  A    
C270  O63   A    
Cu3   O76   S    
C37   O111  A    
C150  H196  S    
C130  C139  A    
H64   N15   S    
C215  H35   S    
C48   O137  A    
Cu18  O59   S    
C164  H18   S    
Cu2   O99   S    
C201  O143  S    
C16   C225  A    
C2    C133  A    
C189  H129  S    
C115  C209  S    
C28   O42   S    
C242  C250  A    
C23   N22   S    
C117  C211  S    
C60   C234  S    
C159  H223  S    
H84   N25   S    
C14   C258  A    
C185  H117  S    
Cu7   O52   S    
C195  C204  S    
C161  H8    S    
Cu22  O71   S    
Cu15  O119  S    
C31   O44   S    
C10   C255  A    
C66   C84   T    
C5    C75   S    
Cu16  O129  S    
C1    C123  S    
C107  C114  T    
H53   N9    S    
C33   O49   S    
C203  O5    S    
C56   O94   A    
C188  H125  S    
C154  H209  S    
C10   C19   S    
C189  H128  S    
Cu19  O93   S    
Cu4   O78   S    
C261  O54   A    
C187  H122  S    
H135  N23   S    
C161  H6    S    
H153  N32   S    
C238  O20   S    
C183  H108  S    
Cu18  O62   S    
Cu21  O101  S    
C142  H175  S    
C101  C190  A    
C174  H48   S    
C160  O18   S    
Cu4   Cu19  S    
C212  H192  S    
C164  O22   S    
C170  H34   S    
C50   O141  A    
C52   O89   A    
C163  H15   S    
C68   C157  A    
C2    N2    S    
C251  O123  A    
C48   O133  A    
C47   C113  S    
C235  O17   S    
C196  O68   A    
C247  O29   S    
C91   C108  S    
Cu16  O131  S    
C149  O7    S    
Cu24  O98   S    
C6    O87   A    
C150  O8    S    
C40   C257  S    
C42   O122  A    
C208  O14   S    
C58   O95   A    
C176  H88   S    
C245  C254  A    
C141  H171  S    
C34   C254  S    
C39   O116  A    
Cu13  O115  S    
C23   C32   S    
C202  O7    S    
C202  C211  S    
C143  O144  S    
C177  H91   S    
C228  C237  A    
C237  C246  A    
Cu6   O82   S    
C186  H119  S    
C118  C194  A    
C167  H26   S    
C235  C244  A    
C151  O9    S    
C173  H44   S    
C193  H138  S    
C215  H68   S    
Cu20  O66   S    
C188  H127  S    
C58   O104  A    
Cu10  O110  S    
C180  H99   S    
Cu11  O140  S    
C181  H102  S    
C116  C179  A    
C171  H36   S    
C147  H187  S    
H101  N12   S    
C219  C227  A    
C175  H51   S    
C149  H193  S    
H164  N6    S    
C165  H21   S    
C21   N18   S    
H165  N7    S    
C169  O27   S    
Cu20  O90   S    
Cu11  Cu13  S    
H59   N13   S    
C13   C134  A    
C9    C254  A    
C182  H106  S    
C153  H206  S    
C147  O5    S    
C134  N23   S    
C240  O52   A    
C10   C220  A    
Cu9   O107  S    
C43   O128  A    
C162  O20   S    
C251  O53   A    
C130  C240  S    
C152  H205  S    
Cu15  O117  S    
C216  H46   S    
C63   C81   T    
C268  O78   A    
C17   C26   S    
C40   O118  A    
C50   O138  A    
H162  N5    S    
Cu14  Cu15  S    
C262  N32   S    
C65   C83   T    
C165  H20   S    
C148  H190  S    
C194  C203  S    
Cu23  O123  S    
H79   N1    S    
C129  C229  S    
C30   O43   S    
C231  C239  A    
C175  O33   S    
C118  C212  S    
C156  H217  S    
H146  N29   S    
C28   O39   S    
H82   N24   S    
C242  O23   S    
C36   O108  A    
C129  C138  A    
H167  N8    S    
C142  H173  S    
C7    O71   A    
C169  H30   S    
Cu19  O61   S    
C5    O86   A    
C20   N15   S    
C53   O91   A    
C122  C199  A    
C239  O21   S    
C191  H131  S    
C209  H1    S    
C27   O37   S    
C234  C243  A    
C46   C138  A    
C244  O26   S    
C204  O11   S    
Cu5   O84   S    
C15   C23   S    
C142  O143  S    
C243  O25   S    
C24   C113  A    
C208  C216  S    
C55   O102  A    
Cu8   O106  S    
H166  N7    S    
C143  H178  S    
Cu24  O134  S    
C156  H218  S    
C89   C107  S    
C250  C259  A    
C158  H220  S    
C126  C134  A    
C184  O42   S    
C120  C197  A    
C20   C29   S    
C3    O66   A    
C196  O13   A    
C176  H89   S    
C22   C31   S    
C192  H134  S    
C178  O37   S    
Cu9   O133  S    
H61   N14   S    
Cu2   Cu12  S    
C73   C91   T    
Cu13  O139  S    
Cu6   O104  S    
C177  H93   S    
C186  H120  S    
Cu9   Cu10  S    
C1    O134  A    
Cu6   Cu21  S    
C21   N21   S    
C204  C213  S    
C77   C95   T    
C205  O9    S    
C226  C235  A    
C157  C199  A    
H81   N24   S    
C12   C257  A    
C209  H159  S    
C128  C137  A    
Cu23  O97   S    
C29   O41   S    
C265  O58   A    
C52   C226  S    
C193  H140  S    
C126  C196  S    
C198  C206  S    
C139  N30   S    
C88   C106  S    
C233  C242  A    
Cu19  O79   S    
C216  H57   S    
C264  O56   A    
Cu11  O138  S    
C61   C78   T    
C54   C228  S    
C140  N31   S    
C145  O4    S    
H76   N21   S    
Cu24  O72   S    
C121  C130  A    
C151  H200  S    
C175  H49   S    
C64   C82   T    
Cu7   O85   S    
C149  H195  S    
C43   C79   S    
C45   C101  S    
H73   N19   S    
Cu12  O55   S    
C145  H183  S    
C271  O82   A    
C222  C231  A    
C144  H180  S    
Cu2   O2    S    
C79   C168  A    
C203  C212  S    
C230  C238  A    
H66   N16   S    
C30   O47   S    
C13   C101  A    
C45   O132  A    
C201  C210  S    
C15   C259  A    
C3    O84   A    
Cu9   O109  S    
C172  H41   S    
C125  C133  A    
Cu22  O67   S    
C90   C179  A    
C243  C252  A    
H124  N23   S    
C120  C214  S    
C4    C74   S    
Cu23  O70   S    
C18   C27   S    
Cu3   O100  S    
C48   C124  S    
C214  H13   S    
C152  H204  S    
H75   N20   S    
C173  O31   S    
Cu7   Cu22  S    
C36   C253  S    
Cu12  O56   S    
C244  C253  A    
Cu16  Cu17  S    
Cu3   O13   S    
Cu11  O114  S    
C160  H4    S    
C72   C89   T    
C24   C136  A    
C213  H214  S    
H157  N3    S    
C35   N5    S    
C138  N29   S    
C98   C104  T    
C184  H114  S    
Cu2   O73   S    
C181  O39   S    
H113  N12   S    
C178  H95   S    
C49   O136  A    
C168  C200  S    
H78   N22   S    
C117  C190  A    
Cu1   O89   S    
C248  C257  A    
C204  O8    S    
Cu17  O124  S    
Cu5   O103  S    
C71   C271  S    
C41   O124  A    
C72   C272  S    
H65   N16   S    
H141  N27   S    
H156  N3    S    
C22   N20   S    
C154  H210  S    
C263  O73   A    
C167  H27   S    
C172  H39   S    
C69   C86   T    
C184  H111  S    
