data_mof_unit_18728.cif
_audit_creation_date              2013-03-05T15:49:45-0500
_audit_creation_method            fapswitch 2.2
_symmetry_space_group_name_H-M    P1
_symmetry_Int_Tables_number       1
_space_group_crystal_system       triclinic
_cell_length_a                    12.255306
_cell_length_b                    12.88781
_cell_length_c                    13.187705
_cell_angle_alpha                 85.534104
_cell_angle_beta                  112.698554
_cell_angle_gamma                 93.182781
_cell_volume                      1915.0237673

loop_
_atom_site_label
_atom_site_type_symbol
_atom_site_description
_atom_site_fract_x
_atom_site_fract_y
_atom_site_fract_z
_atom_type_partial_charge
O1    O     O_R   0.579910 0.341070 0.505280 -0.648821
O2    O     O_R   0.388440 0.353740 0.492580 -0.619733
C1    C     C_R   0.475612 0.300765 0.492021 0.871145
O3    O     O_R   0.643280 0.490550 0.663120 -0.622664
O4    O     O_R   0.451810 0.503220 0.650420 -0.650636
C2    C     C_R   0.565752 0.498674 0.707457 0.927025
Zn1   Zn    Zn3+2 0.627850 0.491540 0.508480 1.022915
Zn2   Zn    Zn3+2 0.372150 0.508460 0.491520 0.931281
O5    O     O_R   0.611560 0.646260 0.507420 -0.523159
O6    O     O_R   0.420090 0.658930 0.494720 -0.657941
O7    O     O_R   0.548190 0.496780 0.349580 -0.572834
O8    O     O_R   0.356720 0.509450 0.336880 -0.645223
C3    C     C_R   0.524681 0.700131 0.506305 0.955080
C4    C     C_R   0.434464 0.503564 0.292730 0.855496
C5    C     C_R   0.290428 0.616344 0.007555 -0.159922
H1    H     H_    0.246422 0.609753 0.148986 0.149920
H2    H     H_    0.221687 0.671896 0.967430 0.147298
C6    C     C_R   0.395924 0.516003 0.174191 -0.054433
C7    C     C_R   0.702171 0.431178 0.887579 -0.269435
C8    C     C_R   0.724120 0.399586 0.996717 0.371015
C9    C     C_R   0.644972 0.427726 0.042147 -0.174091
C10   C     C_R   0.549426 0.494657 0.982887 -0.001621
C11   C     C_R   0.541331 0.539775 0.879511 -0.050052
C12   C     C_R   0.463965 0.520167 0.024144 0.104094
C13   C     C_R   0.372431 0.590186 0.962342 0.065930
C14   C     C_R   0.369352 0.638719 0.861450 -0.038809
C15   C     C_R   0.467310 0.626771 0.831756 0.285455
C16   C     C_R   0.467927 0.479093 0.126778 -0.153660
C17   C     C_R   0.303265 0.580471 0.112935 -0.164678
C18   C     C_R   0.607781 0.495872 0.827309 -0.081850
H3    H     H_    0.532021 0.423728 0.176770 0.157897
H4    H     H_    0.755043 0.400817 0.847804 0.178736
H5    H     H_    0.662397 0.397072 0.124567 0.184985
C19   C     C_R   0.544323 0.812284 0.515200 -0.151142
C20   C     C_R   0.458147 0.189736 0.484109 -0.133308
C21   C     C_R   0.372474 0.031670 0.535007 0.357843
C22   C     C_R   0.378247 0.138929 0.524430 -0.287329
C23   C     C_R   0.525962 0.132965 0.443890 0.057138
C24   C     C_R   0.538023 0.026921 0.475631 0.039912
C25   C     C_R   0.455945 0.974908 0.514931 -0.001382
C26   C     C_R   0.458510 0.867586 0.531264 -0.187415
C27   C     C_R   0.642039 0.866556 0.501818 0.347028
C28   C     C_R   0.634291 0.973207 0.475819 -0.275502
H6    H     H_    0.392847 0.826211 0.555010 0.180491
H7    H     H_    0.708152 0.015007 0.464328 0.183945
H8    H     H_    0.319869 0.182170 0.548154 0.185650
N1    N     N_R   0.798200 0.480260 0.519790 -0.165702
N2    N     N_R   0.201820 0.519740 0.480210 -0.132989
C29   C     C_R   0.002911 0.590417 0.381251 0.232195
C30   C     C_R   0.125053 0.585375 0.397516 0.093167
C31   C     C_R   0.158475 0.467423 0.554673 0.186633
C32   C     C_R   0.034696 0.465788 0.534826 -0.030853
C33   C     C_R   0.956430 0.530531 0.451315 -0.169949
C34   C     C_R   0.835393 0.534453 0.443469 0.415043
C35   C     C_R   0.872395 0.408690 0.593346 0.189927
C36   C     C_R   0.988117 0.400425 0.599636 -0.279199
H9    H     H_    0.041607 0.340935 0.656640 0.170898
N3    N     N_R   0.751670 0.817626 0.521840 0.236625
O9    O     O_R   0.800401 0.758992 0.611599 -0.360775
O10   O     O_R   0.816366 0.851892 0.467260 -0.326218
N4    N     N_R   0.286871 0.982988 0.573401 0.175527
O11   O     O_R   0.182083 0.960743 0.501711 -0.413346
O12   O     O_R   0.300728 0.991127 0.675383 -0.380050
C37   C     C_3   0.561564 0.178576 0.350209 -0.417504
C38   C     C_3   0.450590 0.203817 0.246439 -0.334112
C39   C     C_3   0.474676 0.202189 0.141225 -0.834252
H10   H     H_    0.556464 0.247735 0.148827 0.259456
H11   H     H_    0.485633 0.120812 0.125300 0.282957
H12   H     H_    0.399180 0.235773 0.070202 0.253803
H13   H     H_    0.378000 0.145835 0.240679 0.244119
H14   H     H_    0.419201 0.281651 0.251583 0.205182
H15   H     H_    0.619506 0.249077 0.373188 0.218746
H16   H     H_    0.613177 0.122759 0.328184 0.228954
N5    N     N_R   0.748545 0.584535 0.348710 0.250823
O13   O     O_R   0.699450 0.668847 0.355898 -0.297146
O14   O     O_R   0.719350 0.546145 0.253324 -0.383130
C40   C     C_3   0.835094 0.334526 0.669524 -0.389016
C41   C     C_3   0.831166 0.220609 0.641001 -0.387431
C42   C     C_3   0.780089 0.148434 0.710130 -0.760758
H17   H     H_    0.834240 0.154731 0.799191 0.283857
H18   H     H_    0.687488 0.168766 0.693069 0.254189
H19   H     H_    0.780479 0.066632 0.689429 0.267670
H20   H     H_    0.775822 0.212819 0.552556 0.239333
H21   H     H_    0.921567 0.195061 0.656428 0.236643
H22   H     H_    0.898502 0.343377 0.755695 0.198626
H23   H     H_    0.748475 0.352008 0.667405 0.257664
N6    N     N_R   0.928085 0.658653 0.293673 0.222486
O15   O     O_R   0.892725 0.744391 0.315672 -0.310777
O16   O     O_R   0.898965 0.637273 0.191524 -0.327300
C43   C     C_3   0.167868 0.657507 0.322280 -0.400216
C44   C     C_3   0.170556 0.773739 0.341739 -0.330676
C45   C     C_3   0.232359 0.839269 0.276760 -0.816144
H24   H     H_    0.324744 0.814423 0.300631 0.247572
H25   H     H_    0.183726 0.831243 0.187043 0.271179
H26   H     H_    0.234543 0.922505 0.294027 0.274373
H27   H     H_    0.080939 0.803934 0.316388 0.297939
H28   H     H_    0.218242 0.784790 0.430323 0.239329
H29   H     H_    0.257198 0.642388 0.334525 0.269109
H30   H     H_    0.114167 0.643539 0.234824 0.226161
C46   C     C_3   0.261994 0.703723 0.791488 -0.372971
C47   C     C_3   0.235035 0.723321 0.668213 -0.396751
C48   C     C_3   0.104838 0.750097 0.605717 -0.645060
H31   H     H_    0.046143 0.683881 0.613630 0.244278
H32   H     H_    0.083688 0.819717 0.638645 0.306886
H33   H     H_    0.085993 0.767278 0.517250 0.267165
H34   H     H_    0.288745 0.790071 0.655468 0.295274
H35   H     H_    0.255788 0.655299 0.633793 0.215979
H36   H     H_    0.182934 0.659439 0.795058 0.197086
H37   H     H_    0.268204 0.779305 0.828970 0.249877
C49   C     C_3   0.239739 0.433195 0.672247 -0.381246
C50   C     C_3   0.284741 0.322382 0.685856 -0.316574
C51   C     C_3   0.326068 0.279111 0.805438 -0.876987
H38   H     H_    0.397687 0.329840 0.859477 0.256942
H39   H     H_    0.251243 0.273761 0.833520 0.265075
H40   H     H_    0.360781 0.199948 0.812567 0.288843
H41   H     H_    0.213500 0.269995 0.633694 0.232311
H42   H     H_    0.361156 0.322566 0.661429 0.253739
H43   H     H_    0.309087 0.490702 0.708837 0.208193
H44   H     H_    0.194502 0.439927 0.729824 0.180128
N7    N     N_R   0.822293 0.334028 0.059175 0.222326
O17   O     O_R   0.893590 0.305559 0.015181 -0.394460
O18   O     O_R   0.843061 0.304110 0.161359 -0.371988
N8    N     N_R   0.509663 0.715134 0.780977 0.201014
O19   O     O_R   0.600283 0.707070 0.754151 -0.392439
O20   O     O_R   0.484145 0.808493 0.794529 -0.353922

loop_
_geom_bond_atom_site_label_1
_geom_bond_atom_site_label_2
_geom_bond_distance
_ccdc_geom_bond_type
C47   H35   1.102301 S    
C39   H11   1.110754 S    
C35   C36   1.397911 A    
C47   C48   1.531747 S    
C4    C6    1.446399 S    
C7    C8    1.389889 A    
C19   C27   1.416093 A    
C8    N7    1.442063 S    
N6    O15   1.301171 A    
C27   N3    1.437670 S    
C51   H39   1.110803 S    
N8    O19   1.300422 A    
C40   C41   1.537344 S    
N7    O17   1.301797 A    
Zn1   O7    1.937857 S    
C14   C15   1.418101 A    
N5    O14   1.298101 A    
C21   C22   1.379151 A    
C20   C22   1.395261 A    
C23   C24   1.396584 A    
C35   C40   1.512672 S    
O7    C4    1.307341 A    
N8    O20   1.302235 A    
C39   H12   1.110483 S    
C9    H5    1.070729 S    
N3    O10   1.301472 A    
C38   H13   1.112851 S    
C36   H9    1.080925 S    
C48   H33   1.104992 S    
C5    H2    1.079919 S    
N4    O12   1.300904 A    
C29   N6    1.436041 S    
C49   C50   1.532031 S    
C45   H24   1.110407 S    
O5    C3    1.297802 A    
C44   H27   1.101478 S    
C34   N5    1.426622 S    
C41   H20   1.109362 S    
C30   C43   1.525756 S    
N2    C31   1.400284 A    
C50   C51   1.527236 S    
C37   H16   1.107605 S    
C50   H41   1.111157 S    
C11   C15   1.427816 A    
N2    C30   1.393850 A    
C39   H10   1.107054 S    
C40   H22   1.112241 S    
C46   H37   1.112068 S    
C9    C10   1.423682 A    
C49   H43   1.083371 S    
C48   H31   1.110180 S    
C19   C26   1.391959 A    
O3    Zn1   1.973183 S    
C7    H4    1.081905 S    
C51   H38   1.109853 S    
N7    O18   1.301798 A    
C5    C17   1.381705 A    
C23   C37   1.528611 S    
C46   H36   1.111903 S    
N5    O13   1.297825 A    
C31   C32   1.435620 A    
C11   C18   1.414838 A    
C21   C25   1.404981 A    
C20   C23   1.405539 A    
C6    C16   1.383712 A    
C12   C13   1.424504 A    
O3    C2    1.305731 A    
C24   C25   1.415321 A    
C42   H18   1.110831 S    
C15   N8    1.448658 S    
C41   C42   1.527047 S    
C24   C28   1.399751 A    
C13   C14   1.413234 A    
C38   H14   1.110129 S    
C45   H26   1.110614 S    
O1    C1    1.304659 A    
Zn1   N1    2.047399 S    
Zn2   N2    2.047156 S    
C42   H19   1.110135 S    
C1    C20   1.440912 S    
Zn2   O8    1.973184 S    
C45   H25   1.110756 S    
C6    C17   1.387327 A    
C44   H28   1.102873 S    
C48   H32   1.110932 S    
C28   H7    1.082377 S    
N1    C34   1.384862 A    
C25   C26   1.383357 A    
C2    C18   1.459342 S    
O8    C4    1.302146 A    
C40   H23   1.086786 S    
C38   C39   1.527792 S    
C31   C49   1.530067 S    
N6    O16   1.301480 A    
C26   H6    1.072757 S    
C10   C12   1.416662 A    
C27   C28   1.389898 A    
C21   N4    1.427576 S    
C43   H30   1.108648 S    
C44   C45   1.529196 S    
C32   C33   1.399869 A    
N1    C35   1.375360 A    
C47   H34   1.096159 S    
Zn1   O5    2.013406 S    
O1    Zn1   1.993657 S    
C16   H3    1.072426 S    
O2    Zn2   2.013406 S    
C12   C16   1.398261 A    
O6    C3    1.316899 A    
C49   H44   1.109913 S    
O4    Zn2   1.937857 S    
C33   C34   1.450055 A    
C50   H42   1.101475 S    
C37   C38   1.540023 S    
O2    C1    1.302048 A    
N3    O9    1.301585 A    
C3    C19   1.458387 S    
C43   C44   1.535814 S    
O4    C2    1.307947 A    
C29   C33   1.421343 A    
C46   C47   1.531896 S    
C37   H15   1.107601 S    
N4    O11   1.299816 A    
C5    C13   1.417936 A    
C42   H17   1.110762 S    
C41   H21   1.110564 S    
C8    C9    1.397397 A    
H1    C17   1.080036 S    
Zn2   O6    1.993654 S    
C29   C30   1.432390 A    
C10   C11   1.408929 A    
C22   H8    1.079101 S    
C7    C18   1.399771 A    
C43   H29   1.070009 S    
C51   H40   1.110453 S    
C32   C36   1.406059 A    
C14   C46   1.532752 S    
