data_mof_unit_53971.cif
_audit_creation_date              2012-10-26T18:32:21-0400
_audit_creation_method            fapswitch 2.2
_symmetry_space_group_name_H-M    P1
_symmetry_Int_Tables_number       1
_space_group_crystal_system       triclinic
_cell_length_a                    12.316964
_cell_length_b                    13.098775
_cell_length_c                    15.844205
_cell_angle_alpha                 78.358955
_cell_angle_beta                  100.618611
_cell_angle_gamma                 116.344976
_cell_volume                      2230.53779487

loop_
_atom_site_label
_atom_site_type_symbol
_atom_type_description
_atom_site_fract_x
_atom_site_fract_y
_atom_site_fract_z
_atom_type_partial_charge
C1    C     C_R   0.854947 0.286320 0.508493 0.528361
C2    C     C_R   0.227408 0.835287 0.473262 -0.004681
C3    C     C_R   0.813339 0.086706 0.573292 -0.130469
C4    C     C_R   0.999455 0.500469 0.659374 0.549010
C5    C     C_R   0.732796 0.973521 0.595709 -0.140372
C6    C     C_R   0.609785 0.935853 0.565469 -0.121524
C7    C     C_R   0.564891 0.010434 0.508547 0.032175
C8    C     C_R   0.649778 0.122773 0.479100 0.023710
C9    C     C_R   0.438924 0.977165 0.479198 0.023994
C10   C     C_R   0.401096 0.053829 0.418083 0.044251
C11   C     C_R   0.487401 0.159019 0.383890 -0.143478
C12   C     C_3   0.033381 0.401916 0.069762 -0.225627
C13   C     C_R   0.609966 0.191599 0.412034 -0.124089
C14   C     C_R   0.349074 0.869362 0.507784 -0.145449
C15   C     C_R   0.190671 0.913314 0.416152 -0.137470
C16   C     C_R   0.144860 0.713555 0.488430 0.545190
C17   C     C_R   0.772671 0.163082 0.517112 -0.002573
C18   C     C_R   0.332038 0.309511 0.624796 -0.034181
C19   C     C_R   0.760476 0.646350 0.384460 0.050411
C20   C     C_R   0.664008 0.677830 0.359238 -0.165596
C21   C     C_R   0.559837 0.621917 0.402584 -0.137803
C22   C     C_R   0.550789 0.533036 0.472067 -0.003708
C23   C     C_3   0.999268 0.498018 0.083182 0.058650
C24   C     C_R   0.652114 0.503878 0.495443 0.180769
C25   C     C_R   0.445051 0.471412 0.518479 -0.023968
C26   C     C_R   0.438999 0.376520 0.582808 0.025443
C27   C     C_R   0.541062 0.352536 0.605935 -0.177876
C28   C     C_R   0.000745 0.499829 0.340576 0.547679
C29   C     C_R   0.645330 0.416056 0.564614 -0.098252
C30   C     C_R   0.344393 0.499896 0.503817 0.034034
C31   C     C_R   0.237890 0.344853 0.607823 0.042157
C32   C     C_3   0.038195 0.405925 0.971432 -0.080274
C33   C     C_3   0.869138 0.477868 0.936273 -0.205893
C34   C     C_3   0.094499 0.614826 0.042976 -0.221442
C35   C     C_3   0.868647 0.473255 0.035338 -0.077523
C36   C     C_1   0.002106 0.498692 0.251352 -0.034781
C37   C     C_3   0.997049 0.499095 0.916600 0.058171
C38   C     C_R   0.973151 0.288009 0.939948 0.034849
C39   C     C_R   0.033217 0.255845 0.889658 -0.096967
C40   C     C_R   0.975129 0.150194 0.857684 -0.114368
C41   C     C_R   0.856650 0.074830 0.875736 -0.105970
C42   C     C_R   0.796047 0.105029 0.925775 -0.115351
C43   C     C_R   0.853523 0.210806 0.957656 -0.092882
C44   C     C_R   0.311670 0.198734 0.681319 0.006694
C45   C     C_3   0.088989 0.617484 0.944118 -0.240002
C46   C     C_R   0.318161 0.109043 0.649402 -0.095371
C47   C     C_R   0.294316 0.003144 0.701349 -0.107240
C48   C     C_R   0.262706 0.985502 0.785124 -0.105324
C49   C     C_R   0.254813 0.073735 0.817039 -0.118091
C50   C     C_R   0.278819 0.179901 0.765361 -0.110974
C51   C     C_R   0.812562 0.547297 0.056660 0.036638
C52   C     C_R   0.845818 0.662851 0.019034 -0.094728
C53   C     C_R   0.796151 0.728988 0.042911 -0.118323
C54   C     C_R   0.713212 0.681243 0.104737 -0.109516
C55   C     C_R   0.679140 0.566989 0.142480 -0.107048
C56   C     C_1   0.001995 0.497965 0.175878 -0.068151
C57   C     C_R   0.727972 0.500279 0.118504 -0.090669
C58   C     C_1   0.997255 0.501558 0.823979 -0.066684
C59   C     C_1   0.998039 0.501572 0.748542 -0.033062
C60   C     C_R   0.277247 0.022572 0.389101 -0.138060
Cu1   Cu    Cu3+1 0.098280 0.475420 0.519630 0.922998
Cu2   Cu    Cu3+1 0.901720 0.524580 0.480370 0.915440
H1    H     H_    0.967693 0.316790 0.098469 0.111668
H2    H     H_    0.765202 0.915358 0.639291 0.116552
H3    H     H_    0.672937 0.270626 0.378905 0.147135
H4    H     H_    0.155000 0.295266 0.638797 0.123496
H5    H     H_    0.542682 0.285683 0.658314 0.127615
H6    H     H_    0.341775 0.570859 0.456789 0.124002
H7    H     H_    0.840973 0.690102 0.350445 0.130231
H8    H     H_    0.487440 0.648914 0.379507 0.099637
H9    H     H_    0.669801 0.745468 0.305719 0.097410
H10   H     H_    0.843659 0.546284 0.897562 0.115916
H11   H     H_    0.798518 0.396621 0.913853 0.109602
H12   H     H_    0.136591 0.437746 0.963596 0.103802
H13   H     H_    0.809160 0.382481 0.059136 0.091057
H14   H     H_    0.181473 0.639563 0.927377 0.108500
H15   H     H_    0.062259 0.686516 0.908187 0.109127
H16   H     H_    0.187542 0.627288 0.073917 0.111325
H17   H     H_    0.460236 0.215895 0.334132 0.104192
H18   H     H_    0.124762 0.313240 0.874068 0.090992
H19   H     H_    0.021928 0.126914 0.818633 0.103202
H20   H     H_    0.811799 0.993034 0.850954 0.102764
H21   H     H_    0.704236 0.046381 0.939873 0.101204
H22   H     H_    0.804236 0.231175 0.996462 0.087692
H23   H     H_    0.124127 0.414357 0.105661 0.105742
H24   H     H_    0.340809 0.120915 0.584144 0.126943
H25   H     H_    0.299657 0.934564 0.676448 0.112248
H26   H     H_    0.243827 0.903323 0.825173 0.097590
H27   H     H_    0.229652 0.059744 0.881748 0.100928
H28   H     H_    0.271837 0.247334 0.790774 0.093939
H29   H     H_    0.718719 0.392747 0.589556 0.185773
H30   H     H_    0.909851 0.702584 0.971140 0.092847
H31   H     H_    0.822375 0.817592 0.013582 0.104627
H32   H     H_    0.675404 0.732801 0.123447 0.098161
H33   H     H_    0.615203 0.530142 0.190686 0.108112
H34   H     H_    0.080186 0.687846 0.056059 0.122169
H35   H     H_    0.701185 0.412257 0.149495 0.090577
H36   H     H_    0.096448 0.888013 0.389068 0.123015
H37   H     H_    0.248010 0.081033 0.342808 0.106424
H38   H     H_    0.371113 0.808073 0.555171 0.116209
H39   H     H_    0.906981 0.115458 0.602473 0.126201
H40   H     H_    0.553192 0.847397 0.587228 0.102837
N1    N     N_R   0.246300 0.438200 0.549400 -0.243680
N2    N     N_R   0.754300 0.561180 0.451130 -0.235450
O1    O     O_R   0.972520 0.318130 0.524690 -0.503831
O2    O     O_R   0.806530 0.359650 0.491530 -0.526933
O3    O     O_R   0.083030 0.479240 0.637150 -0.494863
O4    O     O_R   0.917040 0.520750 0.603990 -0.512370
O5    O     O_R   0.193470 0.640350 0.508470 -0.508366
O6    O     O_R   0.027480 0.681870 0.475310 -0.503035
O7    O     O_R   0.082960 0.479250 0.396010 -0.494831
O8    O     O_R   0.916970 0.520760 0.362850 -0.502917

loop_
_geom_bond_atom_site_label_1
_geom_bond_atom_site_label_2
_ccdc_geom_bond_type
C31   H4    S    
C8    C13   A    
C27   C29   A    
C15   C60   A    
C19   C20   A    
C18   C26   A    
C60   H37   S    
Cu1   O5    S    
C16   O6    A    
C7    C8    A    
C13   H3    S    
C53   C54   A    
C28   O8    A    
C4    O4    A    
C12   C23   S    
C35   H13   S    
C26   C27   A    
C12   H23   S    
C45   H14   S    
Cu1   N1    S    
C34   H34   S    
C32   H12   S    
C38   C39   A    
Cu2   O4    S    
C41   C42   A    
C24   C29   A    
C33   H10   S    
C46   C47   A    
C50   H28   S    
C22   C25   A    
C30   N1    A    
C48   H26   S    
C20   H9    S    
C51   C57   A    
C32   C38   S    
Cu1   O1    S    
C9    C10   A    
C37   C58   S    
C1    O2    A    
C3    H39   S    
C21   C22   A    
C12   C32   S    
C43   H22   S    
C2    C14   A    
C44   C46   A    
C16   O5    A    
Cu2   N2    S    
C28   O7    A    
C4    O3    A    
C53   H31   S    
C51   C52   A    
C23   C56   S    
C55   H33   S    
C39   C40   A    
C12   H1    S    
C58   C59   T    
C33   C37   S    
C5    H2    S    
C24   N2    A    
C47   H25   S    
C10   C60   A    
C9    C14   A    
C36   C56   T    
C18   C44   S    
C19   N2    A    
C47   C48   A    
Cu2   O6    S    
C23   C34   S    
C57   H35   S    
C34   C45   S    
C32   C37   S    
C2    C15   A    
C11   H17   S    
C33   H11   S    
C40   C41   A    
C23   C35   S    
C55   C57   A    
C35   C51   S    
C22   C24   A    
C19   H7    S    
C42   C43   A    
C15   H36   S    
C37   C45   S    
Cu1   O7    S    
C29   H29   S    
C2    C16   S    
C52   C53   A    
C44   C50   A    
C25   C30   A    
C7    C9    A    
C54   C55   A    
C48   C49   A    
C40   H19   S    
C42   H21   S    
C49   H27   S    
C3    C5    A    
C14   H38   S    
C6    C7    A    
Cu2   O2    S    
C1    C17   S    
C8    C17   A    
C21   H8    S    
C39   H18   S    
C25   C26   A    
C38   C43   A    
C34   H16   S    
C11   C13   A    
C5    C6    A    
C41   H20   S    
C4    C59   S    
C33   C35   S    
C3    C17   A    
C6    H40   S    
Cu1   Cu2   S    
Cu1   O3    S    
C54   H32   S    
C27   H5    S    
C10   C11   A    
Cu2   O8    S    
C20   C21   A    
C28   C36   S    
C49   C50   A    
C1    O1    A    
C45   H15   S    
C18   C31   A    
C52   H30   S    
C30   H6    S    
C31   N1    A    
C46   H24   S    
