data_mof_unit_25823.cif
_audit_creation_date              2013-03-05T16:14:15-0500
_audit_creation_method            fapswitch 2.2
_symmetry_space_group_name_H-M    P1
_symmetry_Int_Tables_number       1
_space_group_crystal_system       triclinic
_cell_length_a                    10.762474
_cell_length_b                    10.673454
_cell_length_c                    9.964957
_cell_angle_alpha                 90.058635
_cell_angle_beta                  92.65304
_cell_angle_gamma                 90.418028
_cell_volume                      1143.44377844

loop_
_atom_site_label
_atom_site_type_symbol
_atom_site_description
_atom_site_fract_x
_atom_site_fract_y
_atom_site_fract_z
_atom_type_partial_charge
O1    O     O_R   0.499990 0.316750 0.614620 -0.631513
O2    O     O_R   0.500010 0.683250 0.385380 -0.631512
O3    O     O_R   0.499990 0.316780 0.385290 -0.626600
O4    O     O_R   0.500010 0.683220 0.614710 -0.626600
C1    C     C_R   0.500271 0.260355 0.499904 0.860912
C2    C     C_R   0.499729 0.739645 0.500096 0.860912
O5    O     O_R   0.316760 0.500000 0.614660 -0.532802
O6    O     O_R   0.683240 0.500000 0.385340 -0.532802
O7    O     O_R   0.316760 0.500020 0.385330 -0.636514
O8    O     O_R   0.683240 0.499980 0.614670 -0.636514
C3    C     C_R   0.260140 0.497548 0.496843 0.880556
C4    C     C_R   0.739860 0.502452 0.503157 0.880554
Zn1   Zn    Zn3+2 0.500000 0.499980 0.653120 1.004540
Zn2   Zn    Zn3+2 0.500000 0.500020 0.346880 1.004540
C5    C     C_R   0.152788 0.761309 0.104233 -0.182372
C6    C     C_R   0.847212 0.238691 0.895767 -0.182372
H1    H     H_    0.161504 0.859342 0.078328 0.177825
H2    H     H_    0.838496 0.140658 0.921672 0.177825
C7    C     C_R   0.122137 0.728571 0.234375 -0.158969
C8    C     C_R   0.877863 0.271429 0.765625 -0.158969
H3    H     H_    0.107568 0.801088 0.307982 0.155091
H4    H     H_    0.892432 0.198912 0.692018 0.155090
C9    C     C_R   0.105827 0.602410 0.267028 0.099749
C10   C     C_R   0.894173 0.397590 0.732971 0.099749
C11   C     C_R   0.122725 0.509696 0.171092 -0.177865
C12   C     C_R   0.877275 0.490304 0.828908 -0.177865
H5    H     H_    0.109468 0.412371 0.198338 0.189284
H6    H     H_    0.890531 0.587629 0.801662 0.189284
C13   C     C_R   0.153468 0.540616 0.040696 0.298858
C14   C     C_R   0.846532 0.459384 0.959304 0.298858
C15   C     C_R   0.165812 0.668709 0.005904 0.146987
C16   C     C_R   0.834188 0.331291 0.994096 0.146987
C17   C     C_R   0.930382 0.571815 0.407898 -0.152281
C18   C     C_R   0.069618 0.428185 0.592102 -0.152281
H7    H     H_    0.876014 0.626981 0.335979 0.220765
H8    H     H_    0.123985 0.373019 0.664021 0.220765
C19   C     C_R   0.872985 0.506359 0.508953 -0.104506
C20   C     C_R   0.127015 0.493641 0.491046 -0.104507
C21   C     C_R   0.943089 0.436918 0.604651 0.006834
C22   C     C_R   0.056911 0.563082 0.395349 0.006834
C23   C     C_R   0.457577 0.063755 0.384246 -0.171828
C24   C     C_R   0.542423 0.936245 0.615754 -0.171828
H9    H     H_    0.423394 0.112643 0.294845 0.156778
H10   H     H_    0.576606 0.887357 0.705155 0.156778
C25   C     C_R   0.456972 0.935383 0.384477 -0.179090
C26   C     C_R   0.543028 0.064617 0.615523 -0.179090
H11   H     H_    0.422300 0.885820 0.295258 0.149759
H12   H     H_    0.577700 0.114180 0.704742 0.149759
C27   C     C_R   0.499541 0.872270 0.500182 -0.002133
C28   C     C_R   0.500459 0.127730 0.499818 -0.002133
C29   C     C_R   0.488456 0.609020 0.070927 -0.001044
C30   C     C_R   0.511544 0.390980 0.929073 -0.001043
H13   H     H_    0.479148 0.696936 0.123286 0.124737
H14   H     H_    0.520851 0.303063 0.876714 0.124737
C31   C     C_R   0.489939 0.609106 0.928207 -0.002455
C32   C     C_R   0.510061 0.390894 0.071793 -0.002455
H15   H     H_    0.482040 0.697133 0.875145 0.138172
H16   H     H_    0.517960 0.302867 0.124855 0.138172
N1    N     N_R   0.499970 0.499970 0.857200 -0.067277
N2    N     N_R   0.500030 0.500030 0.142800 -0.067277
I1    I     I_    0.185732 0.732426 0.806252 -0.343791
I2    I     I_    0.814268 0.267574 0.193748 -0.343791
N3    N     N_R   0.169625 0.441038 0.946495 0.180849
O9    O     O_R   0.250300 0.453026 0.855075 -0.396686
O10   O     O_R   0.124130 0.329877 0.968109 -0.423969
N4    N     N_R   0.830375 0.558962 0.053505 0.180849
O11   O     O_R   0.749700 0.546974 0.144924 -0.396686
O12   O     O_R   0.875870 0.670123 0.031891 -0.423969

loop_
_geom_bond_atom_site_label_1
_geom_bond_atom_site_label_2
_geom_bond_distance
_ccdc_geom_bond_type
C19   C21   1.403917 A    
C3    C20   1.431548 S    
C7    C9    1.397384 A    
O7    Zn2   2.026327 S    
N3    O10   1.302177 A    
C5    C15   1.403339 A    
Zn1   N1    2.033664 S    
C30   N1    1.370152 A    
C31   N1    1.369831 A    
C11   H5    1.084053 S    
Zn2   N2    2.033663 S    
C26   C28   1.396521 A    
N4    O12   1.302178 A    
C25   C27   1.396521 A    
O6    C4    1.297643 A    
O3    C1    1.291619 A    
C31   H15   1.080555 S    
N4    O11   1.293059 A    
C16   I2    2.122920 S    
C15   I1    2.122920 S    
C13   C15   1.417629 A    
C14   N4    1.434161 S    
C20   C22   1.403917 A    
C23   H9    1.083839 S    
C10   C12   1.393938 A    
O7    C3    1.292033 A    
O2    C2    1.291522 A    
O3    Zn2   1.993288 S    
C24   H10   1.083839 S    
C13   N3    1.434161 S    
O1    C1    1.291520 A    
O8    C4    1.292034 A    
O4    C2    1.291619 A    
C6    C8    1.396998 A    
C7    H3    1.083022 S    
C30   H14   1.080743 S    
C12   C14   1.394948 A    
C18   H8    1.081551 S    
C9    C11   1.393938 A    
C2    C27   1.415586 S    
C11   C13   1.394948 A    
O2    Zn2   1.992585 S    
C26   H12   1.083964 S    
C1    C28   1.415586 S    
C17   C22   1.377068 A    
O1    Zn1   1.992585 S    
C8    H4    1.083023 S    
C24   C27   1.396487 A    
C30   C32   1.423024 A    
C9    C22   1.465832 S    
C14   C16   1.417629 A    
C32   N2    1.369830 A    
C23   C28   1.396487 A    
O5    Zn1   1.991523 S    
C10   C21   1.465832 S    
C6    H2    1.082430 S    
C24   C26   1.370149 A    
C25   H11   1.083964 S    
C4    C19   1.431548 S    
C5    H1    1.082430 S    
C23   C25   1.370149 A    
C6    C16   1.403339 A    
O5    C3    1.297642 A    
O6    Zn2   1.991521 S    
C29   N2    1.370154 A    
C29   C31   1.423024 A    
C17   H7    1.081551 S    
C5    C7    1.396997 A    
C12   H6    1.084053 S    
C18   C21   1.377068 A    
C17   C19   1.391580 A    
C8    C10   1.397383 A    
O4    Zn1   1.993289 S    
C32   H16   1.080555 S    
N3    O9    1.293059 A    
C29   H13   1.080743 S    
O8    Zn1   2.026325 S    
C18   C20   1.391580 A    
