data_mof_unit_60135.cif
_audit_creation_date              2013-03-05T16:01:46-0500
_audit_creation_method            fapswitch 2.2
_symmetry_space_group_name_H-M    P1
_symmetry_Int_Tables_number       1
_space_group_crystal_system       triclinic
_cell_length_a                    31.571081
_cell_length_b                    18.393388
_cell_length_c                    25.708043
_cell_angle_alpha                 90.001261
_cell_angle_beta                  144.554066
_cell_angle_gamma                 90.003634
_cell_volume                      8657.63203761

loop_
_atom_site_label
_atom_site_type_symbol
_atom_site_description
_atom_site_fract_x
_atom_site_fract_y
_atom_site_fract_z
_atom_type_partial_charge
Zn1   Zn    Zn3+2 0.000000 0.413230 0.206100 0.966457
Zn2   Zn    Zn3+2 0.000000 0.586770 0.793900 0.968506
Zn3   Zn    Zn3+2 0.000000 0.413230 0.793900 0.966261
Zn4   Zn    Zn3+2 0.000000 0.586770 0.206100 0.966683
Zn5   Zn    Zn3+2 0.500000 0.913230 0.206100 0.966877
Zn6   Zn    Zn3+2 0.500000 0.086770 0.793900 0.967643
Zn7   Zn    Zn3+2 0.500000 0.913230 0.793900 0.967898
Zn8   Zn    Zn3+2 0.500000 0.086770 0.206100 0.969107
Zn9   Zn    Zn3+2 0.913220 0.500000 0.207210 1.044629
Zn10  Zn    Zn3+2 0.086780 0.500000 0.792790 1.044347
Zn11  Zn    Zn3+2 0.413220 0.000000 0.207210 1.045991
Zn12  Zn    Zn3+2 0.586780 0.000000 0.792790 1.044287
Zn13  Zn    Zn3+2 0.086760 0.500000 0.380740 1.053400
Zn14  Zn    Zn3+2 0.913240 0.500000 0.619260 1.048726
Zn15  Zn    Zn3+2 0.586760 0.000000 0.380740 1.048692
Zn16  Zn    Zn3+2 0.413240 0.000000 0.619260 1.050088
O1    O     O_3   0.999990 0.500000 0.250040 -0.510282
O2    O     O_3   0.000010 0.500000 0.749960 -0.509370
O3    O     O_3   0.499990 0.000000 0.250040 -0.510061
O4    O     O_3   0.500010 0.000000 0.749960 -0.509938
O5    O     O_R   0.914520 0.646170 0.133830 -0.650856
O6    O     O_R   0.085480 0.353830 0.866170 -0.650961
O7    O     O_R   0.085480 0.646170 0.866170 -0.648837
O8    O     O_R   0.914520 0.353830 0.133830 -0.651079
O9    O     O_R   0.414520 0.146170 0.133830 -0.648022
O10   O     O_R   0.585480 0.853830 0.866170 -0.649076
O11   O     O_R   0.585480 0.146170 0.866170 -0.653200
O12   O     O_R   0.414520 0.853830 0.133830 -0.650522
O13   O     O_R   0.085470 0.353820 0.304740 -0.658374
O14   O     O_R   0.914530 0.646180 0.695260 -0.654717
O15   O     O_R   0.914530 0.353820 0.695260 -0.649180
O16   O     O_R   0.085470 0.646180 0.304740 -0.652531
O17   O     O_R   0.585470 0.853820 0.304740 -0.651774
O18   O     O_R   0.414530 0.146180 0.695260 -0.652125
O19   O     O_R   0.414530 0.853820 0.695260 -0.654990
O20   O     O_R   0.585470 0.146180 0.304740 -0.653446
O21   O     O_R   0.853810 0.414550 0.134600 -0.617515
O22   O     O_R   0.146190 0.585450 0.865400 -0.617529
O23   O     O_R   0.146190 0.414550 0.865400 -0.606218
O24   O     O_R   0.853810 0.585450 0.134600 -0.606022
O25   O     O_R   0.353810 0.914550 0.134600 -0.605827
O26   O     O_R   0.646190 0.085450 0.865400 -0.605599
O27   O     O_R   0.646190 0.914550 0.865400 -0.617753
O28   O     O_R   0.353810 0.085450 0.134600 -0.617797
O29   O     O_R   0.146170 0.585430 0.426970 -0.616426
O30   O     O_R   0.853830 0.414570 0.573030 -0.619624
O31   O     O_R   0.853830 0.585430 0.573030 -0.604109
O32   O     O_R   0.146170 0.414570 0.426970 -0.597892
O33   O     O_R   0.646170 0.085430 0.426970 -0.606807
O34   O     O_R   0.353830 0.914570 0.573030 -0.603999
O35   O     O_R   0.353830 0.085430 0.573030 -0.616891
O36   O     O_R   0.646170 0.914570 0.426970 -0.619024
O37   O     O_R   0.939250 0.500000 0.306600 -0.614464
O38   O     O_R   0.060750 0.500000 0.693400 -0.615205
O39   O     O_R   0.439250 0.000000 0.306600 -0.614496
O40   O     O_R   0.560750 0.000000 0.693400 -0.614633
O41   O     O_R   0.999990 0.560720 0.132740 -0.650278
O42   O     O_R   0.000010 0.439280 0.867260 -0.649390
O43   O     O_R   0.000010 0.560720 0.867260 -0.643781
O44   O     O_R   0.999990 0.439280 0.132740 -0.641615
O45   O     O_R   0.499990 0.060720 0.132740 -0.643491
O46   O     O_R   0.500010 0.939280 0.867260 -0.644188
O47   O     O_R   0.500010 0.060720 0.867260 -0.647099
O48   O     O_R   0.499990 0.939280 0.132740 -0.649962
O49   O     O_R   0.060720 0.500000 0.428060 -0.606135
O50   O     O_R   0.939280 0.500000 0.571940 -0.606989
O51   O     O_R   0.560720 0.000000 0.428060 -0.604203
O52   O     O_R   0.439280 0.000000 0.571940 -0.606277
C1    C     C_R   0.860220 0.640382 0.110807 0.812789
C2    C     C_R   0.139776 0.359616 0.889182 0.812881
C3    C     C_R   0.139693 0.640433 0.889022 0.802943
C4    C     C_R   0.860308 0.359565 0.110980 0.801319
C5    C     C_R   0.360297 0.140429 0.110959 0.802577
C6    C     C_R   0.639698 0.859568 0.889032 0.801993
C7    C     C_R   0.639779 0.140381 0.889189 0.811501
C8    C     C_R   0.360221 0.859620 0.110810 0.813240
C9    C     C_R   0.140576 0.360438 0.390397 0.827741
C10   C     C_R   0.860183 0.640317 0.609626 0.826589
C11   C     C_R   0.860272 0.359609 0.609630 0.802709
C12   C     C_R   0.139814 0.640307 0.390384 0.816800
C13   C     C_R   0.639807 0.859684 0.390381 0.816514
C14   C     C_R   0.359397 0.139536 0.609611 0.818036
C15   C     C_R   0.360179 0.859691 0.609622 0.826273
C16   C     C_R   0.639819 0.140313 0.390358 0.825496
C17   C     C_R   0.000059 0.500088 0.391204 0.978471
C18   C     C_R   0.999944 0.499807 0.608793 0.982142
C19   C     C_R   0.500064 0.999887 0.391213 0.981685
C20   C     C_R   0.499940 0.000100 0.608791 0.980610
C21   C     C_R   0.999986 0.500059 0.108359 0.772368
C22   C     C_R   0.000008 0.499942 0.891634 0.771854
C23   C     C_R   0.499991 0.999940 0.108365 0.771201
C24   C     C_R   0.500015 0.000059 0.891641 0.773211
C25   C     C_3   0.999970 0.569037 0.016964 -0.130035
C26   C     C_3   0.000014 0.430969 0.983018 -0.128838
C27   C     C_3   0.940029 0.534321 0.922599 -0.177300
C28   C     C_3   0.059955 0.465686 0.077383 -0.175441
C29   C     C_3   0.559968 0.034337 0.077400 -0.178838
C30   C     C_3   0.440048 0.965658 0.922618 -0.176462
C31   C     C_3   0.500025 0.069032 0.983034 -0.126942
C32   C     C_3   0.499992 0.930963 0.016984 -0.130263
C33   C     C_3   0.059940 0.534373 0.042573 -0.174100
C34   C     C_3   0.940044 0.465634 0.957410 -0.173808
C35   C     C_3   0.559959 0.965650 0.042592 -0.174122
C36   C     C_3   0.440057 0.034344 0.957426 -0.170449
H1    H     H_    0.109128 0.562589 0.076615 0.141429
H2    H     H_    0.890855 0.437418 0.923367 0.141070
H3    H     H_    0.609150 0.937454 0.076635 0.141195
H4    H     H_    0.390866 0.062540 0.923383 0.143134
H5    H     H_    0.999952 0.625805 0.031613 0.151374
H6    H     H_    0.000032 0.374202 0.968369 0.152127
H7    H     H_    0.890828 0.562494 0.858201 0.137894
H8    H     H_    0.109158 0.437515 0.141781 0.140936
H9    H     H_    0.609167 0.062527 0.141798 0.138026
H10   H     H_    0.390850 0.937467 0.858221 0.138636
H11   H     H_    0.500041 0.125801 0.968388 0.153716
H12   H     H_    0.499979 0.874194 0.031635 0.151687
C37   C     C_3   0.999999 0.499719 0.949042 0.051474
C38   C     C_3   0.999985 0.500286 0.050941 0.051326
C39   C     C_3   0.500015 0.000283 0.949059 0.050933
C40   C     C_3   0.500000 0.999712 0.050957 0.050836
C41   C     C_R   0.268472 0.320012 0.536195 0.111861
C42   C     C_R   0.759848 0.708086 0.464655 0.090459
C43   C     C_R   0.761566 0.290379 0.465370 0.116304
C44   C     C_R   0.240487 0.707709 0.535637 0.105005
C45   C     C_R   0.740153 0.791971 0.535423 0.105495
C46   C     C_R   0.231426 0.179889 0.463901 0.103623
C47   C     C_R   0.259520 0.792231 0.464438 0.089760
C48   C     C_R   0.739099 0.209157 0.534497 0.087377
C49   C     C_R   0.793994 0.738622 0.587679 -0.284230
C50   C     C_R   0.179433 0.235034 0.411740 -0.272114
C51   C     C_R   0.205675 0.738911 0.412189 -0.287014
C52   C     C_R   0.793043 0.262348 0.586804 -0.277868
C53   C     C_R   0.320470 0.264877 0.588337 -0.270574
C54   C     C_R   0.705977 0.761380 0.412378 -0.285496
C55   C     C_R   0.707335 0.237172 0.412985 -0.265440
C56   C     C_R   0.294304 0.761082 0.587867 -0.285300
H13   H     H_    0.827241 0.729483 0.655216 0.166974
H14   H     H_    0.124576 0.222697 0.343667 0.171388
H15   H     H_    0.172209 0.730002 0.344508 0.169877
H16   H     H_    0.825283 0.272531 0.653674 0.169175
H17   H     H_    0.375321 0.277215 0.656417 0.171187
H18   H     H_    0.672757 0.770531 0.344855 0.169690
H19   H     H_    0.674779 0.226524 0.346035 0.162391
H20   H     H_    0.327794 0.769980 0.655560 0.167389
C57   C     C_R   0.803982 0.696406 0.552933 -0.006869
C58   C     C_R   0.197238 0.304818 0.447175 -0.005251
C59   C     C_R   0.196008 0.696385 0.447126 -0.004889
C60   C     C_R   0.804313 0.303268 0.552899 -0.020247
C61   C     C_R   0.302686 0.195111 0.552876 -0.009987
C62   C     C_R   0.695991 0.803597 0.447111 -0.004523
C63   C     C_R   0.696102 0.196340 0.447000 -0.013693
C64   C     C_R   0.303972 0.803608 0.552917 -0.007278
C65   C     C_R   0.761731 0.709880 0.057653 0.092899
C66   C     C_R   0.238378 0.290233 0.942471 0.093632
C67   C     C_R   0.237939 0.710061 0.941698 0.116152
C68   C     C_R   0.762024 0.289974 0.058255 0.115508
C69   C     C_R   0.262008 0.210022 0.058217 0.115612
C70   C     C_R   0.737872 0.789870 0.941614 0.115704
C71   C     C_R   0.738430 0.209727 0.942555 0.092710
C72   C     C_R   0.261610 0.790235 0.057496 0.093181
C73   C     C_R   0.207707 0.263100 0.002003 -0.255371
C74   C     C_R   0.792176 0.736789 0.997825 -0.256618
C75   C     C_R   0.792694 0.262789 0.998718 -0.255642
C76   C     C_R   0.207346 0.737173 0.001335 -0.253016
C77   C     C_R   0.707457 0.762928 0.001484 -0.253628
C78   C     C_R   0.292640 0.237172 0.998632 -0.251169
C79   C     C_R   0.292250 0.763140 0.997924 -0.255459
C80   C     C_R   0.707712 0.236896 0.002026 -0.258192
H21   H     H_    0.175529 0.274101 0.004312 0.162267
H22   H     H_    0.824274 0.725705 0.995412 0.161598
H23   H     H_    0.824803 0.273819 0.996310 0.164799
H24   H     H_    0.175266 0.726113 0.003782 0.164813
H25   H     H_    0.675447 0.774053 0.004022 0.164703
H26   H     H_    0.324739 0.226134 0.996211 0.165670
H27   H     H_    0.324419 0.774159 0.995603 0.161844
H28   H     H_    0.675514 0.225907 0.004308 0.161896
C81   C     C_R   0.195920 0.303414 0.944801 -0.031202
C82   C     C_R   0.804073 0.696584 0.055173 -0.031012
C83   C     C_R   0.804380 0.303201 0.055764 -0.028856
C84   C     C_R   0.195622 0.696797 0.944240 -0.028908
C85   C     C_R   0.695636 0.803212 0.944263 -0.028884
C86   C     C_R   0.304351 0.196780 0.055712 -0.029353
C87   C     C_R   0.304062 0.803428 0.055162 -0.030945
C88   C     C_R   0.695938 0.196572 0.944837 -0.031004
C89   C     C_R   0.043513 0.449142 0.516437 0.196922
C90   C     C_R   0.956346 0.550522 0.483368 0.200932
C91   C     C_R   0.544505 0.049936 0.517501 0.201753
C92   C     C_R   0.455541 0.950004 0.482546 0.201885
C93   C     C_R   0.042927 0.448188 0.569839 0.201448
C94   C     C_R   0.956919 0.551365 0.429978 0.205161
C95   C     C_R   0.543894 0.050787 0.570849 0.204172
C96   C     C_R   0.456155 0.949153 0.429198 0.203859
C97   C     C_R   0.999628 0.499308 0.553020 -0.336126
C98   C     C_R   0.000377 0.500465 0.446968 -0.334799
C99   C     C_R   0.499635 0.000504 0.553035 -0.336177
C100  C     C_R   0.500388 0.999458 0.446988 -0.336605
N1    N     N_3   0.288893 0.391541 0.573318 -0.415778
H29   H     H_    0.332188 0.409287 0.593339 0.177334
H30   H     H_    0.307802 0.388033 0.630535 0.215137
N2    N     N_3   0.770748 0.667573 0.428590 -0.363862
H31   H     H_    0.721832 0.641159 0.370502 0.205716
H32   H     H_    0.782217 0.704365 0.410150 0.229631
N3    N     N_3   0.774461 0.329889 0.430864 -0.402837
H33   H     H_    0.735107 0.316957 0.363500 0.184996
H34   H     H_    0.824696 0.312547 0.466280 0.192025
N4    N     N_3   0.230117 0.666630 0.572066 -0.410352
H35   H     H_    0.279176 0.640216 0.629881 0.198832
H36   H     H_    0.218844 0.702997 0.591002 0.188780
N5    N     N_3   0.729409 0.832706 0.571587 -0.411137
H37   H     H_    0.778403 0.859055 0.629641 0.199133
H38   H     H_    0.717889 0.796114 0.590090 0.188702
N6    N     N_3   0.210975 0.108321 0.426852 -0.419737
H39   H     H_    0.167755 0.090617 0.406994 0.184242
H40   H     H_    0.191936 0.111748 0.369535 0.200457
N7    N     N_3   0.270039 0.833101 0.428103 -0.364226
H41   H     H_    0.221052 0.859575 0.370251 0.202881
H42   H     H_    0.281272 0.796547 0.409234 0.230013
N8    N     N_3   0.726867 0.169940 0.569625 -0.363465
H43   H     H_    0.775491 0.143752 0.628461 0.205299
H44   H     H_    0.714615 0.207532 0.586607 0.229487
N9    N     N_3   0.775481 0.671280 0.119033 -0.371941
H45   H     H_    0.825389 0.689993 0.183461 0.243642
H46   H     H_    0.736026 0.683889 0.107552 0.204529
N10   N     N_3   0.224798 0.328998 0.881299 -0.372917
H47   H     H_    0.174925 0.310377 0.816786 0.244049
H48   H     H_    0.264333 0.316458 0.892902 0.205856
N11   N     N_3   0.224499 0.671052 0.880708 -0.402614
H49   H     H_    0.174106 0.688559 0.815828 0.191717
H50   H     H_    0.263547 0.684259 0.891631 0.184525
N12   N     N_3   0.775424 0.329018 0.119195 -0.402840
H51   H     H_    0.825800 0.311514 0.184091 0.191867
H52   H     H_    0.736347 0.315840 0.108229 0.184369
N13   N     N_3   0.275414 0.170994 0.119168 -0.402041
H53   H     H_    0.325794 0.188515 0.184059 0.192074
H54   H     H_    0.236342 0.184172 0.108209 0.185661
N14   N     N_3   0.724354 0.828802 0.880528 -0.402933
H55   H     H_    0.673927 0.811275 0.815677 0.191188
H56   H     H_    0.763343 0.815542 0.891365 0.184189
N15   N     N_3   0.724851 0.170971 0.881383 -0.372105
H57   H     H_    0.675083 0.189751 0.816912 0.243763
H58   H     H_    0.764501 0.183373 0.893150 0.204192
N16   N     N_3   0.275231 0.828955 0.118719 -0.371547
H59   H     H_    0.325019 0.810175 0.183176 0.243994
H60   H     H_    0.235613 0.816519 0.107002 0.204582
N17   N     N_R   0.083305 0.394659 0.528108 0.249216
O53   O     O_R   0.048213 0.344774 0.467264 -0.407056
O54   O     O_R   0.153555 0.401065 0.592398 -0.317540
N18   N     N_R   0.915757 0.604552 0.470792 0.246222
O55   O     O_R   0.949846 0.652463 0.533131 -0.415619
O56   O     O_R   0.844958 0.600129 0.402550 -0.335544
N19   N     N_R   0.585984 0.103319 0.530996 0.247129
O57   O     O_R   0.552645 0.152346 0.469956 -0.414280
O58   O     O_R   0.656587 0.097077 0.598353 -0.337109
N20   N     N_R   0.414102 0.896593 0.469094 0.247079
O59   O     O_R   0.343494 0.902776 0.401729 -0.336621
O60   O     O_R   0.447479 0.847608 0.530188 -0.415294
N21   N     N_R   0.082079 0.392557 0.636714 0.235653
O61   O     O_R   0.151364 0.382332 0.697613 -0.339425
O62   O     O_R   0.048283 0.351454 0.636347 -0.436625
N22   N     N_R   0.917572 0.606752 0.362873 0.235866
O63   O     O_R   0.847295 0.613258 0.298268 -0.342696
O64   O     O_R   0.951717 0.649540 0.364877 -0.431549
N23   N     N_R   0.583888 0.105744 0.638602 0.236271
O65   O     O_R   0.550273 0.148758 0.637248 -0.432242
O66   O     O_R   0.654064 0.112246 0.702519 -0.342831
N24   N     N_R   0.416203 0.894169 0.361484 0.236066
O67   O     O_R   0.449850 0.851194 0.362860 -0.431869
O68   O     O_R   0.346033 0.887607 0.297578 -0.342215

loop_
_geom_bond_atom_site_label_1
_geom_bond_atom_site_label_2
_geom_bond_distance
_ccdc_geom_bond_type
Zn6   O47   1.945618 S    
N3    H33   1.045726 S    
C76   C84   1.399187 A    
C90   C94   1.387406 A    
Zn4   O5    1.938973 S    
C69   C73   1.394352 A    
C91   C100  1.405010 A    
Zn2   O2    1.955434 S    
Zn14  O2    1.948603 S    
C90   C97   1.405158 A    
N15   H57   1.045060 S    
C78   C86   1.399300 A    
Zn16  O35   1.941151 S    
C89   C98   1.404542 A    
C47   N7    1.432936 S    
N10   H47   1.045094 S    
O40   C20   1.270071 A    
C90   N18   1.435051 S    
N19   O57   1.300988 A    
Zn14  O30   1.940917 S    
C6    C85   1.457424 S    
Zn13  O49   1.945570 S    
O44   C21   1.281612 A    
C27   C37   1.534595 S    
Zn15  O3    1.948606 S    
N3    H34   1.045638 S    
C67   N11   1.438476 S    
O26   C7    1.279647 A    
N9    H45   1.045115 S    
Zn7   O10   1.938972 S    
O41   C21   1.279687 A    
Zn13  O1    1.948606 S    
C72   C76   1.393451 A    
O33   C16   1.279747 A    
C79   H27   1.083877 S    
C24   C39   1.476105 S    
Zn16  O34   1.940917 S    
C19   C100  1.425549 S    
Zn12  O27   1.941306 S    
N7    H42   1.045692 S    
C18   C97   1.425713 S    
C31   H11   1.110135 S    
O30   C11   1.279415 A    
C1    C82   1.458058 S    
C26   C37   1.536683 S    
N4    H36   1.045679 S    
C17   C98   1.425407 S    
N19   O58   1.300514 A    
O16   C12   1.283812 A    
C46   C50   1.391151 A    
C77   H25   1.083915 S    
C13   C62   1.457021 S    
C54   C62   1.399416 A    
C46   N6    1.433437 S    
N14   H55   1.045635 S    
Zn3   O2    1.955476 S    
C80   H28   1.083877 S    
N21   O61   1.300580 A    
Zn8   O20   1.938148 S    
C42   C57   1.409221 A    
N1    H30   1.045679 S    
C42   C54   1.391306 A    
Zn12  O26   1.941045 S    
C10   C57   1.457255 S    
C70   N14   1.438468 S    
O22   C3    1.279310 A    
Zn14  O31   1.941151 S    
N8    H44   1.045701 S    
C12   C59   1.456834 S    
C79   C87   1.399752 A    
N11   H49   1.045637 S    
C92   C99   1.405019 A    
C67   C79   1.394314 A    
N2    H31   1.045637 S    
C80   C88   1.399750 A    
Zn5   O17   1.938404 S    
O47   C24   1.279708 A    
N16   H60   1.045735 S    
Zn11  O25   1.941049 S    
Zn16  O52   1.945570 S    
C71   C88   1.410601 A    
N1    H29   1.045685 S    
C8    C87   1.457873 S    
C75   H23   1.083918 S    
N13   H53   1.045637 S    
C66   C81   1.410655 A    
C72   C87   1.410593 A    
C91   C95   1.387331 A    
Zn9   O24   1.941307 S    
C34   C38   1.534590 S    
C27   C34   1.548031 S    
C42   N2    1.432900 S    
Zn8   O45   1.945598 S    
Zn3   O15   1.938151 S    
C73   H21   1.083875 S    
O27   C6    1.279336 A    
C55   H19   1.083858 S    
C31   C36   1.547216 S    
Zn15  O51   1.945570 S    
C25   C27   1.547217 S    
N17   O53   1.300878 A    
C91   N19   1.434898 S    
Zn8   O9    1.938973 S    
C20   C99   1.425556 S    
O28   C5    1.279354 A    
C56   C64   1.399679 A    
O11   C7    1.283512 A    
C7    C88   1.457876 S    
C48   C52   1.390769 A    
Zn1   O13   1.938404 S    
O6    C2    1.283514 A    
C29   C31   1.547207 S    
C49   H13   1.084088 S    
N18   O56   1.300524 A    
O34   C15   1.279407 A    
N5    H37   1.045664 S    
C94   C98   1.404825 A    
C50   C58   1.399603 A    
C33   H1    1.110120 S    
Zn10  O2    1.949937 S    
C44   C59   1.409506 A    
C29   C35   1.548029 S    
C78   H26   1.083911 S    
Zn8   O3    1.955474 S    
O24   C1    1.279701 A    
C44   C56   1.391434 A    
C52   C60   1.399330 A    
C22   C37   1.476087 S    
O7    C3    1.283505 A    
C30   C39   1.534598 S    
Zn2   O14   1.938407 S    
N22   O64   1.301367 A    
C45   C62   1.409463 A    
Zn1   O44   1.945618 S    
C25   C33   1.547214 S    
C68   C83   1.410985 A    
O38   C18   1.270031 A    
O19   C15   1.283688 A    
N4    H35   1.045670 S    
C95   C99   1.405265 A    
C26   H6    1.110137 S    
C32   C35   1.547220 S    
Zn6   O18   1.938407 S    
Zn5   O48   1.945618 S    
O46   C24   1.281588 A    
Zn10  O23   1.941306 S    
N21   O62   1.301390 A    
O43   C22   1.281591 A    
C95   N23   1.437480 S    
C3    C84   1.457210 S    
Zn4   O41   1.945598 S    
C26   C28   1.547208 S    
N7    H41   1.045643 S    
C16   C63   1.457274 S    
Zn7   O46   1.945598 S    
C65   N9    1.437529 S    
N20   O59   1.300510 A    
C68   N12   1.438477 S    
C47   C64   1.409273 A    
C54   H18   1.084107 S    
Zn5   O12   1.938734 S    
C28   H8    1.110103 S    
C48   C63   1.408143 A    
N20   O60   1.300989 A    
Zn6   O11   1.938733 S    
C74   H22   1.083879 S    
C67   C84   1.410978 A    
Zn16  O4    1.948603 S    
Zn11  O3    1.949934 S    
Zn12  O4    1.949937 S    
O32   C9    1.279039 A    
Zn9   O21   1.941049 S    
N16   H59   1.045062 S    
Zn14  O50   1.945570 S    
C53   C61   1.399610 A    
Zn11  O28   1.941307 S    
N15   H58   1.045732 S    
C96   N24   1.437472 S    
Zn15  O36   1.941150 S    
C43   C60   1.411729 A    
N12   H52   1.045726 S    
N13   H54   1.045727 S    
O35   C14   1.279190 A    
C41   N1    1.433449 S    
C41   C58   1.409720 A    
Zn12  O40   1.944932 S    
N24   O68   1.300500 A    
C89   C93   1.388088 A    
O42   C22   1.279698 A    
O39   C19   1.270129 A    
C32   C40   1.536692 S    
Zn4   O1    1.955474 S    
Zn9   O1    1.949934 S    
N11   H50   1.045728 S    
N6    H40   1.045664 S    
C30   C32   1.547210 S    
N17   O54   1.300748 A    
C45   C49   1.391637 A    
C75   C83   1.399186 A    
O52   C20   1.268479 A    
C71   C75   1.393438 A    
C76   H24   1.083919 S    
Zn9   O37   1.944931 S    
C69   C86   1.410990 A    
Zn1   O1    1.955435 S    
C29   H9    1.110117 S    
C50   H14   1.084072 S    
C65   C77   1.393595 A    
C48   N8    1.432900 S    
C68   C80   1.394302 A    
C36   H4    1.110116 S    
Zn11  O39   1.944931 S    
N18   O55   1.301099 A    
O8    C4    1.283509 A    
C89   N17   1.434769 S    
C15   C64   1.457054 S    
C28   C38   1.534589 S    
N23   O66   1.300503 A    
C65   C82   1.410571 A    
N5    H38   1.045677 S    
C45   N5    1.433392 S    
C43   C55   1.394898 A    
C44   N4    1.433408 S    
Zn2   O43   1.945618 S    
O48   C23   1.279690 A    
Zn7   O19   1.938151 S    
C35   C39   1.534593 S    
N22   O63   1.300577 A    
C94   N22   1.437240 S    
N10   H48   1.045727 S    
O50   C18   1.268581 A    
Zn13  O32   1.941150 S    
O37   C17   1.270005 A    
C2    C81   1.458021 S    
O15   C11   1.283624 A    
C11   C60   1.457298 S    
Zn5   O3    1.955435 S    
C93   N21   1.438207 S    
C52   H16   1.084155 S    
C30   H10   1.110117 S    
Zn6   O4    1.955434 S    
C92   C96   1.387383 A    
C53   H17   1.084072 S    
O31   C10   1.279468 A    
C43   N3    1.438456 S    
Zn10  O22   1.941045 S    
C33   C37   1.534581 S    
C32   H12   1.110138 S    
C29   C40   1.534596 S    
N23   O65   1.301301 A    
C77   C85   1.399235 A    
N12   H51   1.045636 S    
N9    H46   1.045730 S    
O49   C17   1.268448 A    
C27   H7    1.110113 S    
O25   C8    1.279650 A    
Zn13  O29   1.940914 S    
C5    C86   1.457460 S    
C69   N13   1.438472 S    
N8    H43   1.045635 S    
O17   C13   1.283733 A    
O20   C16   1.283373 A    
C55   C63   1.399930 A    
C9    C58   1.457120 S    
C92   N20   1.434913 S    
O10   C6    1.283508 A    
O23   C2    1.279636 A    
N14   H56   1.045725 S    
C34   H2    1.110121 S    
O29   C12   1.279176 A    
O9    C5    1.283510 A    
C49   C57   1.399716 A    
Zn15  O33   1.940914 S    
C66   N10   1.437652 S    
O36   C13   1.279219 A    
Zn10  O38   1.944932 S    
C70   C85   1.410994 A    
C47   C51   1.391125 A    
C21   C38   1.476105 S    
C74   C82   1.399773 A    
C14   C61   1.457177 S    
C51   H15   1.084106 S    
N24   O67   1.301307 A    
C70   C74   1.394423 A    
C31   C39   1.536688 S    
Zn4   O16   1.938148 S    
O14   C10   1.283601 A    
Zn3   O42   1.945598 S    
C93   C97   1.406011 A    
O13   C9    1.283975 A    
N6    H39   1.045689 S    
C96   C100  1.405255 A    
Zn1   O8    1.938734 S    
C56   H20   1.084085 S    
Zn7   O4    1.955476 S    
C25   C38   1.536695 S    
O21   C4    1.279307 A    
O5    C1    1.283463 A    
Zn2   O7    1.938733 S    
C72   N16   1.437529 S    
C71   N15   1.437532 S    
C23   C40   1.476087 S    
C66   C78   1.393619 A    
Zn3   O6    1.938972 S    
C35   H3    1.110116 S    
C51   C59   1.399395 A    
O18   C14   1.283855 A    
C4    C83   1.457209 S    
C41   C53   1.391080 A    
O51   C19   1.268417 A    
C28   C33   1.548017 S    
C73   C81   1.399762 A    
C46   C61   1.409685 A    
C30   C36   1.548021 S    
N2    H32   1.045687 S    
O45   C23   1.281599 A    
C26   C34   1.547214 S    
C25   H5    1.110138 S    
C36   C40   1.534577 S    
O12   C8    1.283505 A    
