data_mof_unit_33978.cif
_audit_creation_date              2013-03-05T16:15:20-0500
_audit_creation_method            fapswitch 2.2
_symmetry_space_group_name_H-M    P1
_symmetry_Int_Tables_number       1
_space_group_crystal_system       triclinic
_cell_length_a                    27.726646
_cell_length_b                    10.586686
_cell_length_c                    9.515922
_cell_angle_alpha                 90.593693
_cell_angle_beta                  91.278754
_cell_angle_gamma                 90.129627
_cell_volume                      2792.38569072

loop_
_atom_site_label
_atom_site_type_symbol
_atom_site_description
_atom_site_fract_x
_atom_site_fract_y
_atom_site_fract_z
_atom_type_partial_charge
O1    O     O_R   0.500020 0.316850 0.620870 -0.527916
O2    O     O_R   0.499980 0.683150 0.379130 -0.527773
O3    O     O_R   0.500000 0.316860 0.379090 -0.577523
O4    O     O_R   0.500000 0.683140 0.620910 -0.576518
C1    C     C_R   0.499871 0.259769 0.499287 0.791645
C2    C     C_R   0.500134 0.740235 0.500711 0.793130
O5    O     O_R   0.430270 0.500020 0.620880 -0.567021
O6    O     O_R   0.569730 0.499980 0.379120 -0.562956
O7    O     O_R   0.430250 0.500030 0.379090 -0.573984
O8    O     O_R   0.569750 0.499970 0.620910 -0.575044
C3    C     C_R   0.407669 0.499029 0.498739 0.798324
C4    C     C_R   0.592237 0.499591 0.501389 0.797299
Cu1   Cu    Cu3+1 0.500010 0.499990 0.643150 0.994302
Cu2   Cu    Cu3+1 0.499990 0.500010 0.356850 0.996119
C5    C     C_R   0.177446 0.375683 0.470970 0.590322
C6    C     C_R   0.822661 0.581591 0.578911 0.593817
O9    O     O_2   0.201922 0.270444 0.435548 -0.533662
O10   O     O_2   0.798501 0.679366 0.635945 -0.524971
N1    N     N_R   0.201820 0.485866 0.496940 -0.465418
N2    N     N_R   0.797728 0.484658 0.515523 -0.464811
C7    C     C_R   0.178231 0.595901 0.526835 0.588522
C8    C     C_R   0.820695 0.382665 0.458782 0.565236
C9    C     C_R   0.277593 0.537370 0.382277 -0.155278
C10   C     C_R   0.719953 0.423557 0.610539 -0.159895
C11   C     C_R   0.327855 0.542159 0.382812 -0.228474
C12   C     C_R   0.669752 0.427979 0.608434 -0.224422
C13   C     C_R   0.330590 0.442016 0.610552 -0.270567
C14   C     C_R   0.671019 0.563112 0.404260 -0.282625
C15   C     C_R   0.280141 0.437552 0.611267 0.280553
C16   C     C_R   0.721562 0.560098 0.406482 0.292686
C17   C     C_R   0.253565 0.485561 0.496181 0.328864
C18   C     C_R   0.746034 0.489093 0.510098 0.334872
C19   C     C_R   0.101772 0.483005 0.511905 -0.108369
C20   C     C_R   0.897987 0.477842 0.524038 -0.104847
C21   C     C_R   0.127164 0.371488 0.480783 -0.046940
C22   C     C_R   0.873164 0.579604 0.585479 -0.039149
C23   C     C_R   0.102256 0.257065 0.465041 -0.179557
C24   C     C_R   0.899004 0.675524 0.655857 -0.190057
C25   C     C_R   0.127290 0.598141 0.532618 -0.099632
C26   C     C_R   0.871671 0.377789 0.458221 -0.101678
C27   C     C_R   0.354698 0.494227 0.496774 -0.067804
C28   C     C_R   0.645038 0.497060 0.504817 -0.061117
H1    H     H_    0.350904 0.403506 0.698333 0.190364
H2    H     H_    0.652100 0.618166 0.325170 0.185189
H3    H     H_    0.121923 0.169715 0.450437 0.218242
H4    H     H_    0.880040 0.749378 0.711568 0.191539
C29   C     C_R   0.974199 0.371342 0.473936 -0.014809
C30   C     C_R   0.025516 0.589167 0.561449 -0.010750
C31   C     C_R   0.975109 0.582004 0.584545 0.047850
C32   C     C_R   0.025294 0.365621 0.489668 0.041785
C33   C     C_R   0.949172 0.476873 0.527938 0.020248
C34   C     C_R   0.050795 0.479160 0.521302 0.020793
C35   C     C_R   0.947615 0.278201 0.399197 -0.210734
C36   C     C_R   0.050895 0.704342 0.569578 -0.213427
C37   C     C_R   0.897416 0.279176 0.392244 0.401848
C38   C     C_R   0.100774 0.710081 0.556997 0.403724
O11   O     O_2   0.793900 0.287344 0.403417 -0.466162
O12   O     O_2   0.204384 0.701337 0.552872 -0.460443
C39   C     C_R   0.052085 0.251763 0.474178 0.214650
C40   C     C_R   0.949398 0.675686 0.660816 0.221337
H5    H     H_    0.650188 0.375625 0.686104 0.179032
H6    H     H_    0.345664 0.585998 0.295979 0.187036
H7    H     H_    0.738737 0.369412 0.690578 0.156955
H8    H     H_    0.257196 0.575586 0.294222 0.155172
H9    H     H_    0.965489 0.206084 0.338754 0.209406
H10   H     H_    0.032054 0.792935 0.579385 0.200834
C41   C     C_3   0.540463 0.043749 0.563879 -0.188027
C42   C     C_3   0.459548 0.956274 0.436107 -0.188219
C43   C     C_3   0.538740 0.957435 0.431766 -0.135902
C44   C     C_3   0.461270 0.042585 0.568223 -0.136309
H11   H     H_    0.570483 0.919540 0.376287 0.179839
H12   H     H_    0.429528 0.080489 0.623707 0.178912
H13   H     H_    0.573513 0.082962 0.616119 0.143949
H14   H     H_    0.426496 0.917087 0.383857 0.145066
C45   C     C_3   0.500202 0.877344 0.501884 0.011327
C46   C     C_3   0.499808 0.122673 0.498105 0.012071
C47   C     C_3   0.501944 0.961362 0.634098 -0.119971
C48   C     C_3   0.498067 0.038660 0.365887 -0.120170
H15   H     H_    0.503895 0.927654 0.744033 0.179822
H16   H     H_    0.496127 0.072367 0.255940 0.180226
C49   C     C_3   0.524920 0.594349 0.053079 0.369474
C50   C     C_3   0.475122 0.405684 0.946932 0.368894
C51   C     C_3   0.481708 0.602583 0.950357 0.219183
C52   C     C_3   0.518342 0.397438 0.049630 0.220021
N3    N     N_3   0.500040 0.499970 0.858290 -0.258006
N4    N     N_3   0.499960 0.500030 0.141710 -0.257706
C53   C     C_3   0.543112 0.490842 0.954353 0.183051
C54   C     C_3   0.456957 0.509206 0.045606 0.186600
N5    N     N_2   0.460934 0.715647 0.889878 -0.395825
H17   H     H_    0.431940 0.697474 0.823054 0.269115
C55   C     C_3   0.453443 0.820069 0.986233 -0.667848
H18   H     H_    0.430459 0.892589 0.934521 0.222712
H19   H     H_    0.488418 0.865277 0.015028 0.270136
H20   H     H_    0.435564 0.787849 0.082894 0.242552
N6    N     N_2   0.538933 0.284206 0.110184 -0.396856
H21   H     H_    0.567551 0.302242 0.178435 0.270321
C56   C     C_3   0.547037 0.180412 0.013457 -0.668723
H22   H     H_    0.569454 0.107232 0.066088 0.224949
H23   H     H_    0.565813 0.213159 0.918507 0.241703
H24   H     H_    0.512222 0.135835 0.981705 0.270585
Cl1   Cl    Cl    0.561886 0.717558 0.126514 -0.671804
Cl2   Cl    Cl    0.437942 0.282819 0.873687 -0.678850
N7    N     N_2   0.591493 0.489410 0.899832 -0.385180
H25   H     H_    0.599603 0.573568 0.852083 0.294101
C57   C     C_3   0.629638 0.451048 0.996202 -0.688275
H26   H     H_    0.665132 0.470338 0.948975 0.223466
H27   H     H_    0.627703 0.348251 0.015052 0.237636
H28   H     H_    0.627645 0.503718 0.097348 0.258737
N8    N     N_2   0.408496 0.510722 0.099338 -0.386918
H29   H     H_    0.399984 0.425990 0.145263 0.291114
C58   C     C_3   0.370887 0.552346 0.002846 -0.701909
H30   H     H_    0.335063 0.522919 0.041201 0.221358
H31   H     H_    0.375742 0.510705 0.896928 0.252366
H32   H     H_    0.370973 0.656697 0.996405 0.239216
N9    N     N_2   0.255937 0.392343 0.730945 -0.439213
H33   H     H_    0.263896 0.445195 0.820170 0.253508
C59   C     C_3   0.261195 0.258410 0.755641 -0.591046
H34   H     H_    0.237473 0.230278 0.842470 0.236398
H35   H     H_    0.299097 0.235663 0.786017 0.223127
H36   H     H_    0.250483 0.203075 0.660249 0.280069
N10   N     N_2   0.747680 0.632064 0.308156 -0.416096
H37   H     H_    0.731328 0.716654 0.283363 0.273620
C60   C     C_3   0.761106 0.562479 0.183538 -0.623791
H38   H     H_    0.782502 0.624477 0.114967 0.241069
H39   H     H_    0.728353 0.530222 0.124132 0.217065
H40   H     H_    0.783555 0.479591 0.211539 0.256795
Cl3   Cl    Cl    0.870037 0.155024 0.293789 -0.535393
Cl4   Cl    Cl    0.126631 0.862601 0.568785 -0.579495
N11   N     N_2   0.029818 0.130510 0.480408 -0.445915
H41   H     H_    0.048276 0.059117 0.430382 0.280438
C61   C     C_3   0.014694 0.094745 0.619005 -0.601371
H42   H     H_    0.994004 0.005024 0.611288 0.228324
H43   H     H_    0.990914 0.167978 0.664858 0.232672
H44   H     H_    0.046717 0.080857 0.689496 0.250275
N12   N     N_2   0.973304 0.763468 0.753382 -0.457092
H45   H     H_    0.954085 0.844880 0.772999 0.257013
C62   C     C_3   0.993004 0.708624 0.880879 -0.624887
H46   H     H_    0.012843 0.782273 0.942908 0.236962
H47   H     H_    0.018655 0.631535 0.856133 0.239605
H48   H     H_    0.963462 0.670709 0.945439 0.227993

loop_
_geom_bond_atom_site_label_1
_geom_bond_atom_site_label_2
_geom_bond_distance
_ccdc_geom_bond_type
C52   N4    1.486565 S    
C13   C15   1.399660 A    
C35   C37   1.392010 A    
N6    H21   1.030348 S    
C41   C47   1.545168 S    
C52   C53   1.521456 S    
C61   H44   1.111734 S    
N1    C17   1.434897 S    
C8    O11   1.347589 S    
C56   H22   1.110723 S    
C60   H38   1.110373 S    
C49   Cl1   1.784194 S    
C19   C34   1.418742 A    
C5    N1    1.364358 A    
C57   H27   1.106176 S    
C20   C33   1.418922 A    
C19   C25   1.417775 A    
C31   C40   1.424759 A    
O1    C1    1.299636 A    
C32   C39   1.425371 A    
N1    C7    1.367700 A    
C12   H5    1.082933 S    
C46   C48   1.533073 S    
N8    C58   1.446509 S    
C48   H16   1.109137 S    
C60   H39   1.110216 S    
C42   H14   1.110314 S    
N9    H33   1.031460 S    
N12   C62   1.447041 S    
C14   C28   1.402116 A    
O4    Cu1   1.952646 S    
C43   H11   1.110068 S    
C4    C28   1.463942 S    
C56   H23   1.110977 S    
C39   N11   1.425516 S    
C58   H30   1.110869 S    
C14   C16   1.401497 A    
C31   C33   1.418700 A    
C32   C34   1.419338 A    
C43   C45   1.531447 S    
C41   H13   1.110345 S    
N5    C55   1.447222 S    
C35   H9    1.079187 S    
C49   N4    1.492548 S    
C6    N2    1.363887 A    
C29   C35   1.407199 A    
C47   H15   1.109044 S    
C51   C54   1.520853 S    
C15   N9    1.421394 S    
C62   H46   1.110374 S    
Cu1   Cu2   2.724397 S    
C44   C47   1.545380 S    
C43   C48   1.545382 S    
O2    C2    1.299648 A    
C5    C21   1.399996 A    
C49   C51   1.532508 S    
O5    C3    1.308025 A    
C29   C32   1.422742 A    
N3    C53   1.491587 S    
C42   C48   1.545177 S    
C51   N5    1.448560 S    
C62   H48   1.111548 S    
C36   C38   1.392030 A    
C24   H4    1.083764 S    
N4    C54   1.490346 S    
N12   H45   1.031901 S    
Cu2   N4    2.047240 S    
N7    C57   1.445975 S    
C59   H36   1.109751 S    
C11   C27   1.401639 A    
C55   H18   1.110748 S    
C60   H40   1.108318 S    
C29   C33   1.414685 A    
N9    C59   1.446806 S    
C14   H2    1.083574 S    
C42   C45   1.531087 S    
C52   N6    1.448360 S    
C9    C17   1.400870 A    
C30   C36   1.407002 A    
O7    Cu2   1.949893 S    
C10   C18   1.400051 A    
C55   H19   1.108087 S    
C62   H47   1.110598 S    
C13   C27   1.402712 A    
C25   C38   1.415831 A    
C7    C25   1.414967 A    
C16   N10   1.422275 S    
C30   C34   1.414197 A    
O6    C4    1.308015 A    
C26   C37   1.415433 A    
C8    C26   1.414569 A    
C61   H43   1.111006 S    
C50   Cl2   1.784244 S    
C58   H31   1.106994 S    
C6    O10   1.349979 S    
C23   C39   1.396780 A    
C57   H28   1.109848 S    
C45   C47   1.533075 S    
C40   N12   1.425855 S    
N10   H37   1.031818 S    
C49   C53   1.529744 S    
O3    Cu2   1.952645 S    
O8    C4    1.309160 A    
C53   N7    1.449080 S    
C54   N8    1.448331 S    
O4    C2    1.299292 A    
C30   C31   1.421603 A    
C51   N3    1.486161 S    
C37   Cl3   1.766299 S    
C10   H7    1.082885 S    
C50   C52   1.532524 S    
O7    C3    1.311673 A    
C44   C46   1.531418 S    
C24   C40   1.397005 A    
O1    Cu1   1.948221 S    
C23   H3    1.083881 S    
C61   H42   1.109475 S    
C56   H24   1.108047 S    
C12   C28   1.401305 A    
N11   H41   1.031971 S    
N2    C18   1.433968 S    
C5    O9    1.349564 S    
C9    H8    1.082858 S    
O6    Cu2   1.940528 S    
C21   C23   1.398063 A    
C10   C12   1.392500 A    
N2    C8    1.367239 A    
O3    C1    1.299258 A    
O8    Cu1   1.949893 S    
N6    C56   1.447245 S    
C36   H10   1.078815 S    
C50   N3    1.491819 S    
C57   H26   1.110373 S    
C1    C46   1.451322 S    
C59   H35   1.111279 S    
C7    O12   1.347499 S    
C15   C17   1.406359 A    
N8    H29   1.031085 S    
C6    C22   1.400489 A    
C55   H20   1.110976 S    
C16   C18   1.409070 A    
C50   C54   1.529302 S    
C22   C24   1.397931 A    
C19   C21   1.408196 A    
C3    C27   1.469151 S    
C58   H32   1.107061 S    
C20   C22   1.408700 A    
C11   H6    1.080334 S    
C38   Cl4   1.766699 S    
O2    Cu2   1.948219 S    
N10   C60   1.445802 S    
C13   H1    1.080879 S    
O5    Cu1   1.940528 S    
C9    C11   1.394279 A    
C42   C44   1.546321 S    
Cu1   N3    2.047240 S    
N7    H25   1.030956 S    
C20   C26   1.417387 A    
C44   H12   1.110099 S    
C41   C46   1.531052 S    
C41   C43   1.546317 S    
N5    H17   1.030341 S    
C59   H34   1.110169 S    
N11   C61   1.446706 S    
C2    C45   1.451447 S    
