data_mof_unit_46434.cif
_audit_creation_date              2012-10-26T20:48:44-0400
_audit_creation_method            fapswitch 2.2
_symmetry_space_group_name_H-M    P1
_symmetry_Int_Tables_number       1
_space_group_crystal_system       triclinic
_cell_length_a                    15.096123
_cell_length_b                    13.868244
_cell_length_c                    9.07799
_cell_angle_alpha                 89.875229
_cell_angle_beta                  89.880129
_cell_angle_gamma                 90.000333
_cell_volume                      1900.52951947

loop_
_atom_site_label
_atom_site_type_symbol
_atom_type_description
_atom_site_fract_x
_atom_site_fract_y
_atom_site_fract_z
_atom_type_partial_charge
C1    C     C_R   0.329700 0.500019 0.501452 0.554126
C2    C     C_R   0.569215 0.892076 0.564934 -0.140023
C3    C     C_R   0.500035 0.500062 0.220537 0.553912
C4    C     C_R   0.500073 0.499935 0.779464 0.555160
C5    C     C_R   0.499666 0.054705 0.500328 0.024756
C6    C     C_R   0.499721 0.945346 0.500298 0.024903
C7    C     C_1   0.500094 0.500084 0.065517 -0.066706
C8    C     C_1   0.500110 0.499908 0.934485 -0.065926
C9    C     C_R   0.093495 0.585633 0.478727 0.250243
C10   C     C_R   0.906132 0.441540 0.412306 0.250472
C11   C     C_R   0.902305 0.557907 0.614345 0.261553
C12   C     C_R   0.669901 0.500019 0.499907 0.550369
C13   C     C_R   0.094309 0.415779 0.551338 0.244471
C14   C     C_R   0.186107 0.585386 0.478636 -0.144390
C15   C     C_R   0.813869 0.439490 0.410890 -0.138018
C16   C     C_R   0.809750 0.560503 0.603115 -0.145840
C17   C     C_R   0.186824 0.415478 0.541245 -0.161003
C18   C     C_R   0.232873 0.500216 0.506842 -0.081782
C19   C     C_R   0.765956 0.500181 0.504086 -0.074993
C20   C     C_R   0.047739 0.500899 0.517573 0.097651
C21   C     C_R   0.950553 0.500072 0.515245 0.090532
C22   C     C_3   0.062738 0.701151 0.301946 -0.003223
C23   C     C_R   0.542964 0.209237 0.608441 0.049305
C24   C     C_3   0.101252 0.803149 0.304393 -0.253022
C25   C     C_3   0.115243 0.842066 0.148672 -0.484595
C26   C     C_3   0.965769 0.434022 0.183315 0.008159
C27   C     C_3   0.031050 0.379400 0.085559 -0.244831
C28   C     C_3   0.123118 0.373594 0.154362 -0.393373
C29   C     C_3   0.918671 0.594776 0.861750 0.002042
C30   C     C_3   0.873369 0.683613 0.928025 -0.262908
C31   C     C_3   0.823867 0.658607 0.069982 -0.485478
C32   C     C_3   0.069987 0.292111 0.718473 0.002146
C33   C     C_3   0.103851 0.188990 0.699331 -0.254388
C34   C     C_R   0.432117 0.790700 0.435616 0.048146
C35   C     C_3   0.125564 0.142766 0.847683 -0.486687
C36   C     C_R   0.456717 0.209551 0.391878 0.043696
C37   C     C_R   0.567722 0.790627 0.564585 0.049796
C38   C     C_R   0.543085 0.107784 0.611257 -0.140606
C39   C     C_R   0.430343 0.892144 0.435550 -0.141722
C40   C     C_R   0.456281 0.108100 0.389365 -0.143282
Cu1   Cu    Cu3+1 0.500000 0.596430 0.500000 0.938734
Cu2   Cu    Cu3+1 0.500000 0.403570 0.500000 0.933366
H1    H     H_    0.577191 0.248389 0.694064 0.125548
H2    H     H_    0.374052 0.928089 0.386487 0.085220
H3    H     H_    0.423013 0.072290 0.299395 0.088025
H4    H     H_    0.625399 0.927993 0.614116 0.091152
H5    H     H_    0.998131 0.703470 0.244061 0.142628
H6    H     H_    0.106689 0.652932 0.235638 0.100642
H7    H     H_    0.055237 0.851779 0.364568 0.182752
H8    H     H_    0.165739 0.802842 0.363079 0.152001
H9    H     H_    0.162370 0.795486 0.087256 0.152091
H10   H     H_    0.143044 0.916102 0.154181 0.144699
H11   H     H_    0.051246 0.844886 0.088624 0.149003
H12   H     H_    0.378527 0.751605 0.384175 0.115623
H13   H     H_    0.992527 0.507936 0.202078 0.104930
H14   H     H_    0.901727 0.439981 0.123386 0.102595
H15   H     H_    0.005841 0.305339 0.065178 0.163500
H16   H     H_    0.036266 0.417450 0.978205 0.092870
H17   H     H_    0.148245 0.446914 0.180281 0.135958
H18   H     H_    0.169571 0.338856 0.075765 0.112171
H19   H     H_    0.121097 0.329645 0.256647 0.207731
H20   H     H_    0.978449 0.578840 0.928511 0.130768
H21   H     H_    0.875035 0.529976 0.871966 0.105992
H22   H     H_    0.924158 0.739490 0.951631 0.159726
H23   H     H_    0.422449 0.248947 0.306297 0.122322
H24   H     H_    0.825527 0.714717 0.848299 0.170021
H25   H     H_    0.769154 0.607323 0.046633 0.150319
H26   H     H_    0.795177 0.725156 0.118289 0.159046
H27   H     H_    0.869313 0.625599 0.151577 0.133228
H28   H     H_    0.008362 0.289954 0.785428 0.141746
H29   H     H_    0.119511 0.334877 0.782134 0.112642
H30   H     H_    0.052487 0.145092 0.643060 0.182112
H31   H     H_    0.164405 0.189377 0.629566 0.159272
H32   H     H_    0.178609 0.184036 0.904075 0.145492
H33   H     H_    0.149040 0.067766 0.830245 0.151016
H34   H     H_    0.621373 0.751460 0.615995 0.120739
H35   H     H_    0.065702 0.140769 0.919011 0.147410
H36   H     H_    0.221250 0.651411 0.453371 0.133382
H37   H     H_    0.779833 0.392763 0.334000 0.138878
H38   H     H_    0.771618 0.607232 0.674413 0.120702
H39   H     H_    0.222485 0.348993 0.560995 0.139735
H40   H     H_    0.576179 0.071717 0.701402 0.089915
N1    N     N_R   0.500000 0.258690 0.500000 -0.221618
N2    N     N_R   0.500000 0.741310 0.500000 -0.219275
O1    O     O_R   0.371460 0.581430 0.500010 -0.509743
O2    O     O_3   0.953075 0.383293 0.316656 -0.522085
O3    O     O_3   0.946961 0.614889 0.715717 -0.533794
O4    O     O_3   0.047987 0.331246 0.579062 -0.539512
O5    O     O_R   0.628540 0.418570 0.499990 -0.494822
O6    O     O_R   0.628540 0.581430 0.499990 -0.507616
O7    O     O_R   0.371460 0.418570 0.500010 -0.503563
O8    O     O_R   0.500000 0.581420 0.288390 -0.491744
O9    O     O_R   0.500000 0.418580 0.711610 -0.505130
O10   O     O_R   0.500000 0.581420 0.711610 -0.492409
O11   O     O_R   0.500000 0.418580 0.288390 -0.504679
O12   O     O_3   0.046773 0.669412 0.448184 -0.538353

loop_
_geom_bond_atom_site_label_1
_geom_bond_atom_site_label_2
_ccdc_geom_bond_type
C22   H6    S    
C29   H21   S    
C35   H32   S    
C30   H22   S    
Cu2   O9    S    
Cu1   Cu2   S    
C14   C18   A    
C4    C8    S    
C26   H13   S    
C7    C8    T    
C2    H4    S    
C15   C19   A    
C35   H33   S    
C26   C27   S    
C23   N1    A    
C12   O6    A    
C25   H11   S    
C3    C7    S    
C10   C15   A    
C30   C31   S    
C36   N1    A    
C32   O4    S    
C23   H1    S    
C12   C19   S    
Cu2   O7    S    
C33   H30   S    
C15   H37   S    
C11   O3    S    
C37   N2    A    
C28   H19   S    
C22   H5    S    
C1    O7    A    
C5    C38   A    
C38   H40   S    
C1    O1    A    
C2    C6    A    
C34   N2    A    
C32   H29   S    
C28   H18   S    
C10   C21   A    
C24   H8    S    
C31   H26   S    
Cu2   O11   S    
C12   O5    A    
C36   C40   A    
C24   C25   S    
C27   H15   S    
C36   H23   S    
C32   H28   S    
Cu1   N2    S    
C11   C21   A    
C34   C39   A    
C3    O8    A    
C16   H38   S    
C31   H25   S    
C9    C14   A    
C25   H9    S    
C29   C30   S    
C11   C16   A    
C9    C20   A    
Cu1   O10   S    
C26   O2    S    
C17   C18   A    
C1    C18   S    
C20   C21   S    
C9    O12   S    
C30   H24   S    
C4    O10   A    
C33   H31   S    
C37   H34   S    
C34   H12   S    
C22   C24   S    
C28   H17   S    
C24   H7    S    
C29   H20   S    
C10   O2    S    
C13   C20   A    
C22   O12   S    
Cu2   N1    S    
C27   H16   S    
C26   H14   S    
C39   H2    S    
C23   C38   A    
Cu1   O1    S    
C13   C17   A    
Cu2   O5    S    
C32   C33   S    
C25   H10   S    
C2    C37   A    
C5    C6    S    
C16   C19   A    
C13   O4    S    
C33   C35   S    
C35   H35   S    
Cu1   O6    S    
C17   H39   S    
C14   H36   S    
C29   O3    S    
C4    O9    A    
C31   H27   S    
Cu1   O8    S    
C40   H3    S    
C5    C40   A    
C27   C28   S    
C6    C39   A    
C3    O11   A    
