data_mof_unit_42788.cif
_audit_creation_date              2012-12-11T15:56:45-0500
_audit_creation_method            fapswitch 2.2
_symmetry_space_group_name_H-M    P1
_symmetry_Int_Tables_number       1
_space_group_crystal_system       triclinic
_cell_length_a                    14.695401
_cell_length_b                    7.202258
_cell_length_c                    13.648681
_cell_angle_alpha                 90.000042
_cell_angle_beta                  100.345437
_cell_angle_gamma                 90.000038
_cell_volume                      1421.09275509

loop_
_atom_site_label
_atom_site_type_symbol
_atom_type_description
_atom_site_fract_x
_atom_site_fract_y
_atom_site_fract_z
_atom_type_partial_charge
O1    O     O_R   0.336930 0.638190 0.166330 -0.537934
O2    O     O_R   0.663070 0.361810 0.833670 -0.534817
O3    O     O_R   0.163070 0.138190 0.333670 -0.537933
O4    O     O_R   0.836930 0.861810 0.666330 -0.534817
O5    O     O_R   0.147900 0.305430 0.139630 -0.532713
O6    O     O_R   0.852100 0.694570 0.860370 -0.534457
O7    O     O_R   0.352100 0.805430 0.360370 -0.532717
O8    O     O_R   0.647900 0.194570 0.639630 -0.534457
C1    C     C_R   0.115325 0.477583 0.113074 0.723090
C2    C     C_R   0.884808 0.522449 0.886773 0.706373
C3    C     C_R   0.384675 0.977583 0.386925 0.723092
C4    C     C_R   0.615192 0.022449 0.613227 0.706374
O9    O     O_R   0.335280 0.308290 0.154310 -0.545098
O10   O     O_R   0.664720 0.691710 0.845690 -0.543726
O11   O     O_R   0.164720 0.808290 0.345690 -0.545098
O12   O     O_R   0.835280 0.191710 0.654310 -0.543726
O13   O     O_R   0.351790 0.140890 0.348460 -0.530410
O14   O     O_R   0.648210 0.859110 0.651540 -0.529153
O15   O     O_R   0.148210 0.640890 0.151540 -0.530411
O16   O     O_R   0.851790 0.359110 0.848460 -0.529153
C5    C     C_R   0.366515 0.477722 0.136250 0.687183
C6    C     C_R   0.638056 0.520715 0.869544 0.680559
C7    C     C_R   0.133486 0.977722 0.363750 0.687182
C8    C     C_R   0.861944 0.020715 0.630456 0.680559
O17   O     O_3   0.255200 0.472570 0.313680 -0.377741
O18   O     O_3   0.744800 0.527430 0.686320 -0.374620
O19   O     O_3   0.244800 0.972570 0.186320 -0.377740
O20   O     O_3   0.755200 0.027430 0.813680 -0.374620
V1    V     V_3+5 0.249040 0.196590 0.238190 1.395297
V2    V     V_3+5 0.750960 0.803410 0.761810 1.387807
V3    V     V_3+5 0.250960 0.696590 0.261810 1.395292
V4    V     V_3+5 0.749040 0.303410 0.738190 1.387806
C9    C     C_R   0.039372 0.831681 0.478343 -0.229929
C10   C     C_R   0.942045 0.155025 0.498861 -0.242601
C11   C     C_R   0.460629 0.331679 0.021658 -0.229931
C12   C     C_R   0.557955 0.655025 0.001138 -0.242603
H1    H     H_    0.074999 0.702973 0.469062 0.126582
H2    H     H_    0.899480 0.274143 0.501503 0.141542
H3    H     H_    0.425003 0.202971 0.030941 0.126582
H4    H     H_    0.600519 0.774143 0.998496 0.141542
C13   C     C_R   0.969194 0.831454 0.536292 0.144384
C14   C     C_R   0.003300 0.150507 0.430396 0.155938
C15   C     C_R   0.530808 0.331453 0.963710 0.144384
C16   C     C_R   0.496700 0.650508 0.069603 0.155934
C17   C     C_R   0.927031 0.002124 0.556781 -0.090717
C18   C     C_R   0.059401 0.989939 0.426264 -0.079610
C19   C     C_R   0.572970 0.502124 0.943220 -0.090717
C20   C     C_R   0.440600 0.489939 0.073736 -0.079605
C21   C     C_1   0.533875 0.008264 0.533254 -0.179598
C22   C     C_1   0.465897 0.991811 0.467026 -0.186708
C23   C     C_1   0.966125 0.508264 0.966746 -0.179596
C24   C     C_1   0.034103 0.491811 0.032974 -0.186711
C25   C     C_3   0.931863 0.644199 0.559396 -0.321805
C26   C     C_3   0.834860 0.615750 0.495950 -0.666525
H5    H     H_    0.788232 0.735160 0.500300 0.218447
H6    H     H_    0.839635 0.599206 0.416304 0.187123
H7    H     H_    0.800880 0.491683 0.520824 0.218508
H8    H     H_    0.978314 0.532780 0.542108 0.139523
H9    H     H_    0.932646 0.625165 0.640053 0.189852
C27   C     C_3   0.999111 0.312417 0.358173 -0.354963
C28   C     C_3   0.955877 0.254568 0.252288 -0.718183
H10   H     H_    0.998953 0.149978 0.222295 0.226371
H11   H     H_    0.885893 0.195359 0.251277 0.216128
H12   H     H_    0.948735 0.378151 0.202945 0.200759
H13   H     H_    0.955151 0.424922 0.378773 0.167397
H14   H     H_    0.067343 0.379320 0.361101 0.198447
C29   C     C_3   0.568138 0.144198 0.940605 -0.321806
C30   C     C_3   0.665142 0.115750 0.004051 -0.666522
H15   H     H_    0.711770 0.235159 0.999697 0.218448
H16   H     H_    0.660369 0.099215 0.083699 0.187124
H17   H     H_    0.699122 0.991680 0.979178 0.218507
H18   H     H_    0.521688 0.032779 0.957894 0.139523
H19   H     H_    0.567355 0.125162 0.859948 0.189852
C31   C     C_3   0.500889 0.812419 0.141827 -0.354952
C32   C     C_3   0.544121 0.754569 0.247713 -0.718202
H20   H     H_    0.501033 0.650013 0.277713 0.226379
H21   H     H_    0.614096 0.695317 0.248723 0.216133
H22   H     H_    0.551283 0.878158 0.297051 0.200760
H23   H     H_    0.544851 0.924923 0.121227 0.167397
H24   H     H_    0.432657 0.879325 0.138897 0.198443

loop_
_geom_bond_atom_site_label_1
_geom_bond_atom_site_label_2
_ccdc_geom_bond_type
O17   V3    S    
O1    C5    A    
O19   V1    S    
O13   V1    S    
O3    C7    A    
C10   C14   A    
O15   V3    S    
C4    C21   S    
C25   H9    S    
C25   C26   S    
O7    C3    A    
C8    C17   S    
O9    V1    S    
O4    C8    A    
C11   C20   A    
O1    V3    S    
C12   C19   A    
O2    V4    S    
C29   H18   S    
C14   C18   A    
O3    V1    S    
C1    O15   A    
C2    O16   A    
C30   H15   S    
O2    C6    A    
C29   H19   S    
C11   C15   A    
C5    C20   S    
O11   C7    A    
C6    C19   S    
C27   H14   S    
O12   C8    A    
C7    C18   S    
C31   H24   S    
C9    C18   A    
C1    C24   S    
O10   V2    S    
C2    C23   S    
O5    V1    S    
C26   H6    S    
O7    V3    S    
C31   C32   S    
C29   C30   S    
O8    V4    S    
C12   H4    S    
C14   C27   S    
O18   V4    S    
C9    H1    S    
C23   C24   T    
C27   C28   S    
C28   H12   S    
C11   H3    S    
C32   H20   S    
O5    C1    A    
O8    C4    A    
C28   H11   S    
O9    C5    A    
C10   C17   A    
C16   C31   S    
C32   H21   S    
C13   C25   S    
O14   V2    S    
C15   C29   S    
O6    V2    S    
C27   H13   S    
C31   H23   S    
C12   C16   A    
O16   V4    S    
C26   H5    S    
C3    O13   A    
C10   H2    S    
O6    C2    A    
C25   H8    S    
O11   V3    S    
O12   V4    S    
C9    C13   A    
O10   C6    A    
O20   V2    S    
C3    C22   S    
C30   H17   S    
C28   H10   S    
C32   H22   S    
C30   H16   S    
C21   C22   T    
C4    O14   A    
C13   C17   A    
C15   C19   A    
O4    V2    S    
C16   C20   A    
C26   H7    S    
