data_mof_unit_63486.cif
_audit_creation_date              2013-03-05T16:08:08-0500
_audit_creation_method            fapswitch 2.2
_symmetry_space_group_name_H-M    P1
_symmetry_Int_Tables_number       1
_space_group_crystal_system       triclinic
_cell_length_a                    13.141533
_cell_length_b                    14.427801
_cell_length_c                    17.27538
_cell_angle_alpha                 89.932836
_cell_angle_beta                  85.516173
_cell_angle_gamma                 90.02068
_cell_volume                      3265.44382751

loop_
_atom_site_label
_atom_site_type_symbol
_atom_site_description
_atom_site_fract_x
_atom_site_fract_y
_atom_site_fract_z
_atom_type_partial_charge
O1    O     O_R   0.421720 0.623950 0.500010 -0.562042
O2    O     O_R   0.578280 0.376050 0.499990 -0.524319
O3    O     O_R   0.578280 0.623950 0.499990 -0.562324
O4    O     O_R   0.421720 0.376050 0.500010 -0.568026
C1    C     C_R   0.500008 0.671291 0.500016 0.826897
C2    C     C_R   0.500001 0.328718 0.499770 0.919628
O5    O     O_R   0.412660 0.500000 0.613600 -0.575261
O6    O     O_R   0.587340 0.500000 0.386400 -0.569753
O7    O     O_R   0.569190 0.500000 0.613590 -0.543902
O8    O     O_R   0.430810 0.500000 0.386410 -0.567999
C3    C     C_R   0.486949 0.501046 0.651956 0.853338
C4    C     C_R   0.513155 0.500221 0.347853 0.869076
Cu1   Cu    Cu3+1 0.407320 0.500000 0.500010 0.992584
Cu2   Cu    Cu3+1 0.592680 0.500000 0.499990 1.030597
C5    C     C_R   0.477888 0.486824 0.735735 -0.147578
C6    C     C_R   0.523045 0.496128 0.262873 -0.162006
C7    C     C_R   0.450324 0.561746 0.785075 0.143583
C8    C     C_R   0.468489 0.559631 0.219677 0.143627
C9    C     C_R   0.442321 0.547686 0.865075 -0.122407
C10   C     C_R   0.481026 0.557195 0.138971 -0.125043
C11   C     C_R   0.461820 0.460639 0.896204 0.109947
C12   C     C_R   0.544987 0.491875 0.100695 0.116937
C13   C     C_R   0.486011 0.383975 0.847590 0.182402
C14   C     C_R   0.600702 0.428060 0.142585 0.175554
C15   C     C_R   0.493539 0.397271 0.766347 -0.023643
C16   C     C_R   0.590553 0.430992 0.224604 -0.043518
C17   C     C_2   0.465334 0.453297 0.980871 -0.149903
C18   C     C_2   0.547110 0.487826 0.015486 -0.149570
H1    H     H_    0.439111 0.605248 0.105093 0.136244
H2    H     H_    0.423856 0.605325 0.903885 0.137733
C19   C     C_1   0.500019 0.772869 0.500010 -0.202756
C20   C     C_1   0.500000 0.227154 0.499691 -0.138017
C21   C     C_1   0.500021 0.857693 0.499981 0.006977
C22   C     C_1   0.500028 0.142339 0.499715 0.009934
C23   C     C_1   0.500029 0.957609 0.499913 0.023532
C24   C     C_1   0.500035 0.042434 0.499827 0.023726
N1    N     N_1   0.731930 0.500000 0.499980 -0.118715
N2    N     N_1   0.268070 0.500000 0.500020 -0.128578
C25   C     C_1   0.826379 0.499981 0.499968 0.178181
C26   C     C_1   0.173622 0.499996 0.499998 0.156322
C27   C     C_1   0.949319 0.499976 0.499965 -0.046249
C28   C     C_1   0.050683 0.499984 0.499975 -0.046317
C29   C     C_3   0.431530 0.657025 0.753131 -0.836325
H3    H     H_    0.412075 0.708015 0.800095 0.237831
H4    H     H_    0.501089 0.681871 0.718632 0.224877
H5    H     H_    0.367108 0.654408 0.715264 0.236898
C30   C     C_3   0.398779 0.631803 0.258463 -0.806569
H6    H     H_    0.367756 0.679448 0.215568 0.228666
H7    H     H_    0.333148 0.597588 0.291282 0.248996
H8    H     H_    0.441371 0.674217 0.298741 0.218139
C31   C     C_2   0.648259 0.364958 0.270477 0.847766
O9    O     O_2   0.602486 0.311740 0.316041 -0.609340
O10   O     O_R   0.754915 0.364485 0.261858 -0.745091
H9    H     H_    0.785569 0.316851 0.296415 0.338085
C32   C     C_2   0.515788 0.317831 0.713365 0.797334
O11   O     O_2   0.594954 0.316188 0.671243 -0.579769
O12   O     O_R   0.446437 0.244421 0.712734 -0.753655
H10   H     H_    0.470438 0.193643 0.675133 0.331078
C33   C     C_2   0.640069 0.526409 0.971297 0.857334
O13   O     O_2   0.693376 0.582364 0.002693 -0.573451
O14   O     O_R   0.669102 0.497060 0.895656 -0.754655
H11   H     H_    0.733843 0.528291 0.872961 0.345064
C34   C     C_2   0.375258 0.409361 0.024736 0.857443
O15   O     O_2   0.293183 0.407304 0.995896 -0.570695
O16   O     O_R   0.384255 0.367579 0.096974 -0.756455
H12   H     H_    0.317583 0.339975 0.119853 0.344362
C35   C     C_3   0.509253 0.291262 0.883785 -0.757439
H13   H     H_    0.534863 0.237410 0.841048 0.245077
H14   H     H_    0.571571 0.299750 0.922988 0.227522
H15   H     H_    0.440100 0.264880 0.917786 0.239199
C36   C     C_3   0.664526 0.354763 0.098571 -0.755791
H16   H     H_    0.696237 0.301738 0.136237 0.245085
H17   H     H_    0.616672 0.316834 0.058948 0.225682
H18   H     H_    0.729123 0.388188 0.063906 0.243906

loop_
_geom_bond_atom_site_label_1
_geom_bond_atom_site_label_2
_geom_bond_distance
_ccdc_geom_bond_type
C36   H18   1.109672 S    
C2    C20   1.465350 S    
O7    Cu2   1.962629 S    
C19   C21   1.223831 T    
C5    C7    1.407271 A    
C29   H4    1.110585 S    
C27   C28   1.332099 T    
C22   C24   1.441413 S    
C23   C24   1.223829 T    
C33   O14   1.398526 S    
O6    C4    1.222863 A    
C29   H3    1.110825 S    
C35   H15   1.109744 S    
C17   C18   1.364351 D    
C8    C30   1.509584 S    
C32   O11   1.222335 D    
C34   O16   1.398596 S    
C11   C17   1.470679 S    
C33   O13   1.223383 D    
N1    C25   1.241195 T    
C32   O12   1.397644 S    
C12   C18   1.471340 S    
Cu1   Cu2   2.435888 S    
C34   O15   1.223317 D    
Cu2   N1    1.829946 S    
N2    C26   1.241219 T    
O7    C3    1.222952 A    
C21   C23   1.441570 S    
Cu1   N2    1.829944 S    
O2    C2    1.234794 A    
O3    Cu2   1.798378 S    
O8    C4    1.225559 A    
C35   H13   1.106658 S    
O1    C1    1.234715 A    
C35   H14   1.109595 S    
C7    C29   1.508310 S    
C6    C8    1.411669 A    
C9    C11   1.397257 A    
C10   C12   1.395366 A    
O5    C3    1.222119 A    
C30   H8    1.110659 S    
O12   H10   1.013597 S    
C10   H1    1.084590 S    
C13   C15   1.412115 A    
C11   C13   1.410853 A    
C6    C16   1.420438 A    
O14   H11   1.013781 S    
O2    Cu2   1.798243 S    
C29   H5    1.110285 S    
C12   C14   1.410406 A    
C5    C15   1.416668 A    
O4    C2    1.234702 A    
O1    Cu1   1.798243 S    
C14   C36   1.517494 S    
C31   O10   1.397898 S    
C7    C9    1.392422 A    
C31   O9    1.222773 D    
C30   H6    1.110900 S    
C4    C6    1.464918 S    
O5    Cu1   1.969038 S    
C36   H16   1.106260 S    
C25   C27   1.615608 S    
C8    C10   1.391555 A    
C30   H7    1.109783 S    
O16   H12   1.013777 S    
C18   C33   1.495892 S    
C13   C35   1.517154 S    
O4    Cu1   1.798378 S    
C36   H17   1.109695 S    
C17   C34   1.495125 S    
O6    Cu2   1.969041 S    
C1    C19   1.465540 S    
C16   C31   1.484422 S    
C9    H2    1.084422 S    
C3    C5    1.457161 S    
C15   C32   1.482481 S    
O10   H9    1.013819 S    
C14   C16   1.413436 A    
C26   C28   1.615635 S    
O3    C1    1.234911 A    
O8    Cu1   1.962629 S    
C20   C22   1.223692 T    
