data_mof_unit_26625.cif
_audit_creation_date              2012-12-10T18:04:35-0500
_audit_creation_method            fapswitch 2.2
_symmetry_space_group_name_H-M    P1
_symmetry_Int_Tables_number       1
_space_group_crystal_system       triclinic
_cell_length_a                    19.514514
_cell_length_b                    17.818767
_cell_length_c                    12.600657
_cell_angle_alpha                 89.999614
_cell_angle_beta                  99.003506
_cell_angle_gamma                 89.998974
_cell_volume                      4327.57193633

loop_
_atom_site_label
_atom_site_type_symbol
_atom_type_description
_atom_site_fract_x
_atom_site_fract_y
_atom_site_fract_z
_atom_type_partial_charge
C1    C     C_R   0.411676 0.103191 0.444284 0.854915
C2    C     C_R   0.698780 0.697201 0.588774 0.184236
C3    C     C_R   0.280866 0.712123 0.644739 0.176513
C4    C     C_R   0.280871 0.287881 0.644736 0.176511
C5    C     C_R   0.347572 0.741559 0.668693 -0.255168
C6    C     C_R   0.347579 0.258447 0.668686 -0.255162
C7    C     C_R   0.726731 0.373936 0.584067 -0.255237
C8    C     C_R   0.726680 0.626036 0.583875 -0.255208
C9    C     C_R   0.376276 0.779609 0.590219 -0.200534
C10   C     C_R   0.376281 0.220396 0.590211 -0.200525
C11   C     C_R   0.776807 0.386294 0.519942 -0.207814
C12   C     C_R   0.411676 0.896809 0.444285 0.854905
C13   C     C_R   0.776777 0.613704 0.519777 -0.207804
C14   C     C_R   0.689346 0.173940 0.529647 -0.256125
C15   C     C_R   0.689368 0.826078 0.529689 -0.256105
C16   C     C_R   0.176999 0.688940 0.517414 -0.257204
C17   C     C_R   0.176998 0.311057 0.517418 -0.257202
C18   C     C_R   0.615710 0.220944 0.652736 -0.202199
C19   C     C_R   0.615669 0.779012 0.652642 -0.202170
C20   C     C_R   0.185055 0.644089 0.700093 -0.202873
C21   C     C_R   0.185058 0.355913 0.700093 -0.202874
C22   C     C_R   0.362112 0.837048 0.409809 -0.110186
C23   C     C_R   0.909227 0.600697 0.442565 0.842471
C24   C     C_R   0.362112 0.162952 0.409805 -0.110187
C25   C     C_R   0.859847 0.338945 0.408795 -0.111592
C26   C     C_R   0.859891 0.661101 0.408814 -0.111543
C27   C     C_R   0.643069 0.000001 0.132835 -0.307724
C28   C     C_R   0.143078 0.499993 0.132803 -0.313529
C29   C     C_R   0.378634 0.000000 0.762170 0.033440
C30   C     C_R   0.878648 0.500016 0.762375 0.041547
C31   C     C_R   0.352727 0.000000 0.858464 -0.251718
C32   C     C_R   0.852742 0.500017 0.858616 -0.248076
C33   C     C_R   0.589775 0.898952 0.556849 0.849234
C34   C     C_R   0.909216 0.399315 0.442561 0.842493
C35   C     C_R   0.589776 0.101045 0.556850 0.849248
C36   C     C_R   0.090831 0.399696 0.557379 0.861889
C37   C     C_R   0.090831 0.600303 0.557378 0.861861
C38   C     C_R   0.398810 0.000000 0.954457 -0.201269
C39   C     C_R   0.898832 0.500006 0.954557 -0.192621
C40   C     C_R   0.471346 0.000000 0.953906 0.018602
C41   C     C_R   0.971359 0.499998 0.953944 0.014213
C42   C     C_R   0.494906 0.000000 0.853631 0.222481
C43   C     C_R   0.994898 0.499995 0.853647 0.241725
C44   C     C_R   0.521192 0.000000 0.048120 -0.013312
C45   C     C_R   0.719304 0.244178 0.523728 0.081359
C46   C     C_R   0.021214 0.499996 0.048125 -0.011736
C47   C     C_R   0.593219 0.000001 0.040351 0.193106
C48   C     C_R   0.093237 0.499992 0.040323 0.201982
C49   C     C_R   0.614739 0.000001 0.940462 -0.283266
C50   C     C_R   0.114738 0.499990 0.940411 -0.304907
C51   C     C_R   0.566047 1.000000 0.848304 -0.208062
C52   C     C_R   0.066004 0.499992 0.848307 -0.221228
C53   C     C_R   0.502622 1.000000 0.150633 -0.050493
C54   C     C_R   0.002640 0.499999 0.150634 -0.058366
C55   C     C_R   0.621120 0.000001 0.231910 0.017644
C56   C     C_R   0.719322 0.755841 0.523721 0.081376
C57   C     C_R   0.121119 0.499997 0.231888 0.005838
C58   C     C_R   0.648762 0.290033 0.655360 -0.202211
C59   C     C_R   0.648708 0.709916 0.655213 -0.202206
C60   C     C_R   0.250380 0.676895 0.725379 -0.200755
C61   C     C_R   0.250385 0.323109 0.725377 -0.200753
C62   C     C_R   0.634611 0.164250 0.586278 -0.043072
C63   C     C_R   0.634605 0.835740 0.586271 -0.043054
C64   C     C_R   0.149377 0.648662 0.594888 -0.045108
C65   C     C_R   0.149378 0.351337 0.594890 -0.045118
C66   C     C_R   0.331681 0.833763 0.301368 -0.188936
C67   C     C_R   0.244373 0.716792 0.538208 0.078018
C68   C     C_R   0.331676 0.166234 0.301365 -0.188934
C69   C     C_R   0.876052 0.285625 0.334766 -0.190310
C70   C     C_R   0.876161 0.714467 0.334896 -0.190295
C71   C     C_R   0.275630 0.786781 0.269351 -0.149646
C72   C     C_R   0.275622 0.213216 0.269349 -0.149645
C73   C     C_R   0.837653 0.219964 0.317729 -0.149434
C74   C     C_R   0.837802 0.780159 0.317925 -0.149432
C75   C     C_R   0.246649 0.746576 0.345814 -0.191589
C76   C     C_R   0.246644 0.253423 0.345812 -0.191585
C77   C     C_R   0.785409 0.205055 0.378362 -0.186699
C78   C     C_R   0.244374 0.283209 0.538207 0.078018
C79   C     C_R   0.785531 0.795048 0.378516 -0.186676
C80   C     C_R   0.275685 0.750359 0.456175 0.085562
C81   C     C_R   0.275684 0.249643 0.456172 0.085563
C82   C     C_R   0.768537 0.257926 0.454488 0.087262
C83   C     C_R   0.768590 0.742127 0.454525 0.087267
C84   C     C_R   0.338689 0.789187 0.485720 0.086052
C85   C     C_R   0.338691 0.210817 0.485714 0.086041
C86   C     C_R   0.801885 0.328158 0.461079 0.095501
C87   C     C_R   0.801906 0.671875 0.461042 0.095480
C88   C     C_R   0.698807 0.302779 0.588885 0.184270
H1    H     H_    0.572891 0.213422 0.697036 0.153897
H2    H     H_    0.949782 0.500000 0.165229 0.128729
H3    H     H_    0.343361 0.000000 0.686858 0.146673
H4    H     H_    0.843337 0.500031 0.687394 0.125842
H5    H     H_    0.376045 0.000001 0.026991 0.131909
H6    H     H_    0.876074 0.500009 0.027087 0.138830
H7    H     H_    0.297283 0.000000 0.858772 0.151069
H8    H     H_    0.797286 0.500028 0.858867 0.143842
H9    H     H_    0.585527 0.999999 0.773785 0.217104
H10   H     H_    0.085360 0.499995 0.773738 0.206199
H11   H     H_    0.377185 0.736256 0.748616 0.148314
H12   H     H_    0.572827 0.786513 0.696902 0.153856
H13   H     H_    0.377195 0.263752 0.748606 0.148312
H14   H     H_    0.709989 0.420121 0.629854 0.135202
H15   H     H_    0.709899 0.579824 0.629572 0.135221
H16   H     H_    0.632795 0.334513 0.704848 0.135459
H17   H     H_    0.632707 0.665408 0.704623 0.135457
H18   H     H_    0.278028 0.672431 0.806705 0.135118
H19   H     H_    0.278036 0.327576 0.806701 0.135117
H20   H     H_    0.704914 0.126294 0.486378 0.137812
H21   H     H_    0.704953 0.873746 0.486481 0.137771
H22   H     H_    0.145205 0.695840 0.439932 0.148520
H23   H     H_    0.164126 0.612430 0.760970 0.151106
H24   H     H_    0.145201 0.304154 0.439939 0.148523
H25   H     H_    0.349945 0.869135 0.241675 0.151986
H26   H     H_    0.349939 0.130859 0.241674 0.151983
H27   H     H_    0.919917 0.293469 0.292799 0.158316
H28   H     H_    0.920050 0.706634 0.292978 0.158290
H29   H     H_    0.252795 0.783739 0.185429 0.142170
H30   H     H_    0.252783 0.216254 0.185427 0.142169
H31   H     H_    0.850128 0.179065 0.260136 0.140394
H32   H     H_    0.850330 0.821097 0.260423 0.140390
H33   H     H_    0.428669 0.800393 0.611956 0.168357
H34   H     H_    0.164130 0.387574 0.760970 0.151102
H35   H     H_    0.428675 0.199612 0.611944 0.168363
H36   H     H_    0.795430 0.442139 0.515570 0.143769
H37   H     H_    0.795381 0.557856 0.515313 0.143678
H38   H     H_    0.658574 0.000001 0.304952 0.119951
H39   H     H_    0.158567 0.499997 0.304925 0.141391
H40   H     H_    0.758374 0.152595 0.361889 0.126766
H41   H     H_    0.758535 0.847538 0.362106 0.126741
H42   H     H_    0.202760 0.711598 0.315902 0.134086
H43   H     H_    0.202752 0.288400 0.315900 0.134088
H44   H     H_    0.669419 0.000001 0.933467 0.156002
H45   H     H_    0.169410 0.499989 0.933329 0.148707
H46   H     H_    0.698103 0.000002 0.128472 0.138544
H47   H     H_    0.198108 0.499991 0.128423 0.145239
H48   H     H_    0.449755 0.999999 0.165218 0.119152
N1    N     N_R   0.552340 0.000000 0.237260 -0.100707
N2    N     N_R   0.052340 0.500000 0.237260 -0.105611
N3    N     N_R   0.448170 0.000000 0.762060 -0.136448
N4    N     N_R   0.948170 0.500000 0.762060 -0.130951
O1    O     O_R   0.448200 0.076800 0.373930 -0.612000
O2    O     O_R   0.585240 0.076800 0.457600 -0.611382
O3    O     O_R   0.085240 0.423200 0.457600 -0.614765
O4    O     O_R   0.085240 0.576800 0.457600 -0.614776
O5    O     O_R   0.551780 0.923190 0.626070 -0.644554
O6    O     O_R   0.551780 0.076810 0.626070 -0.644566
O7    O     O_R   0.051780 0.423190 0.626070 -0.631081
O8    O     O_R   0.051780 0.576810 0.626070 -0.631085
O9    O     O_R   0.448200 0.923200 0.373930 -0.611999
O10   O     O_R   0.948200 0.576800 0.373930 -0.615629
O11   O     O_R   0.948200 0.423200 0.373930 -0.615626
O12   O     O_R   0.414750 0.076790 0.542400 -0.615970
O13   O     O_R   0.414750 0.923210 0.542400 -0.615976
O14   O     O_R   0.914750 0.576790 0.542400 -0.612743
O15   O     O_R   0.914750 0.423210 0.542400 -0.612759
O16   O     O_R   0.585240 0.923200 0.457600 -0.611356
Zn1   Zn    Zn3+2 0.522330 0.000000 0.387520 0.941334
Zn2   Zn    Zn3+2 0.022330 0.500000 0.387520 0.934731
Zn3   Zn    Zn3+2 0.477660 0.000000 0.612480 0.918611
Zn4   Zn    Zn3+2 0.977660 0.500000 0.612480 0.936644

loop_
_geom_bond_atom_site_label_1
_geom_bond_atom_site_label_2
_ccdc_geom_bond_type
C17   C78   A    
C51   H9    S    
C83   C87   A    
C10   C85   A    
O13   Zn3   S    
C8    C13   A    
C73   H31   S    
C66   H25   S    
C28   H47   S    
C9    C84   A    
C15   H21   S    
C11   H36   S    
C12   O13   A    
C80   C84   A    
C33   O16   A    
C16   H22   S    
C39   C41   A    
C28   C57   A    
C5    C9    A    
C59   H17   S    
O3    Zn2   S    
C53   N1    A    
O16   Zn1   S    
C38   C40   A    
C36   O3    A    
C35   C62   S    
C54   H2    S    
O5    Zn3   S    
C76   H43   S    
C27   C55   A    
C43   C52   A    
C23   C26   S    
C45   C82   A    
C11   C86   A    
C14   C62   A    
C12   C22   S    
C1    O12   A    
O8    Zn4   S    
C6    H13   S    
C21   H34   S    
C7    C88   A    
C22   C66   A    
C44   C53   A    
C18   C58   A    
C69   H27   S    
C5    H11   S    
C19   C63   A    
C26   C87   A    
C49   C51   A    
C7    H14   S    
C70   C74   A    
C9    H33   S    
C41   C46   A    
C69   C73   A    
C20   C60   A    
C24   C85   A    
C21   C61   A    
C44   C47   A    
C68   C72   A    
C42   C51   A    
C13   H37   S    
C3    C60   A    
C40   C42   A    
O15   Zn4   S    
O12   Zn3   S    
N3    Zn3   S    
C41   C43   A    
C13   C87   A    
C53   H48   S    
O7    Zn4   S    
C14   C45   A    
C29   N3    A    
C49   H44   S    
C46   C48   A    
C14   H20   S    
C30   N4    A    
O14   Zn4   S    
C71   H29   S    
C30   C32   A    
O11   Zn2   S    
C45   C88   A    
C47   C49   A    
C10   H35   S    
C2    C59   A    
C18   C62   A    
O6    Zn3   S    
C18   H1    S    
C70   H28   S    
C34   O15   A    
C4    C61   A    
C35   O6    A    
C22   C84   A    
C20   C64   A    
C7    C11   A    
C39   H6    S    
C4    C78   A    
C20   H23   S    
N2    Zn2   S    
C36   O7    A    
C50   C52   A    
C66   C71   A    
C55   H38   S    
C33   C63   S    
C46   C54   A    
C43   N4    A    
C16   C67   A    
C48   C50   A    
C77   H40   S    
C33   O5    A    
O1    Zn1   S    
C30   H4    S    
C32   H8    S    
C23   O10   A    
C74   C79   A    
C26   C70   A    
C4    C6    A    
C25   C69   A    
O2    Zn1   S    
O4    Zn2   S    
C17   H24   S    
C29   H3    S    
C37   C64   S    
C60   H18   S    
C56   C83   A    
C75   C80   A    
C27   C47   A    
C28   C48   A    
C73   C77   A    
O10   Zn2   S    
C21   C65   A    
C42   N3    A    
C36   C65   S    
C27   H46   S    
C12   O9    A    
C2    C8    A    
C67   C80   A    
C3    C5    A    
C50   H45   S    
C58   C88   A    
C76   C81   A    
C57   H39   S    
C34   O11   A    
C75   H42   S    
C74   H32   S    
C25   C34   S    
C17   C65   A    
C55   N1    A    
C31   C38   A    
N1    Zn1   S    
C19   C59   A    
C15   C56   A    
C29   C31   A    
C82   C86   A    
N4    Zn4   S    
C19   H12   S    
C71   C75   A    
C78   C81   A    
C54   N2    A    
C3    C67   A    
C77   C82   A    
C72   C76   A    
C31   H7    S    
C38   H5    S    
C52   H10   S    
C25   C86   A    
C57   N2    A    
C37   O4    A    
C37   O8    A    
C61   H19   S    
C8    H15   S    
C1    O1    A    
C6    C10   A    
C24   C68   A    
C35   O2    A    
C79   C83   A    
C40   C44   A    
C58   H16   S    
C1    C24   S    
C23   O14   A    
C72   H30   S    
C32   C39   A    
C15   C63   A    
C2    C56   A    
C16   C64   A    
O9    Zn1   S    
C81   C85   A    
C68   H26   S    
C79   H41   S    
