data_mof_unit_16143.cif
_audit_creation_date              2012-12-10T18:43:07-0500
_audit_creation_method            fapswitch 2.2
_symmetry_space_group_name_H-M    P1
_symmetry_Int_Tables_number       1
_space_group_crystal_system       triclinic
_cell_length_a                    10.63831
_cell_length_b                    9.906275
_cell_length_c                    10.706886
_cell_angle_alpha                 85.41585
_cell_angle_beta                  91.07372
_cell_angle_gamma                 89.810626
_cell_volume                      1124.53601737

loop_
_atom_site_label
_atom_site_type_symbol
_atom_type_description
_atom_site_fract_x
_atom_site_fract_y
_atom_site_fract_z
_atom_type_partial_charge
C1    C     C_R   0.260425 0.499952 0.498840 1.145731
C2    C     C_R   0.938585 0.433812 0.606059 0.277981
C3    C     C_R   0.871843 0.499620 0.503423 -0.256205
C4    C     C_R   0.127723 0.498400 0.499217 -0.249137
C5    C     C_R   0.930821 0.560193 0.397677 0.335996
C6    C     C_R   0.061863 0.564200 0.397641 0.317518
C7    C     C_R   0.583595 0.066125 0.572959 -0.069603
C8    C     C_R   0.416118 0.079258 0.427706 -0.055148
C9    C     C_R   0.584096 0.922825 0.573502 0.038252
C10   C     C_R   0.416201 0.936274 0.426555 -0.000399
C11   C     C_2   0.268201 0.570512 0.872741 0.939028
C12   C     C_R   0.739356 0.499689 0.501435 0.974475
C13   C     C_2   0.293168 0.372338 0.121474 0.945341
C14   C     C_2   0.677370 0.847612 0.654632 0.949860
C15   C     C_2   0.324441 0.876695 0.343787 0.983715
C16   C     C_R   0.495154 0.506228 0.262373 0.863859
C17   C     C_R   0.497429 0.493910 0.737381 0.800124
C18   C     C_2   0.383320 0.501761 0.930332 -0.073055
C19   C     C_2   0.386329 0.470692 0.065919 -0.095036
C20   C     C_2   0.489556 0.472369 0.870444 0.338186
C21   C     C_2   0.479288 0.529729 0.129188 0.313955
C22   C     C_R   0.068963 0.429423 0.601113 0.381123
H1    H     H_    0.650300 0.116248 0.631125 0.155576
H2    H     H_    0.074826 0.697916 0.254890 0.374474
H3    H     H_    0.720296 0.757794 0.825790 0.354140
H4    H     H_    0.291163 0.796005 0.179247 0.370362
H5    H     H_    0.349503 0.139746 0.369490 0.156201
H6    H     H_    0.089880 0.632019 0.898021 0.363784
H7    H     H_    0.186838 0.308878 0.268331 0.345326
H8    H     H_    0.654133 0.383576 0.878051 0.339428
H9    H     H_    0.620197 0.656724 0.123536 0.371892
H10   H     H_    0.088753 0.317531 0.760171 0.410208
H11   H     H_    0.792640 0.405836 0.713656 0.320344
H12   H     H_    0.903744 0.596925 0.218139 0.353471
N1    N     N_R   0.500000 0.857200 0.500000 -0.160604
N2    N     N_R   0.500000 0.142810 0.500000 -0.094431
O1    O     O_R   0.316770 0.614620 0.499990 -0.581492
O2    O     O_R   0.162194 0.583959 0.946223 -0.771330
O3    O     O_2   0.247976 0.287511 0.057022 -0.569518
O4    O     O_R   0.252791 0.379286 0.243894 -0.798039
O5    O     O_3   0.583973 0.397285 0.935314 -0.731334
O6    O     O_3   0.551279 0.630014 0.066976 -0.699203
O7    O     O_3   0.142468 0.363155 0.695341 -0.724589
O8    O     O_3   0.880520 0.374045 0.711005 -0.745388
O9    O     O_3   0.857801 0.610045 0.295893 -0.746480
O10   O     O_3   0.128252 0.627160 0.299873 -0.721145
O11   O     O_2   0.782742 0.828577 0.615790 -0.596206
O12   O     O_R   0.683230 0.614620 0.500010 -0.577762
O13   O     O_R   0.648084 0.807210 0.778647 -0.749012
O14   O     O_2   0.212829 0.880692 0.368199 -0.592787
O15   O     O_R   0.363558 0.828288 0.231851 -0.744131
O16   O     O_R   0.316800 0.385290 0.500000 -0.592650
O17   O     O_R   0.683200 0.385290 0.500000 -0.627616
O18   O     O_R   0.500000 0.614630 0.319080 -0.582902
O19   O     O_R   0.500000 0.614630 0.680920 -0.577263
O20   O     O_R   0.500030 0.385300 0.319080 -0.609396
O21   O     O_R   0.499970 0.385300 0.680920 -0.621639
O22   O     O_2   0.265543 0.617673 0.763883 -0.599615
Zn1   Zn    Zn3+2 0.500000 0.653120 0.500000 1.072260
Zn2   Zn    Zn3+2 0.500000 0.346880 0.500000 1.020503

loop_
_geom_bond_atom_site_label_1
_geom_bond_atom_site_label_2
_ccdc_geom_bond_type
C2    C22   A    
C11   O2    S    
C9    C14   S    
C16   O20   A    
H8    O5    S    
C16   C21   S    
H9    O6    S    
O19   Zn1   S    
C11   O22   D    
C4    C22   A    
C7    N2    A    
C17   O19   A    
C14   O11   D    
C22   O7    S    
C1    O1    A    
C12   O12   A    
C1    C4    S    
H2    O10   S    
C3    C5    A    
C16   O18   A    
C2    C3    A    
C11   C18   S    
H12   O9    S    
H4    O15   S    
H6    O2    S    
O1    Zn1   S    
O16   Zn2   S    
C7    H1    S    
H7    O4    S    
N1    Zn1   S    
C19   C21   D    
O17   Zn2   S    
C20   O5    S    
C18   C20   D    
O18   Zn1   S    
C5    C6    A    
C1    O16   A    
C15   O15   S    
C13   O3    D    
C14   O13   S    
C13   C19   S    
C21   O6    S    
C10   N1    A    
C7    C9    A    
C17   C20   S    
O20   Zn2   S    
O12   Zn1   S    
C4    C6    A    
C18   C19   S    
C8    N2    A    
C15   O14   D    
C2    O8    S    
C9    N1    A    
C8    H5    S    
C13   O4    S    
C3    C12   S    
C6    O10   S    
N2    Zn2   S    
C10   C15   S    
H11   O8    S    
C5    O9    S    
H10   O7    S    
C8    C10   A    
C12   O17   A    
C17   O21   A    
O21   Zn2   S    
H3    O13   S    
