data_mof_unit_25263.cif
_audit_creation_date              2012-12-10T20:25:45-0500
_audit_creation_method            fapswitch 2.2
_symmetry_space_group_name_H-M    P1
_symmetry_Int_Tables_number       1
_space_group_crystal_system       triclinic
_cell_length_a                    8.642676
_cell_length_b                    10.774442
_cell_length_c                    9.930684
_cell_angle_alpha                 86.784787
_cell_angle_beta                  98.610972
_cell_angle_gamma                 92.310827
_cell_volume                      912.404753489

loop_
_atom_site_label
_atom_site_type_symbol
_atom_type_description
_atom_site_fract_x
_atom_site_fract_y
_atom_site_fract_z
_atom_type_partial_charge
C1    C     C_R   0.503457 0.259987 0.503522 0.877879
C2    C     C_R   0.368765 0.463568 0.915579 0.110118
C3    C     C_3   0.255772 0.353457 0.900705 -0.123528
C4    C     C_R   0.201394 0.498854 0.464547 0.942094
C5    C     C_3   0.272207 0.342851 0.057734 -0.106393
C6    C     C_R   0.502622 0.739883 0.496249 0.886094
C7    C     C_R   0.798627 0.500037 0.535842 0.958286
C8    C     C_2   0.036243 0.491735 0.447257 -0.403842
C9    C     C_2   0.963927 0.503048 0.555025 -0.381985
C10   C     C_R   0.598507 0.057764 0.609896 0.109495
C11   C     C_R   0.510075 0.127416 0.505023 -0.162304
C12   C     C_R   0.458638 0.945075 0.370173 0.149964
C13   C     C_R   0.452168 0.071838 0.382478 -0.254449
C14   C     C_3   0.306565 0.236751 0.841334 -0.358238
C15   C     C_3   0.202260 0.206893 0.707229 -0.836035
C16   C     C_3   0.114631 0.352760 0.110692 -0.367731
C17   C     C_3   0.090536 0.250081 0.218560 -0.881550
C18   C     C_3   0.386876 0.895053 0.233971 -0.380655
C19   C     C_3   0.221117 0.843153 0.237556 -0.851519
C20   C     C_3   0.723995 0.109202 0.853473 -0.353569
C21   C     C_3   0.885753 0.053290 0.865659 -0.872477
C22   C     C_3   0.714511 0.667609 0.151319 -0.367984
C23   C     C_R   0.519974 0.872263 0.488083 -0.133911
C24   C     C_3   0.885382 0.653242 0.136613 -0.954597
C25   C     C_R   0.600375 0.930837 0.601266 0.038093
C26   C     C_3   0.599052 0.902700 0.749901 -0.449252
C27   C     C_3   0.590649 0.042123 0.760424 -0.061702
C28   C     C_R   0.370487 0.460454 0.056393 0.085392
C29   C     C_R   0.609511 0.568991 0.079712 0.191520
C30   C     C_R   0.613074 0.562518 0.936862 -0.147967
H1    H     H_    0.702903 0.612696 0.888841 0.163981
H2    H     H_    0.295854 0.154918 0.913152 0.183491
H3    H     H_    0.097724 0.157264 0.176907 0.254291
H4    H     H_    0.180038 0.259298 0.310195 0.268714
H5    H     H_    0.973063 0.257161 0.249474 0.250748
H6    H     H_    0.110402 0.443880 0.154202 0.232776
H7    H     H_    0.013814 0.345977 0.027351 0.197479
H8    H     H_    0.025666 0.517549 0.656852 0.171965
H9    H     H_    0.219474 0.765909 0.315969 0.267022
H10   H     H_    0.144747 0.917416 0.260264 0.250787
H11   H     H_    0.174051 0.807834 0.136203 0.245547
H12   H     H_    0.344554 0.264758 0.106183 0.168648
H13   H     H_    0.380441 0.970412 0.152140 0.176649
H14   H     H_    0.461126 0.825605 0.199744 0.218153
H15   H     H_    0.490184 0.852586 0.772683 0.191859
H16   H     H_    0.707923 0.857981 0.798703 0.205536
H17   H     H_    0.474381 0.062385 0.783596 0.139718
H18   H     H_    0.891581 0.966745 0.932125 0.250180
H19   H     H_    0.913673 0.033181 0.763723 0.265475
H20   H     H_    0.975341 0.119873 0.914590 0.257273
H21   H     H_    0.732270 0.207910 0.815433 0.215008
H22   H     H_    0.691224 0.109585 0.957486 0.194467
H23   H     H_    0.395094 0.126921 0.296310 0.166698
H24   H     H_    0.907418 0.554509 0.126036 0.259110
H25   H     H_    0.914486 0.707264 0.044620 0.246963
H26   H     H_    0.961089 0.687222 0.227957 0.269908
H27   H     H_    0.677954 0.760196 0.105268 0.172111
H28   H     H_    0.704100 0.669372 0.259408 0.266937
H29   H     H_    0.973915 0.474986 0.346725 0.197877
H30   H     H_    0.139340 0.385326 0.850349 0.167478
H31   H     H_    0.076979 0.206937 0.719151 0.248324
H32   H     H_    0.219618 0.276147 0.624665 0.282658
H33   H     H_    0.227998 0.113960 0.674917 0.230687
H34   H     H_    0.431096 0.249126 0.829339 0.231405
N1    N     N_R   0.498950 0.499140 0.142680 -0.133432
N2    N     N_R   0.498950 0.499180 0.857030 -0.127323
O1    O     O_R   0.500020 0.316790 0.614690 -0.628843
O2    O     O_R   0.500000 0.316760 0.385350 -0.618657
O3    O     O_R   0.271760 0.500010 0.587850 -0.605289
O4    O     O_R   0.271740 0.499970 0.358500 -0.620887
O5    O     O_R   0.500000 0.683240 0.614650 -0.620622
O6    O     O_R   0.499980 0.683210 0.385310 -0.648201
O7    O     O_R   0.728260 0.500030 0.641500 -0.636811
O8    O     O_R   0.728240 0.499990 0.412150 -0.617765
Zn1   Zn    Zn3+2 0.500010 0.500020 0.653130 0.922618
Zn2   Zn    Zn3+2 0.499990 0.499980 0.346870 0.926042

loop_
_geom_bond_atom_site_label_1
_geom_bond_atom_site_label_2
_ccdc_geom_bond_type
C10   C27   S    
C22   H28   S    
C6    O6    A    
C5    H12   S    
O3    Zn1   S    
C29   C30   A    
C22   C29   S    
C18   H14   S    
C8    H29   S    
C24   H26   S    
C5    C28   S    
C11   C13   A    
C1    C11   S    
O6    Zn2   S    
C16   H7    S    
C4    C8    S    
C21   H18   S    
C14   H34   S    
C3    H30   S    
C22   H27   S    
C21   H19   S    
C2    C3    S    
C15   H31   S    
C20   H22   S    
C18   H13   S    
C16   H6    S    
C24   H25   S    
O5    Zn1   S    
C12   C13   A    
O7    Zn1   S    
C12   C23   A    
C26   C27   S    
C30   N2    A    
N1    Zn2   S    
O8    Zn2   S    
C3    C14   S    
C29   N1    A    
N2    Zn1   S    
C19   H9    S    
C10   C25   A    
C17   H3    S    
C4    O3    A    
C1    O1    A    
C15   H32   S    
C28   N1    A    
C20   H21   S    
C13   H23   S    
C19   H10   S    
C23   C25   A    
C7    O8    A    
O4    Zn2   S    
C6    O5    A    
C22   C24   S    
C4    O4    A    
C2    C28   A    
O2    Zn2   S    
C10   C11   A    
C6    C23   S    
C24   H24   S    
C1    O2    A    
O1    Zn1   S    
C20   C21   S    
C7    O7    A    
C18   C19   S    
C17   H4    S    
C27   H17   S    
C7    C9    S    
C15   H33   S    
C30   H1    S    
C21   H20   S    
C5    C16   S    
C9    H8    S    
C17   H5    S    
C26   H15   S    
C3    C5    S    
C25   C26   S    
C14   C15   S    
C26   H16   S    
C20   C27   S    
C19   H11   S    
C16   C17   S    
C14   H2    S    
C8    C9    D    
C2    N2    A    
C12   C18   S    
