data_mof_unit_29851.cif
_audit_creation_date              2013-03-05T16:46:09-0500
_audit_creation_method            fapswitch 2.2
_symmetry_space_group_name_H-M    P1
_symmetry_Int_Tables_number       1
_space_group_crystal_system       triclinic
_cell_length_a                    10.844729
_cell_length_b                    10.632581
_cell_length_c                    9.956429
_cell_angle_alpha                 88.207176
_cell_angle_beta                  91.032117
_cell_angle_gamma                 89.818409
_cell_volume                      1147.29436958

loop_
_atom_site_label
_atom_site_type_symbol
_atom_site_description
_atom_site_fract_x
_atom_site_fract_y
_atom_site_fract_z
_atom_type_partial_charge
O1    O     O_R   0.500020 0.316790 0.614690 -0.613890
O2    O     O_R   0.500000 0.316760 0.385350 -0.624796
C1    C     C_R   0.501115 0.260647 0.501364 0.923633
O3    O     O_R   0.316770 0.500030 0.614670 -0.624917
O4    O     O_R   0.316750 0.499990 0.385330 -0.596306
C2    C     C_R   0.259948 0.500425 0.498268 0.972970
Zn1   Zn    Zn3+2 0.500010 0.500020 0.653130 0.970799
Zn2   Zn    Zn3+2 0.499990 0.499980 0.346870 0.976308
O5    O     O_R   0.500000 0.683240 0.614650 -0.628903
O6    O     O_R   0.499980 0.683210 0.385310 -0.615896
O7    O     O_R   0.683250 0.500010 0.614670 -0.622034
O8    O     O_R   0.683230 0.499970 0.385330 -0.640950
C3    C     C_R   0.499028 0.739280 0.497986 0.960563
C4    C     C_R   0.739619 0.499710 0.501622 0.862147
H1    H     H_    0.231558 0.509395 0.878846 0.189789
C5    C     C_R   0.174662 0.621428 0.038631 -0.167283
H2    H     H_    0.196343 0.708813 0.985681 0.199431
C6    C     C_R   0.131837 0.623054 0.169031 -0.100036
H3    H     H_    0.116217 0.712351 0.215070 0.232330
C7    C     C_R   0.108399 0.510143 0.239538 -0.048191
C8    C     C_R   0.121952 0.393519 0.176719 0.228565
C9    C     C_R   0.162554 0.392166 0.042370 0.237334
C10   C     C_R   0.190672 0.507347 0.976447 -0.288279
C11   C     C_R   0.930209 0.519006 0.381334 -0.213772
H4    H     H_    0.877574 0.530215 0.288135 0.156347
C12   C     C_R   0.871870 0.502037 0.504301 -0.082256
C13   C     C_R   0.941685 0.484870 0.624255 0.008111
C14   C     C_R   0.067849 0.488491 0.617445 -0.185008
H5    H     H_    0.119922 0.472881 0.708687 0.193418
C15   C     C_R   0.126753 0.502991 0.495114 -0.021729
C16   C     C_R   0.056642 0.515096 0.374758 0.093653
C17   C     C_R   0.865764 0.543684 0.849160 -0.102823
H6    H     H_    0.874772 0.642319 0.820626 0.147650
C18   C     C_R   0.832047 0.509382 0.979841 -0.215345
H7    H     H_    0.814747 0.581452 0.051376 0.163675
C19   C     C_R   0.822550 0.382439 0.018996 -0.208185
H8    H     H_    0.797472 0.358224 0.121225 0.186678
C20   C     C_R   0.849071 0.287971 0.927924 0.350885
C21   C     C_R   0.884048 0.323363 0.797045 -0.197197
H9    H     H_    0.908698 0.252399 0.726612 0.184459
C22   C     C_R   0.890870 0.450617 0.756927 0.095971
C23   C     C_R   0.602043 0.061031 0.547518 0.105883
C24   C     C_R   0.500043 0.128670 0.500167 -0.145393
C25   C     C_R   0.408111 0.070080 0.424655 -0.229040
H10   H     H_    0.335258 0.125176 0.375681 0.234217
C26   C     C_R   0.404866 0.939626 0.421959 0.297077
C27   C     C_R   0.498996 0.871448 0.491813 -0.215343
C28   C     C_R   0.601344 0.932828 0.543608 0.066591
C29   C     C_3   0.666604 0.917369 0.676347 -0.412169
C30   C     C_3   0.667092 0.059767 0.680550 -0.408526
H11   H     H_    0.608297 0.873116 0.755042 0.204997
H12   H     H_    0.760155 0.875767 0.667326 0.215774
H13   H     H_    0.609097 0.095663 0.761296 0.207696
H14   H     H_    0.760667 0.100662 0.673061 0.220696
C31   C     C_R   0.455287 0.399662 0.073719 0.156186
N1    N     N_R   0.499160 0.499140 0.142800 -0.116171
C32   C     C_R   0.539548 0.602206 0.067051 0.189832
C33   C     C_R   0.537147 0.601778 0.924106 -0.115553
H15   H     H_    0.570494 0.682000 0.866706 0.152071
N2    N     N_R   0.499160 0.499180 0.857150 -0.136731
C34   C     C_R   0.456300 0.399361 0.932013 0.224893
C35   C     C_3   0.505186 0.268577 0.932959 -0.444773
C36   C     C_3   0.503018 0.268339 0.085305 -0.422514
H16   H     H_    0.438519 0.201800 0.888475 0.251192
H17   H     H_    0.599536 0.265363 0.892468 0.195156
H18   H     H_    0.434457 0.202300 0.129181 0.246810
H19   H     H_    0.595697 0.262672 0.134033 0.233936
N3    N     N_R   0.842243 0.157064 0.968202 0.227139
O9    O     O_R   0.897261 0.072008 0.899370 -0.354132
O10   O     O_R   0.783209 0.121841 0.075520 -0.379750
N4    N     N_R   0.301194 0.879205 0.359945 0.206972
O11   O     O_R   0.247259 0.785590 0.421827 -0.441955
O12   O     O_R   0.247919 0.930681 0.253625 -0.336779
C37   C     C_3   0.594093 0.715541 0.131014 -0.778952
H20   H     H_    0.659233 0.686647 0.213319 0.255716
H21   H     H_    0.648122 0.773023 0.058006 0.212260
H22   H     H_    0.519194 0.776952 0.166055 0.267078
N5    N     N_R   0.090514 0.278707 0.248002 0.226799
O13   O     O_R   0.135764 0.253822 0.367752 -0.406536
O14   O     O_R   0.008845 0.203284 0.198072 -0.281225
N6    N     N_R   0.181238 0.276035 0.974167 0.210811
O15   O     O_R   0.184748 0.275952 0.843641 -0.410469
O16   O     O_R   0.207073 0.171961 0.041103 -0.310691

loop_
_geom_bond_atom_site_label_1
_geom_bond_atom_site_label_2
_geom_bond_distance
_ccdc_geom_bond_type
C31   N1    1.362029 A    
Zn2   N1    2.031965 S    
N6    O15   1.300840 A    
C21   C22   1.401286 A    
Zn1   O7    2.030508 S    
C1    C24   1.403763 S    
C12   C13   1.409195 A    
C30   H14   1.108124 S    
C37   H21   1.111329 S    
C19   H8    1.081789 S    
C11   C12   1.395203 A    
C6    H3    1.081341 S    
C15   C16   1.409799 A    
O7    C4    1.290573 A    
N5    O14   1.299328 A    
C33   N2    1.357426 A    
N1    C32   1.387365 A    
C18   H7    1.080614 S    
O5    C3    1.288637 A    
C35   H16   1.111026 S    
C5    H2    1.082452 S    
C29   H11   1.109862 S    
C37   H22   1.108576 S    
C31   C36   1.487978 S    
C8    N5    1.437819 S    
C17   C22   1.400277 A    
C18   C19   1.397773 A    
H1    C10   1.075011 S    
C36   H18   1.110192 S    
C8    C9    1.416243 A    
O3    Zn1   2.016961 S    
N6    O16   1.300894 A    
C25   C26   1.388706 A    
C20   C21   1.404125 A    
C36   H19   1.108790 S    
C30   H13   1.106095 S    
C37   H20   1.107682 S    
C9    N6    1.443144 S    
C11   H4    1.083815 S    
O3    C2    1.302638 A    
C21   H9    1.082186 S    
N4    O12   1.301398 A    
N5    O13   1.300272 A    
N3    O9    1.301395 A    
C33   H15   1.078814 S    
N2    C34   1.365343 A    
O1    C1    1.293122 A    
C17   C18   1.395682 A    
C32   C37   1.498856 S    
C24   C25   1.397686 A    
C35   C36   1.517348 S    
C13   C22   1.476010 S    
C27   C28   1.388836 A    
Zn2   O8    2.016962 S    
C29   H12   1.111728 S    
C23   C28   1.364944 A    
C4    C12   1.434298 S    
C26   N4    1.436099 S    
C23   C30   1.489075 S    
C5    C6    1.387336 A    
C28   C29   1.492145 S    
C2    C15   1.444389 S    
C20   N3    1.438902 S    
C5    C10   1.390788 A    
C23   C24   1.384933 A    
Zn1   N2    2.031238 S    
C25   H10   1.081880 S    
C3    C27   1.404704 S    
Zn1   O5    1.973622 S    
C26   C27   1.410480 A    
C14   H5    1.069208 S    
C35   H17   1.107302 S    
O1    Zn1   1.997160 S    
O2    Zn2   1.973620 S    
O8    C4    1.299565 A    
O6    C3    1.286970 A    
O4    Zn2   2.030508 S    
C17   H6    1.083116 S    
C14   C15   1.390043 A    
O2    C1    1.283227 A    
C11   C16   1.374432 A    
N4    O11   1.300299 A    
C32   C33   1.423139 A    
O4    C2    1.291954 A    
C31   C34   1.411228 A    
C19   C20   1.406545 A    
C6    C7    1.397965 A    
C34   C35   1.486328 S    
C7    C8    1.414609 A    
Zn2   O6    1.997160 S    
C29   C30   1.515964 S    
C13   C14   1.371717 A    
N3    O10   1.301137 A    
C9    C10   1.408157 A    
C7    C16   1.470319 S    
