data_mof_unit_63649.cif
_audit_creation_date              2012-12-10T18:12:30-0500
_audit_creation_method            fapswitch 2.2
_symmetry_space_group_name_H-M    P1
_symmetry_Int_Tables_number       1
_space_group_crystal_system       triclinic
_cell_length_a                    9.46785
_cell_length_b                    10.791475
_cell_length_c                    17.381732
_cell_angle_alpha                 89.335035
_cell_angle_beta                  87.003338
_cell_angle_gamma                 89.407673
_cell_volume                      1773.29539559

loop_
_atom_site_label
_atom_site_type_symbol
_atom_type_description
_atom_site_fract_x
_atom_site_fract_y
_atom_site_fract_z
_atom_type_partial_charge
C1    C     C_R   0.499353 0.740118 0.500534 0.953683
C2    C     C_R   0.355047 0.554700 0.773191 -0.233126
C3    C     C_R   0.430773 0.556430 0.145179 -0.177465
C4    C     C_R   0.433616 0.571329 0.224054 0.262035
C5    C     C_R   0.617826 0.413318 0.228718 0.581000
C6    C     C_R   0.618176 0.401263 0.148776 0.233128
C7    C     C_R   0.523535 0.473052 0.106322 -0.053466
C8    C     C_2   0.471562 0.549439 0.976061 -0.111522
C9    C     C_2   0.520941 0.460096 0.022050 -0.097245
C10   C     C_R   0.524679 0.497259 0.266679 -0.268436
C11   C     C_3   0.503354 0.931587 0.416460 0.044207
C12   C     C_R   0.482647 0.500912 0.649551 0.859623
C13   C     C_3   0.521701 0.074068 0.417581 -0.052986
C14   C     C_3   0.360571 0.929006 0.543199 0.277033
C15   C     C_3   0.627124 0.927313 0.544229 0.958478
C16   C     C_3   0.498671 0.878466 0.500610 -0.468418
C17   C     C_3   0.498118 0.122335 0.501765 -0.513321
C18   C     C_3   0.355511 0.071915 0.538957 1.105116
C19   C     C_3   0.620377 0.069844 0.549347 0.307461
C20   C     C_3   0.923301 0.415269 0.438765 0.528820
C21   C     C_3   0.089394 0.411056 0.440578 0.513184
C22   C     C_3   0.917762 0.624265 0.481444 0.382569
C23   C     C_R   0.499877 0.260147 0.501811 1.004092
C24   C     C_3   0.911479 0.461756 0.575115 0.103584
C25   C     C_3   0.084506 0.622781 0.483228 0.578436
C26   C     C_3   0.078026 0.458006 0.574506 -0.536295
C27   C     C_R   0.517447 0.501291 0.350519 0.933741
C28   C     C_R   0.476182 0.507534 0.733348 -0.096853
C29   C     C_R   0.594853 0.472853 0.773786 -0.107914
C30   C     C_R   0.592744 0.484970 0.853100 -0.192733
C31   C     C_R   0.472340 0.533147 0.892851 0.012226
C32   C     C_R   0.353773 0.569021 0.852719 0.686647
Cu1   Cu    Cu3+1 0.357600 0.500140 0.499960 1.093065
Cu2   Cu    Cu3+1 0.642400 0.499860 0.500040 1.114548
H1    H     H_    0.689795 0.437263 0.744187 0.204767
H2    H     H_    0.401335 0.909579 0.391042 0.267468
H3    H     H_    0.631584 0.097559 0.397040 0.241156
H4    H     H_    0.723036 0.107214 0.525940 0.228879
H5    H     H_    0.357579 0.897714 0.604503 0.157860
H6    H     H_    0.894238 0.447042 0.380577 0.219177
H7    H     H_    0.123993 0.314831 0.453732 0.214990
H8    H     H_    0.873153 0.530061 0.619143 0.133541
H9    H     H_    0.118436 0.364274 0.589893 0.287707
H10   H     H_    0.111173 0.520688 0.620394 0.191382
H11   H     H_    0.876119 0.690508 0.525704 0.157147
H12   H     H_    0.113903 0.686181 0.529556 0.118875
H13   H     H_    0.561241 0.374792 0.996277 0.197217
H14   H     H_    0.353880 0.610486 0.115192 0.203130
H15   H     H_    0.263089 0.583335 0.742693 0.177848
H16   H     H_    0.429147 0.636184 0.998397 0.197024
H17   H     H_    0.686258 0.459369 0.883185 0.194708
N1    N     N_3   0.856560 0.499750 0.498270 -0.336899
N2    N     N_3   0.143860 0.496700 0.498910 -0.327021
O1    O     O_R   0.379740 0.682430 0.499960 -0.537605
O2    O     O_R   0.620260 0.682190 0.500020 -0.519786
O3    O     O_R   0.365800 0.500150 0.613560 -0.616261
O4    O     O_R   0.606310 0.499910 0.613620 -0.589611
O5    O     O_R   0.379740 0.317810 0.499980 -0.547921
O6    O     O_R   0.620260 0.317570 0.500040 -0.509930
O7    O     O_R   0.393690 0.500090 0.386380 -0.474558
O8    O     O_R   0.634200 0.499850 0.386440 -0.535047
Br1   Br    Br    0.750788 0.286448 0.100378 -0.279046
Br2   Br    Br    0.647901 0.856729 0.346600 -0.210187
Br3   Br    Br    0.400870 0.153933 0.343079 -0.254229
F1    F     F_    0.240613 0.883597 0.511205 -0.560289
F2    F     F_    0.242928 0.109405 0.495991 -0.551750
F3    F     F_    0.626510 0.875332 0.617696 -0.608282
F4    F     F_    0.753806 0.894451 0.505915 -0.584243
Br4   Br    Br    0.317210 0.700840 0.268648 -0.203131
F5    F     F_    0.603094 0.106052 0.625639 -0.536096
F6    F     F_    0.330994 0.118363 0.612612 -0.602827
F7    F     F_    0.872589 0.295977 0.446958 -0.594744
F8    F     F_    0.145183 0.439188 0.367401 -0.563218
F9    F     F_    0.876220 0.668226 0.410785 -0.510661
F10   F     F_    0.143489 0.670371 0.414984 -0.472327
F11   F     F_    0.705617 0.340613 0.269621 -0.579264
Br5   Br    Br    0.842410 0.303501 0.615916 -0.286602
F12   F     F_    0.236786 0.616552 0.890605 -0.624236

loop_
_geom_bond_atom_site_label_1
_geom_bond_atom_site_label_2
_ccdc_geom_bond_type
C10   C27   S    
C24   N1    S    
C23   O5    A    
C30   H17   S    
Cu1   O5    S    
C24   H8    S    
C14   C18   S    
C26   H10   S    
C23   O6    A    
C17   C23   S    
C12   C28   S    
C28   C29   A    
C19   H4    S    
C24   C26   S    
C3    C7    A    
C27   O7    A    
C5    C6    A    
C20   H6    S    
C15   C16   S    
C21   F8    S    
C3    H14   S    
Cu1   O1    S    
C2    C32   A    
C27   O8    A    
C14   H5    S    
C8    C9    D    
C22   C25   S    
Cu2   O4    S    
C13   H3    S    
Cu1   O3    S    
Cu2   O2    S    
C4    Br4   S    
C26   H9    S    
C17   C18   S    
Cu1   N2    S    
Cu2   O8    S    
C25   F10   S    
C15   C19   S    
C1    O1    A    
C29   C30   A    
C2    H15   S    
C11   C16   S    
C31   C32   A    
C15   F3    S    
Cu1   Cu2   S    
C1    C16   S    
C12   O3    A    
C21   H7    S    
C12   O4    A    
C9    H13   S    
Cu1   O7    S    
Cu2   O6    S    
C14   C16   S    
C22   F9    S    
C4    C10   A    
C3    C4    A    
C26   N2    S    
C8    H16   S    
C22   N1    S    
C18   F6    S    
C7    C9    S    
C11   H2    S    
C8    C31   S    
C25   N2    S    
C6    C7    A    
C18   F2    S    
C29   H1    S    
Cu2   N1    S    
C13   C17   S    
C6    Br1   S    
C5    F11   S    
C1    O2    A    
C5    C10   A    
C20   N1    S    
C21   N2    S    
C11   C13   S    
C30   C31   A    
C13   Br3   S    
C15   F4    S    
C17   C19   S    
C14   F1    S    
C32   F12   S    
C24   Br5   S    
C22   H11   S    
C20   C21   S    
C20   F7    S    
C19   F5    S    
C2    C28   A    
C11   Br2   S    
C25   H12   S    
