data_mof_unit_17247.cif
_audit_creation_date              2012-12-10T16:52:10-0500
_audit_creation_method            fapswitch 2.2
_symmetry_space_group_name_H-M    P1
_symmetry_Int_Tables_number       1
_space_group_crystal_system       triclinic
_cell_length_a                    7.774227
_cell_length_b                    8.558373
_cell_length_c                    14.865629
_cell_angle_alpha                 90.989801
_cell_angle_beta                  86.030419
_cell_angle_gamma                 93.616748
_cell_volume                      984.659865626

loop_
_atom_site_label
_atom_site_type_symbol
_atom_type_description
_atom_site_fract_x
_atom_site_fract_y
_atom_site_fract_z
_atom_type_partial_charge
C1    C     C_R   0.545723 0.794672 0.497650 0.957092
C2    C     C_R   0.571126 0.630645 0.811797 -0.230371
C3    C     C_R   0.492624 0.502502 0.232346 -0.041839
C4    C     C_R   0.507376 0.497497 0.767653 -0.041840
C5    C     C_R   0.557316 0.635971 0.186507 -0.244365
C6    C     C_R   0.442683 0.364028 0.813493 -0.244364
C7    C     C_R   0.559826 0.638247 0.092831 0.071061
C8    C     C_R   0.440174 0.361753 0.907169 0.071061
C9    C     C_R   0.498003 0.501417 0.046919 0.041129
C10   C     C_R   0.501998 0.498582 0.953082 0.041129
C11   C     C_R   0.432399 0.367043 0.095058 0.120572
C12   C     C_R   0.454277 0.205328 0.502350 0.957092
C13   C     C_R   0.567602 0.632956 0.904943 0.120572
C14   C     C_R   0.623178 0.772204 0.043876 -0.005545
C15   C     C_R   0.376821 0.227795 0.956125 -0.005545
C16   C     C_1   0.684120 0.915478 0.087591 0.151709
C17   C     C_1   0.315879 0.084522 0.912409 0.151709
C18   C     C_R   0.626914 0.768145 0.950180 -0.235553
C19   C     C_R   0.373086 0.231855 0.049820 -0.235552
C20   C     C_2   0.569821 0.958183 0.496269 -0.376746
C21   C     C_2   0.430179 0.041817 0.503730 -0.376746
C22   C     C_R   0.502393 0.499659 0.672706 0.879585
C23   C     C_R   0.497607 0.500340 0.327294 0.879585
C24   C     C_R   0.428875 0.369354 0.188203 -0.230372
H1    H     H_    0.380304 0.267091 0.226517 0.132594
H2    H     H_    0.986380 0.617404 0.567937 0.194955
H3    H     H_    0.619697 0.732908 0.773484 0.132594
H4    H     H_    0.605514 0.736664 0.224609 0.144305
H5    H     H_    0.394483 0.263336 0.775391 0.144304
H6    H     H_    0.675567 0.870922 0.912365 0.158004
H7    H     H_    0.324431 0.129077 0.087635 0.158003
H8    H     H_    0.701733 0.009176 0.489123 0.182685
H9    H     H_    0.298267 0.990823 0.510877 0.182685
H10   H     H_    0.013620 0.382596 0.432063 0.194955
N1    N     N_2   0.950330 0.457950 0.475660 -0.171673
N2    N     N_2   0.049670 0.542050 0.524340 -0.171674
N3    N     N_1   0.732759 0.030242 0.122487 -0.202932
N4    N     N_1   0.267239 0.969758 0.877513 -0.202933
O1    O     O_R   0.389250 0.738570 0.505970 -0.612093
O2    O     O_R   0.610750 0.261430 0.494030 -0.612093
O3    O     O_R   0.678390 0.711620 0.490370 -0.632439
O4    O     O_R   0.321610 0.288380 0.509630 -0.632440
O5    O     O_R   0.355420 0.513510 0.639950 -0.608654
O6    O     O_R   0.644580 0.486490 0.360050 -0.608653
O7    O     O_R   0.644560 0.486560 0.624350 -0.624638
O8    O     O_R   0.355440 0.513440 0.375650 -0.624639
Zn1   Zn    Zn3+2 0.306940 0.517990 0.510420 0.953160
Zn2   Zn    Zn3+2 0.693060 0.482010 0.489580 0.953160

loop_
_geom_bond_atom_site_label_1
_geom_bond_atom_site_label_2
_ccdc_geom_bond_type
C12   O2    A    
C2    C4    A    
C2    H3    S    
C18   H6    S    
C22   O5    A    
C5    H4    S    
C4    C22   S    
C9    C10   A    
C14   C18   A    
C3    C23   S    
N1    N2    D    
C16   N3    T    
C17   N4    T    
C19   H7    S    
C6    H5    S    
C23   O8    A    
C20   C21   D    
C15   C19   A    
C9    C11   A    
C11   C19   A    
C3    C24   A    
C13   C18   A    
N1    Zn2   S    
H2    N2    S    
O3    Zn2   S    
C8    C15   A    
C5    C7    A    
O4    Zn1   S    
C8    C10   A    
C14   C16   S    
C4    C6    A    
C21   H9    S    
C1    O1    A    
C12   O4    A    
C7    C9    A    
C11   C24   A    
C22   O7    A    
C24   H1    S    
N2    Zn1   S    
O1    Zn1   S    
H10   N1    S    
C20   H8    S    
O7    Zn2   S    
C1    O3    A    
C15   C17   S    
C2    C13   A    
O2    Zn2   S    
O8    Zn1   S    
C1    C20   S    
C6    C8    A    
O5    Zn1   S    
C12   C21   S    
C7    C14   A    
C23   O6    A    
O6    Zn2   S    
C3    C5    A    
C10   C13   A    
