data_mof_unit_23348.cif
_audit_creation_date              2012-12-11T17:17:00-0500
_audit_creation_method            fapswitch 2.2
_symmetry_space_group_name_H-M    P1
_symmetry_Int_Tables_number       1
_space_group_crystal_system       triclinic
_cell_length_a                    6.956079
_cell_length_b                    13.372962
_cell_length_c                    14.687956
_cell_angle_alpha                 98.981643
_cell_angle_beta                  90.192906
_cell_angle_gamma                 89.965702
_cell_volume                      1349.56236526

loop_
_atom_site_label
_atom_site_type_symbol
_atom_type_description
_atom_site_fract_x
_atom_site_fract_y
_atom_site_fract_z
_atom_type_partial_charge
O1    O     O_R   0.354890 0.151580 0.148210 -0.538028
O2    O     O_R   0.645110 0.848420 0.851790 -0.538028
O3    O     O_R   0.682370 0.152980 0.336770 -0.523019
O4    O     O_R   0.317630 0.847020 0.663230 -0.523019
O5    O     O_R   0.854980 0.348430 0.351800 -0.544260
O6    O     O_R   0.145020 0.651570 0.648200 -0.544260
C1    C     C_R   0.514374 0.132446 0.367154 0.824382
C2    C     C_R   0.485626 0.867554 0.632846 0.824382
O7    O     O_R   0.684450 0.139580 0.148000 -0.538905
O8    O     O_R   0.315550 0.860420 0.852000 -0.538906
O9    O     O_R   0.857080 0.334940 0.161680 -0.547854
O10   O     O_R   0.142920 0.665060 0.838320 -0.547854
C3    C     C_R   0.515449 0.112702 0.114072 0.761986
C4    C     C_R   0.484551 0.887298 0.885928 0.761987
O11   O     O_R   0.352790 0.165070 0.338330 -0.521811
O12   O     O_R   0.647210 0.834930 0.661670 -0.521811
O13   O     O_3   0.522170 0.314120 0.254710 -0.382699
O14   O     O_3   0.477830 0.685880 0.745290 -0.382699
V1    V     V_3+5 0.796120 0.238110 0.249130 1.603001
V2    V     V_3+5 0.203880 0.761890 0.750870 1.603001
O15   O     O_R   0.186930 0.347040 0.163240 -0.527925
O16   O     O_R   0.813070 0.652960 0.836760 -0.527925
C5    C     C_R   0.017828 0.368579 0.133771 0.813221
C6    C     C_R   0.982172 0.631421 0.866228 0.813220
O17   O     O_R   0.184850 0.360440 0.352010 -0.537991
O18   O     O_R   0.815150 0.639560 0.647990 -0.537990
C7    C     C_R   0.015951 0.387282 0.385944 0.767061
C8    C     C_R   0.984049 0.612718 0.614056 0.767061
V3    V     V_3+5 0.296410 0.261900 0.250880 1.605490
V4    V     V_3+5 0.703590 0.738100 0.749120 1.605490
O19   O     O_3   0.020490 0.185890 0.245290 -0.359588
O20   O     O_3   0.979510 0.814110 0.754710 -0.359588
C9    C     C_1   0.005290 0.466896 0.466331 -0.116150
C10   C     C_1   0.994710 0.533104 0.533669 -0.116151
C11   C     C_3   0.180354 0.528424 0.980982 -0.283332
C12   C     C_3   0.819645 0.471576 0.019018 -0.283331
C13   C     C_3   0.082032 0.548085 0.076633 0.376509
C14   C     C_3   0.917968 0.451915 0.923367 0.376509
H1    H     H_    0.328898 0.551244 0.965775 0.205463
H2    H     H_    0.671102 0.448756 0.034225 0.205463
C15   C     C_3   0.007432 0.438396 0.063131 -0.285981
C16   C     C_3   0.992568 0.561604 0.936869 -0.285981
C17   C     C_3   0.103437 0.418360 0.967694 0.364414
C18   C     C_3   0.896563 0.581640 0.032306 0.364413
C19   C     C_3   0.328498 0.042724 0.493745 0.423807
C20   C     C_3   0.671502 0.957276 0.506255 0.423807
C21   C     C_3   0.367300 0.927117 0.473364 -0.253754
C22   C     C_3   0.632700 0.072883 0.526636 -0.253754
H3    H     H_    0.264480 0.865362 0.449248 0.240725
H4    H     H_    0.735520 0.134637 0.550752 0.240725
C23   C     C_3   0.492715 0.936950 0.561763 -0.305107
C24   C     C_3   0.507285 0.063050 0.438237 -0.305107
C25   C     C_3   0.452184 0.051430 0.581696 0.348874
C26   C     C_3   0.547816 0.948569 0.418304 0.348874
C27   C     C_1   0.504839 0.033112 0.033680 -0.080622
C28   C     C_1   0.495161 0.966888 0.966320 -0.080622
Cl1   Cl    Cl    0.191775 0.612830 0.178874 -0.487054
Cl2   Cl    Cl    0.808225 0.387170 0.821126 -0.487054
Cl3   Cl    Cl    0.242527 0.309489 0.924173 -0.497118
Cl4   Cl    Cl    0.757473 0.690511 0.075827 -0.497118
Cl5   Cl    Cl    0.106110 0.106927 0.487677 -0.554142
Cl6   Cl    Cl    0.893890 0.893073 0.512323 -0.554142
Cl7   Cl    Cl    0.387576 0.119996 0.691243 -0.449593
Cl8   Cl    Cl    0.612424 0.880004 0.308757 -0.449593

loop_
_geom_bond_atom_site_label_1
_geom_bond_atom_site_label_2
_ccdc_geom_bond_type
C4    C28   S    
C27   C28   T    
C6    C16   S    
O4    C2    A    
V1    O19   S    
C21   H3    S    
C7    C9    S    
O9    V1    S    
C20   Cl6   S    
C11   C13   S    
C1    C24   S    
C14   C16   S    
O3    C1    A    
O12   V4    S    
O13   V3    S    
C19   Cl5   S    
C11   C16   S    
O7    C3    A    
O5    C7    A    
O7    V1    S    
O6    C8    A    
O8    V2    S    
O3    V1    S    
O14   V4    S    
C11   C17   S    
C17   Cl3   S    
C22   H4    S    
C8    C10   S    
C2    O12   A    
C14   Cl2   S    
C15   C17   S    
O10   V2    S    
C12   C15   S    
C16   C18   S    
C24   C26   S    
O11   V3    S    
C19   C21   S    
O17   V3    S    
C22   C25   S    
C20   C22   S    
C12   H2    S    
O8    C4    A    
C21   C23   S    
C1    O11   A    
C19   C24   S    
O15   V3    S    
C20   C23   S    
C23   C25   S    
C11   H1    S    
C20   C26   S    
O1    V3    S    
C9    C10   T    
C2    C23   S    
C21   C26   S    
O18   V4    S    
O15   C5    A    
O16   C6    A    
C12   C18   S    
O1    C3    A    
V2    O20   S    
O16   V4    S    
O5    V1    S    
O17   C7    A    
O6    V2    S    
O10   C6    A    
O18   C8    A    
C5    C15   S    
O2    V4    S    
C13   C18   S    
C12   C14   S    
C14   C17   S    
V3    O19   S    
V4    O20   S    
C25   Cl7   S    
C26   Cl8   S    
C18   Cl4   S    
O9    C5    A    
O13   V1    S    
O14   V2    S    
C13   C15   S    
O2    C4    A    
C19   C25   S    
O4    V2    S    
C22   C24   S    
C13   Cl1   S    
C3    C27   S    
