data_mof_unit_6542.cif
_audit_creation_date              2012-12-11T15:23:53-0500
_audit_creation_method            fapswitch 2.2
_symmetry_space_group_name_H-M    P1
_symmetry_Int_Tables_number       1
_space_group_crystal_system       triclinic
_cell_length_a                    17.307456
_cell_length_b                    24.429973
_cell_length_c                    14.981653
_cell_angle_alpha                 90.419251
_cell_angle_beta                  125.491869
_cell_angle_gamma                 89.363125
_cell_volume                      5157.25814517

loop_
_atom_site_label
_atom_site_type_symbol
_atom_type_description
_atom_site_fract_x
_atom_site_fract_y
_atom_site_fract_z
_atom_type_partial_charge
C1    C     C_R   0.354108 0.347561 0.911280 -0.122786
C2    C     C_R   0.543646 0.497873 0.717385 0.043486
C3    C     C_R   0.062963 0.998750 0.365285 0.047836
C4    C     C_R   0.043646 0.997873 0.717385 0.043486
C5    C     C_R   0.190079 0.499267 0.641450 0.061466
C6    C     C_R   0.824833 0.498563 0.273717 0.077187
C7    C     C_R   0.690079 0.999267 0.641450 0.061466
C8    C     C_R   0.324833 0.998563 0.273716 0.077187
C9    C     C_2   0.982782 0.458044 0.358710 -0.099456
C10   C     C_2   0.080939 0.462811 0.455400 -0.097987
C11   C     C_2   0.482782 0.958044 0.358710 -0.099456
C12   C     C_R   0.643758 0.346395 0.088138 -0.061601
C13   C     C_2   0.580939 0.962811 0.455400 -0.097987
C14   C     C_2   0.925655 0.501834 0.322439 -0.183960
C15   C     C_2   0.103519 0.501009 0.531811 -0.159253
C16   C     C_2   0.425655 0.001834 0.322439 -0.183960
C17   C     C_2   0.603519 0.001009 0.531811 -0.159253
C18   C     C_R   0.155337 0.685919 0.897606 -0.167171
C19   C     C_R   0.824449 0.701720 0.103254 -0.170959
C20   C     C_R   0.655337 0.185919 0.897606 -0.167171
C21   C     C_R   0.324449 0.201720 0.103254 -0.170959
C22   C     C_R   0.606529 0.231305 0.897282 -0.165950
C23   C     C_R   0.854108 0.847561 0.911280 -0.122785
C24   C     C_R   0.384567 0.238333 0.103839 -0.166992
C25   C     C_R   0.106529 0.731305 0.897282 -0.165950
C26   C     C_R   0.884567 0.738333 0.103839 -0.166992
C27   C     C_R   0.637788 0.257238 0.996532 0.135324
C28   C     C_R   0.359283 0.260614 0.004372 0.136396
C29   C     C_R   0.137788 0.757238 0.996532 0.135324
C30   C     C_R   0.859283 0.760614 0.004372 0.136396
C31   C     C_R   0.704661 0.230714 0.095749 -0.162665
C32   C     C_R   0.288752 0.235889 0.905280 -0.163721
C33   C     C_R   0.204661 0.730714 0.095749 -0.162665
C34   C     C_R   0.143758 0.846395 0.088138 -0.061601
C35   C     C_R   0.788752 0.735889 0.905280 -0.163722
C36   C     C_R   0.253463 0.685390 0.095978 -0.162106
C37   C     C_R   0.728522 0.699259 0.904554 -0.165520
C38   C     C_R   0.753463 0.185390 0.095978 -0.162106
C39   C     C_R   0.228522 0.199259 0.904554 -0.165521
C40   C     C_R   0.400217 0.623797 0.090357 -0.121973
C41   C     C_R   0.584597 0.638392 0.909869 -0.133690
C42   C     C_R   0.900217 0.123797 0.090357 -0.121974
C43   C     C_R   0.084597 0.138392 0.909869 -0.133690
C44   C     C_R   0.235978 0.666850 0.997124 0.142348
C45   C     C_R   0.310369 0.637227 0.998089 0.034674
C46   C     C_R   0.740793 0.686810 0.003167 0.149791
C47   C     C_R   0.735978 0.166851 0.997124 0.142348
C48   C     C_R   0.240793 0.186810 0.003167 0.149791
C49   C     C_R   0.602361 0.546650 0.623832 -0.166409
C50   C     C_R   0.605982 0.547026 0.534031 -0.170953
C51   C     C_R   0.102361 0.046650 0.623832 -0.166409
C52   C     C_R   0.105982 0.047026 0.534031 -0.170953
C53   C     C_R   0.595098 0.497866 0.479277 0.141079
C54   C     C_R   0.586196 0.497227 0.657291 0.143293
C55   C     C_R   0.095098 0.997866 0.479277 0.141079
C56   C     C_R   0.667763 0.657947 0.001765 0.042971
C57   C     C_R   0.086196 0.997227 0.657291 0.143293
C58   C     C_R   0.600490 0.447929 0.528310 -0.166717
C59   C     C_R   0.596054 0.447618 0.617388 -0.165807
C60   C     C_R   0.100490 0.947929 0.528310 -0.166717
C61   C     C_R   0.096054 0.947618 0.617388 -0.165807
C62   C     C_R   0.546483 0.453404 0.301192 -0.130796
C63   C     C_R   0.516772 0.452570 0.748246 -0.129308
C64   C     C_R   0.046483 0.953403 0.301192 -0.130796
C65   C     C_R   0.016772 0.952570 0.748246 -0.129308
C66   C     C_R   0.240186 0.544880 0.701249 -0.272995
C67   C     C_R   0.810369 0.137227 0.998089 0.034674
C68   C     C_R   0.768845 0.544192 0.250613 -0.252732
C69   C     C_R   0.740186 0.044880 0.701249 -0.272995
C70   C     C_R   0.268846 0.044192 0.250613 -0.252732
C71   C     C_R   0.547842 0.544611 0.302862 -0.137305
C72   C     C_R   0.512327 0.544096 0.742350 -0.116644
C73   C     C_R   0.047842 0.044611 0.302862 -0.137305
C74   C     C_R   0.012327 0.044096 0.742350 -0.116644
C75   C     C_R   0.242611 0.453885 0.700809 0.511846
C76   C     C_R   0.768578 0.453378 0.251507 0.497966
C77   C     C_R   0.742611 0.953885 0.700809 0.511846
C78   C     C_R   0.167763 0.157947 0.001765 0.042971
C79   C     C_R   0.268578 0.953378 0.251507 0.497966
C80   C     C_R   0.309326 0.624438 0.906849 -0.113088
C81   C     C_R   0.673914 0.639557 0.092471 -0.123903
C82   C     C_R   0.809326 0.124438 0.906849 -0.113088
C83   C     C_R   0.173914 0.139557 0.092471 -0.123903
C84   C     C_R   0.445309 0.348403 0.093554 -0.125604
C85   C     C_R   0.555232 0.347516 0.906904 -0.148007
C86   C     C_R   0.945309 0.848403 0.093554 -0.125605
C87   C     C_R   0.055232 0.847516 0.906904 -0.148007
C88   C     C_R   0.386048 0.316302 0.003130 0.044497
C89   C     C_R   0.562963 0.498750 0.365285 0.047836
C90   C     C_R   0.614398 0.314901 0.996991 0.031813
C91   C     C_R   0.886048 0.816302 0.003130 0.044497
C92   C     C_R   0.114397 0.814901 0.996991 0.031813
H1    H     H_    0.314736 0.333206 0.828026 0.111531
H2    H     H_    0.840631 0.688681 0.181215 0.105155
H3    H     H_    0.635456 0.169970 0.819528 0.107217
H4    H     H_    0.340631 0.188681 0.181215 0.105155
H5    H     H_    0.551192 0.248724 0.819011 0.106703
H6    H     H_    0.443445 0.253534 0.182195 0.105563
H7    H     H_    0.051192 0.748724 0.819011 0.106703
H8    H     H_    0.943445 0.753534 0.182195 0.105563
H9    H     H_    0.726906 0.247599 0.174051 0.114437
H10   H     H_    0.272506 0.249006 0.827344 0.114672
H11   H     H_    0.226906 0.747599 0.174051 0.114437
H12   H     H_    0.675002 0.330576 0.169170 0.093266
H13   H     H_    0.772506 0.749006 0.827344 0.114672
H14   H     H_    0.602988 0.585515 0.659190 0.106978
H15   H     H_    0.608272 0.586166 0.502541 0.109060
H16   H     H_    0.102988 0.085515 0.659190 0.106978
H17   H     H_    0.108272 0.086166 0.502541 0.109060
H18   H     H_    0.598376 0.408951 0.492525 0.106899
H19   H     H_    0.590628 0.408524 0.646533 0.108626
H20   H     H_    0.098376 0.908951 0.492525 0.106899
H21   H     H_    0.090628 0.908524 0.646533 0.108626
H22   H     H_    0.426952 0.628559 0.175302 0.095381
H23   H     H_    0.814736 0.833206 0.828026 0.111531
H24   H     H_    0.550298 0.651642 0.826552 0.086497
H25   H     H_    0.926952 0.128559 0.175302 0.095381
H26   H     H_    0.050298 0.151642 0.826552 0.086497
H27   H     H_    0.562722 0.411132 0.326638 0.083258
H28   H     H_    0.527228 0.409919 0.738842 0.095911
H29   H     H_    0.062722 0.911132 0.326638 0.083258
H30   H     H_    0.027228 0.909918 0.738842 0.095911
H31   H     H_    0.226020 0.586465 0.671002 0.129703
H32   H     H_    0.794272 0.585431 0.269524 0.124648
H33   H     H_    0.726020 0.086465 0.671002 0.129703
H34   H     H_    0.175002 0.830576 0.169170 0.093266
H35   H     H_    0.294272 0.085431 0.269524 0.124648
H36   H     H_    0.565899 0.586390 0.331224 0.087745
H37   H     H_    0.512737 0.585445 0.719160 0.084246
H38   H     H_    0.065899 0.086390 0.331224 0.087745
H39   H     H_    0.012737 0.085445 0.719160 0.084246
H40   H     H_    0.252121 0.630518 0.821886 0.093984
H41   H     H_    0.719978 0.654381 0.175373 0.083709
H42   H     H_    0.752121 0.130518 0.821886 0.093984
H43   H     H_    0.219978 0.154381 0.175373 0.083709
H44   H     H_    0.491198 0.335910 0.178339 0.080634
H45   H     H_    0.955530 0.542701 0.342358 0.126795
H46   H     H_    0.508509 0.334342 0.822612 0.084856
H47   H     H_    0.991198 0.835910 0.178339 0.080634
H48   H     H_    0.008510 0.834342 0.822612 0.084856
H49   H     H_    0.955459 0.417132 0.330733 0.196069
H50   H     H_    0.130164 0.430350 0.470159 0.184709
H51   H     H_    0.455459 0.917132 0.330733 0.196069
H52   H     H_    0.630164 0.930350 0.470159 0.184709
H53   H     H_    0.311039 0.669098 0.174260 0.110427
H54   H     H_    0.669326 0.684159 0.826263 0.106708
H55   H     H_    0.811039 0.169098 0.174260 0.110427
H56   H     H_    0.054413 0.533360 0.518294 0.126844
H57   H     H_    0.169326 0.184159 0.826263 0.106708
H58   H     H_    0.295333 0.385195 0.699125 0.295562
H59   H     H_    0.756178 0.386355 0.305517 0.296621
H60   H     H_    0.795333 0.885195 0.699125 0.295562
H61   H     H_    0.256178 0.886355 0.305517 0.296620
H62   H     H_    0.455530 0.042701 0.342358 0.126795
H63   H     H_    0.554413 0.033360 0.518294 0.126844
H64   H     H_    0.135456 0.669971 0.819528 0.107217
N1    N     N_R   0.395440 0.396300 0.944370 -0.046360
N2    N     N_R   0.474910 0.470990 0.794360 -0.048593
N3    N     N_R   0.025090 0.970990 0.205640 -0.040773
N4    N     N_R   0.974910 0.970990 0.794360 -0.048593
N5    N     N_R   0.320240 0.527820 0.794510 -0.057538
N6    N     N_R   0.679760 0.527820 0.205490 -0.058651
N7    N     N_R   0.820240 0.027820 0.794510 -0.057538
N8    N     N_R   0.179760 0.027820 0.205490 -0.058651
N9    N     N_R   0.524580 0.527810 0.205160 -0.036518
N10   N     N_R   0.475420 0.527810 0.794840 -0.038253
N11   N     N_R   0.024580 0.027810 0.205160 -0.036518
N12   N     N_R   0.604560 0.396300 0.055630 -0.049277
N13   N     N_R   0.975420 0.027810 0.794840 -0.038253
N14   N     N_R   0.320750 0.470990 0.794990 -0.104505
N15   N     N_R   0.679250 0.470990 0.205010 -0.107870
N16   N     N_R   0.820750 0.970990 0.794990 -0.104505
N17   N     N_R   0.179250 0.970990 0.205010 -0.107870
N18   N     N_R   0.393580 0.602500 0.942610 -0.037815
N19   N     N_R   0.606420 0.602500 0.057390 -0.033344
N20   N     N_R   0.893580 0.102500 0.942610 -0.037815
N21   N     N_R   0.106420 0.102500 0.057390 -0.033344
N22   N     N_R   0.451750 0.396300 0.057540 -0.039329
N23   N     N_R   0.895440 0.896300 0.944370 -0.046360
N24   N     N_R   0.548250 0.396300 0.942460 -0.041937
N25   N     N_R   0.951750 0.896300 0.057540 -0.039329
N26   N     N_R   0.048250 0.896300 0.942460 -0.041937
N27   N     N_R   0.104560 0.896300 0.055630 -0.049277
N28   N     N_R   0.449890 0.602500 0.055780 -0.040790
N29   N     N_R   0.550110 0.602500 0.944220 -0.036574
N30   N     N_R   0.949890 0.102500 0.055780 -0.040790
N31   N     N_R   0.050110 0.102500 0.944220 -0.036574
N32   N     N_R   0.525090 0.470990 0.205640 -0.040773
Ni1   Ni    Ni4+2 0.435420 0.434250 0.870220 0.199766
Ni2   Ni    Ni4+2 0.564580 0.434250 0.129780 0.194272
Ni3   Ni    Ni4+2 0.935420 0.934250 0.870220 0.199766
Ni4   Ni    Ni4+2 0.064580 0.934250 0.129780 0.194272
Ni5   Ni    Ni4+2 0.563400 0.564580 0.128670 0.212209
Ni6   Ni    Ni4+2 0.436600 0.564580 0.871330 0.213265
Ni7   Ni    Ni4+2 0.063400 0.064580 0.128670 0.212209
Ni8   Ni    Ni4+2 0.936600 0.064580 0.871330 0.213265
O1    O     O_3   0.231411 0.402264 0.658334 -0.792449
O2    O     O_3   0.801326 0.401736 0.292147 -0.789264
O3    O     O_3   0.731411 0.902264 0.658334 -0.792449
O4    O     O_3   0.301326 0.901736 0.292147 -0.789264

loop_
_geom_bond_atom_site_label_1
_geom_bond_atom_site_label_2
_ccdc_geom_bond_type
C70   H35   S    
C81   H41   S    
C82   H42   S    
C80   H40   S    
C53   C58   A    
N31   Ni8   S    
C79   N17   A    
C87   H48   S    
C73   N11   A    
N27   Ni4   S    
C68   H32   S    
C87   N26   A    
N8    Ni7   S    
C56   C81   A    
H61   O4    S    
C3    C64   A    
C2    C63   A    
C43   C78   A    
N14   Ni1   S    
C49   C54   A    
C30   C35   A    
C24   H6    S    
C81   N19   A    
C12   C90   A    
C35   C37   A    
C12   H12   S    
C86   C91   A    
C77   N16   A    
C15   H56   S    
N22   Ni2   S    
N25   Ni4   S    
C13   H52   S    
C6    C14   S    
N24   Ni1   S    
N28   Ni5   S    
C62   C89   A    
C29   C33   A    
C33   C36   A    
N12   Ni2   S    
N6    Ni5   S    
C27   C90   S    
N32   Ni2   S    
C10   H50   S    
C32   C39   A    
C48   C78   S    
C19   C26   A    
N26   N27   A    
C74   N13   A    
C3    C55   S    
C78   C83   A    
C25   H7    S    
C40   H22   S    
N6    N15   A    
C51   H16   S    
C7    C17   S    
C4    C57   S    
C28   C88   S    
C86   N25   A    
C59   H19   S    
N4    N13   A    
C51   C57   A    
C37   H54   S    
C9    C10   S    
N29   Ni6   S    
H58   O1    S    
C4    C74   A    
C52   C55   A    
C7    C77   A    
C21   C48   A    
C55   C60   A    
C42   N30   A    
C1    C88   A    
C6    C68   A    
C69   H33   S    
C8    C16   S    
C22   H5    S    
C33   H11   S    
C87   C92   A    
H59   O2    S    
C18   C25   A    
N11   Ni7   S    
C65   N4    A    
C2    C72   A    
N3    Ni4   S    
C47   C67   S    
N13   Ni8   S    
N1    Ni1   S    
C54   C59   A    
C75   O1    S    
N16   Ni3   S    
C25   C29   A    
C40   C45   A    
C19   C46   A    
C50   C53   A    
C83   N21   A    
C27   C31   A    
C51   C52   A    
N9    N32   A    
C84   C88   A    
N30   Ni7   S    
C28   C32   A    
C2    C54   S    
N2    Ni1   S    
N18   N28   A    
C9    C14   D    
C9    H49   S    
C5    C66   A    
C43   H26   S    
C58   C59   A    
N12   N24   A    
N7    Ni8   S    
N15   Ni2   S    
C70   N8    A    
C60   C61   A    
C5    C75   A    
C76   N15   A    
C84   N22   A    
C23   N23   A    
C41   C56   A    
N8    N17   A    
C60   H20   S    
C18   C44   A    
N19   N29   A    
C11   C16   D    
C71   C89   A    
C14   H45   S    
C43   N31   A    
C34   H34   S    
C75   N14   A    
C72   H37   S    
C62   H27   S    
C41   N29   A    
C34   N27   A    
C65   H30   S    
N20   Ni8   S    
C57   C61   A    
N7    N16   A    
C77   O3    S    
C38   C47   A    
C19   H2    S    
C86   H47   S    
C4    C65   A    
N5    N14   A    
H60   O3    S    
C20   H3    S    
C82   N20   A    
C6    C76   A    
C22   C27   A    
C53   C89   S    
C42   C67   A    
C32   H10   S    
C71   H36   S    
C36   C44   A    
N10   Ni6   S    
N26   Ni3   S    
C41   H24   S    
C17   H63   S    
C31   H9    S    
C18   H64   S    
C44   C45   S    
N2    N10   A    
C62   N32   A    
C73   H38   S    
C84   H44   S    
C79   O4    S    
N21   Ni7   S    
N18   Ni6   S    
C69   N7    A    
C58   H18   S    
C72   N10   A    
C83   H43   S    
C24   C28   A    
N4    Ni3   S    
C20   C22   A    
C30   C91   S    
N9    Ni5   S    
C12   N12   A    
C85   C90   A    
C42   H25   S    
N20   N30   A    
C49   H14   S    
C21   H4    S    
C68   N6    A    
C39   H57   S    
N17   Ni4   S    
C8    C70   A    
N21   N31   A    
C31   C38   A    
C13   C17   D    
C10   C15   D    
C1    N1    A    
C7    C69   A    
C80   N18   A    
C8    C79   A    
C76   O2    S    
C16   H62   S    
C63   H28   S    
C11   C13   S    
C50   H15   S    
C52   H17   S    
C85   N24   A    
C64   N3    A    
N3    N11   A    
N5    Ni6   S    
C45   C80   A    
C23   C91   A    
N1    N22   A    
C3    C73   A    
C34   C92   A    
C38   H55   S    
C5    C15   S    
C20   C47   A    
C61   H21   S    
C23   H23   S    
C36   H53   S    
N23   Ni3   S    
C66   N5    A    
C67   C82   A    
C1    H1    S    
C49   C50   A    
C71   N9    A    
C21   C24   A    
C46   C56   S    
C66   H31   S    
C35   H13   S    
C63   N2    A    
C40   N28   A    
C37   C46   A    
C74   H39   S    
C11   H51   S    
C85   H46   S    
N19   Ni5   S    
C29   C92   S    
C64   H29   S    
C26   H8    S    
C39   C48   A    
N23   N25   A    
C26   C30   A    
