data_mof_unit_5154.cif
_audit_creation_date              2012-12-10T18:44:22-0500
_audit_creation_method            fapswitch 2.2
_symmetry_space_group_name_H-M    P1
_symmetry_Int_Tables_number       1
_space_group_crystal_system       triclinic
_cell_length_a                    12.79512
_cell_length_b                    10.632559
_cell_length_c                    9.846367
_cell_angle_alpha                 90.17279
_cell_angle_beta                  97.934261
_cell_angle_gamma                 90.087811
_cell_volume                      1326.71574249

loop_
_atom_site_label
_atom_site_type_symbol
_atom_type_description
_atom_site_fract_x
_atom_site_fract_y
_atom_site_fract_z
_atom_type_partial_charge
C1    C     C_R   0.502619 0.260196 0.500161 0.909934
C2    C     C_R   0.497381 0.739804 0.499839 0.909935
C3    C     C_R   0.496850 0.872105 0.500057 -0.104311
C4    C     C_R   0.503156 0.127895 0.499946 -0.104313
C5    C     C_R   0.567433 0.576026 0.084206 -0.025052
C6    C     C_R   0.432567 0.423974 0.915794 -0.025055
C7    C     C_R   0.567420 0.575955 0.940346 -0.024961
C8    C     C_R   0.432579 0.424046 0.059653 -0.024962
C9    C     C_R   0.298198 0.505217 0.472100 0.920747
C10   C     C_R   0.701801 0.494784 0.527900 0.920746
C11   C     C_R   0.814269 0.484907 0.546490 -0.141776
C12   C     C_R   0.185728 0.515099 0.453506 -0.141776
C13   C     C_R   0.023211 0.620257 0.366843 0.150992
C14   C     C_R   0.976785 0.379743 0.633142 0.150992
C15   C     C_R   0.131976 0.605748 0.366697 0.131864
C16   C     C_R   0.868021 0.394258 0.633298 0.131855
C17   C     C_R   0.134234 0.439279 0.537260 -0.235427
C18   C     C_R   0.865763 0.560730 0.462734 -0.235413
C19   C     C_R   0.027946 0.454171 0.542961 0.059868
C20   C     C_R   0.972050 0.545832 0.457027 0.059870
C21   C     C_R   0.574509 0.061889 0.430695 0.177462
C22   C     C_R   0.425499 0.938111 0.569308 0.177462
C23   C     C_R   0.570406 0.932844 0.430876 -0.221109
C24   C     C_R   0.429602 0.067155 0.569129 -0.221105
H1    H     H_    0.820000 0.629669 0.399821 0.180988
H2    H     H_    0.179996 0.370351 0.600182 0.180995
H3    H     H_    0.625815 0.879698 0.379498 0.173139
H4    H     H_    0.374192 0.120300 0.620506 0.173142
H5    H     H_    0.621355 0.636860 0.148487 0.141486
H6    H     H_    0.378645 0.363140 0.851513 0.141485
H7    H     H_    0.621333 0.636668 0.895666 0.146876
H8    H     H_    0.378666 0.363334 0.104333 0.146875
N1    N     N_R   0.499970 0.499970 0.857200 -0.088510
N2    N     N_R   0.500030 0.500030 0.142800 -0.088510
O1    O     O_R   0.499990 0.316750 0.614620 -0.614952
O2    O     O_R   0.500010 0.683250 0.385380 -0.614952
O3    O     O_R   0.499990 0.316780 0.385290 -0.604034
O4    O     O_R   0.500010 0.683220 0.614710 -0.604034
O5    O     O_R   0.346360 0.499970 0.595710 -0.613354
O6    O     O_R   0.653640 0.500030 0.404290 -0.613353
O7    O     O_R   0.346360 0.499990 0.366380 -0.603546
O8    O     O_R   0.653640 0.500010 0.633620 -0.603548
Zn1   Zn    Zn3+2 0.500000 0.499980 0.653120 0.999128
Zn2   Zn    Zn3+2 0.500000 0.500020 0.346880 0.999128
I1    I     I_    0.783736 0.272381 0.754076 -0.208576
I2    I     I_    0.216265 0.727624 0.245939 -0.208585
I3    I     I_    0.938395 0.755543 0.231751 -0.255786
I4    I     I_    0.061597 0.244432 0.768199 -0.255782
I5    I     I_    0.694075 0.148459 0.332462 -0.251090
I6    I     I_    0.305934 0.851545 0.667523 -0.251098

loop_
_geom_bond_atom_site_label_1
_geom_bond_atom_site_label_2
_ccdc_geom_bond_type
C16   I1    S    
C12   C17   A    
C14   I4    S    
C6    N1    A    
C11   C18   A    
C14   C16   A    
C23   H3    S    
C10   O8    A    
O1    Zn1   S    
C11   C16   A    
C2    O4    A    
C3    C23   A    
C19   C20   A    
C13   C20   A    
C12   C15   A    
C1    O3    A    
C22   I6    S    
C1    C4    S    
C5    N2    A    
O3    Zn2   S    
C21   I5    S    
C2    C3    S    
C5    C7    A    
O4    Zn1   S    
C8    N2    A    
C4    C21   A    
C7    N1    A    
C18   H1    S    
C6    C8    A    
C17   H2    S    
C17   C19   A    
C5    H5    S    
C13   C15   A    
C21   C23   A    
C4    C24   A    
O7    Zn2   S    
C22   C24   A    
O2    Zn2   S    
C7    H7    S    
C9    C12   S    
C8    H8    S    
O6    Zn2   S    
N2    Zn2   S    
C1    O1    A    
C18   C20   A    
C10   O6    A    
C10   C11   S    
C2    O2    A    
C13   I3    S    
C3    C22   A    
O5    Zn1   S    
C15   I2    S    
C6    H6    S    
C9    O7    A    
C14   C19   A    
C9    O5    A    
C24   H4    S    
O8    Zn1   S    
N1    Zn1   S    
