data_mof_unit_6317.cif
_audit_creation_date              2012-12-11T14:40:29-0500
_audit_creation_method            fapswitch 2.2
_symmetry_space_group_name_H-M    P1
_symmetry_Int_Tables_number       1
_space_group_crystal_system       triclinic
_cell_length_a                    19.837479
_cell_length_b                    10.89441
_cell_length_c                    19.376686
_cell_angle_alpha                 90.002734
_cell_angle_beta                  96.533365
_cell_angle_gamma                 89.57323
_cell_volume                      4160.33114991

loop_
_atom_site_label
_atom_site_type_symbol
_atom_type_description
_atom_site_fract_x
_atom_site_fract_y
_atom_site_fract_z
_atom_type_partial_charge
C1    C     C_R   0.707600 0.999228 0.366614 0.537149
C2    C     C_3   0.254394 0.401759 0.568019 0.091956
C3    C     C_3   0.820501 0.744032 0.987605 -0.298057
C4    C     C_3   0.238877 0.870070 0.437753 0.081432
C5    C     C_3   0.747553 0.922268 0.572490 0.091196
C6    C     C_3   0.777470 0.538491 0.454168 0.086870
C7    C     C_3   0.296890 0.484858 0.528255 0.110266
C8    C     C_3   0.263111 0.999256 0.453889 0.117061
C9    C     C_3   0.782631 0.022642 0.536670 0.106924
C10   C     C_3   0.830979 0.477958 0.507424 -0.113138
C11   C     C_3   0.231479 0.531176 0.485509 -0.122911
C12   C     C_3   0.320691 0.950080 0.506240 -0.108285
C13   C     C_R   0.291112 0.995958 0.632677 0.546545
C14   C     C_3   0.713023 0.065393 0.499575 -0.148960
C15   C     C_3   0.803500 0.351050 0.483989 -0.118320
C16   C     C_3   0.188647 0.443920 0.525686 -0.141638
C17   C     C_3   0.295852 0.818475 0.490245 -0.133012
C18   C     C_3   0.677890 0.960638 0.536185 -0.138791
C19   C     C_3   0.750957 0.355194 0.536829 -0.125938
C20   C     C_3   0.197331 0.339505 0.473531 -0.126939
C21   C     C_3   0.246666 0.825976 0.546495 -0.124956
C22   C     C_3   0.688798 0.870604 0.476944 -0.125303
C23   C     C_3   0.778318 0.480969 0.559901 0.025814
C24   C     C_R   0.224871 0.452292 0.360771 0.544294
C25   C     C_3   0.239899 0.425397 0.433823 0.032992
C26   C     C_3   0.271389 0.957076 0.561820 0.031185
C27   C     C_3   0.723375 0.973742 0.440806 0.026456
C28   C     C_3   0.516044 0.270148 0.966641 0.110693
C29   C     C_3   0.482715 0.269232 0.033752 0.110955
C30   C     C_3   0.016045 0.770148 0.966642 0.110535
C31   C     C_3   0.982714 0.769232 0.033752 0.110903
C32   C     C_3   0.566111 0.170303 0.994558 0.115351
C33   C     C_3   0.434097 0.168700 0.005476 0.115707
C34   C     C_3   0.066112 0.670302 0.994560 0.115434
C35   C     C_R   0.793711 0.503529 0.634107 0.557706
C36   C     C_3   0.934096 0.668700 0.005475 0.115649
C37   C     C_3   0.534595 0.171087 0.064010 0.026216
C38   C     C_3   0.465614 0.171248 0.936039 0.027936
C39   C     C_3   0.034593 0.671087 0.064011 0.026388
C40   C     C_3   0.965616 0.671248 0.936039 0.027753
C41   C     C_R   0.565281 0.183651 0.348113 0.540845
C42   C     C_R   0.466516 0.179691 0.663240 0.551627
C43   C     C_R   0.065090 0.683481 0.348127 0.542005
C44   C     C_R   0.966529 0.679646 0.663263 0.549889
C45   C     C_3   0.485221 0.070669 0.034183 0.082583
C46   C     C_3   0.698489 0.417767 0.483077 -0.147787
C47   C     C_3   0.516428 0.071553 0.965553 0.082022
C48   C     C_3   0.985220 0.570669 0.034183 0.082689
C49   C     C_3   0.016429 0.571553 0.965554 0.082004
C50   C     C_1   0.782997 0.479373 0.916541 -0.003531
C51   C     C_1   0.216868 0.479289 0.083517 -0.003799
C52   C     C_1   0.282995 0.979368 0.916543 -0.003765
C53   C     C_1   0.716865 0.979295 0.083516 -0.004923
C54   C     C_1   0.766162 0.457002 0.048551 -0.039162
C55   C     C_1   0.233355 0.456998 0.951422 -0.037962
C56   C     C_1   0.266163 0.957004 0.048557 -0.039889
C57   C     C_3   0.263962 0.297758 0.516461 -0.135197
C58   C     C_1   0.733354 0.957002 0.951421 -0.037810
C59   C     C_1   0.775111 0.469837 0.977248 -0.025507
C60   C     C_1   0.224537 0.469946 0.022749 -0.025382
C61   C     C_1   0.275110 0.969833 0.977252 -0.025222
C62   C     C_1   0.724535 0.969952 0.022748 -0.025286
C63   C     C_1   0.754647 0.428386 0.106298 -0.006470
C64   C     C_1   0.244919 0.428170 0.893687 -0.009035
C65   C     C_1   0.254651 0.928396 0.106308 -0.008655
C66   C     C_1   0.744918 0.928172 0.893687 -0.008965
C67   C     C_R   0.739284 0.364493 0.361285 0.566971
C68   C     C_3   0.189688 0.877768 0.493017 -0.161796
C69   C     C_R   0.260648 0.365293 0.639419 0.543301
C70   C     C_R   0.226922 0.818990 0.368826 0.542890
C71   C     C_R   0.759451 0.868823 0.640993 0.543661
C72   C     C_R   0.705392 0.997076 0.154823 0.538668
C73   C     C_R   0.294659 0.997562 0.845327 0.538730
C74   C     C_R   0.205393 0.497072 0.154822 0.536436
C75   C     C_R   0.794661 0.497566 0.845326 0.538845
C76   C     C_R   0.562268 0.181803 0.136035 0.542324
C77   C     C_R   0.437902 0.182178 0.864011 0.540260
C78   C     C_R   0.062267 0.681803 0.136035 0.541765
C79   C     C_3   0.759209 0.833843 0.513754 -0.140463
C80   C     C_R   0.937903 0.682178 0.864011 0.540856
C81   C     C_R   0.738731 0.369187 0.168782 0.537097
C82   C     C_R   0.261148 0.368804 0.831258 0.522219
C83   C     C_R   0.238737 0.869209 0.168798 0.547466
C84   C     C_R   0.761148 0.868803 0.831259 0.521495
C85   C     C_1   0.497294 0.171354 0.600468 -0.010985
C86   C     C_1   0.548203 0.176113 0.417452 -0.021840
C87   C     C_1   0.997135 0.671017 0.600422 -0.012801
C88   C     C_1   0.047627 0.675196 0.417276 -0.017807
C89   C     C_1   0.534617 0.171434 0.476160 -0.057023
C90   C     C_3   0.750931 0.414348 0.430751 0.091314
C91   C     C_1   0.516846 0.169232 0.544137 -0.054992
C92   C     C_1   0.033961 0.670045 0.475939 -0.059536
C93   C     C_1   0.016448 0.668280 0.543999 -0.057605
C94   C     C_3   0.724922 0.545404 0.507242 -0.124842
C95   C     C_3   0.306481 0.383416 0.475580 -0.110025
C96   C     C_3   0.213893 0.010388 0.509557 -0.122206
C97   C     C_3   0.793953 0.936091 0.476924 -0.082358
C98   C     C_3   0.678908 0.246343 0.013216 -0.298356
C99   C     C_3   0.320501 0.244029 0.987608 -0.298323
C100  C     C_3   0.178907 0.746343 0.013234 -0.298539
Cr1   Cr    Cr6+3 0.765830 0.160660 0.268180 1.026690
Cr2   Cr    Cr6+3 0.384070 0.324050 0.751550 1.028404
Cr3   Cr    Cr6+3 0.115930 0.824050 0.248450 1.017369
Cr4   Cr    Cr6+3 0.884070 0.824050 0.751550 1.026643
Cr5   Cr    Cr6+3 0.234170 0.160660 0.731820 1.025808
Cr6   Cr    Cr6+3 0.265830 0.660660 0.268180 1.025020
Cr7   Cr    Cr6+3 0.734170 0.660660 0.731820 1.023848
Cr8   Cr    Cr6+3 0.612110 0.009150 0.248770 1.035703
Cr9   Cr    Cr6+3 0.387890 0.009150 0.751230 1.028792
Cr10  Cr    Cr6+3 0.112110 0.509150 0.248770 1.034236
Cr11  Cr    Cr6+3 0.887890 0.509150 0.751230 1.027843
Cr12  Cr    Cr6+3 0.615930 0.324050 0.248450 1.011755
H1    H     H_    0.644359 0.391920 0.471519 0.121952
H2    H     H_    0.690717 0.157137 0.487841 0.092127
H3    H     H_    0.885069 0.504240 0.518559 0.119332
H4    H     H_    0.214892 0.624113 0.468380 0.088059
H5    H     H_    0.835604 0.273501 0.470326 0.134626
H6    H     H_    0.141342 0.469494 0.547938 0.126281
H7    H     H_    0.328936 0.741968 0.477352 0.130059
H8    H     H_    0.631246 0.970244 0.562458 0.130801
H9    H     H_    0.736924 0.286180 0.574471 0.130971
H10   H     H_    0.156579 0.278569 0.449624 0.127674
H11   H     H_    0.239089 0.756300 0.586622 0.132443
H12   H     H_    0.282666 0.206743 0.534884 0.102857
H13   H     H_    0.650268 0.806830 0.451491 0.135146
H14   H     H_    0.747859 0.683639 0.391127 0.250189
H15   H     H_    0.829977 0.687927 0.426262 0.230880
H16   H     H_    0.384125 0.583054 0.526765 0.225427
H17   H     H_    0.334263 0.629500 0.587886 0.233174
H18   H     H_    0.226320 0.134464 0.386826 0.237158
H19   H     H_    0.309351 0.148327 0.416836 0.222123
H20   H     H_    0.867931 0.129899 0.542214 0.226119
H21   H     H_    0.817855 0.155450 0.607072 0.243416
H22   H     H_    0.636434 0.161969 0.923963 0.279782
H23   H     H_    0.136090 0.848287 0.486228 0.119076
H24   H     H_    0.730307 0.233049 0.996878 0.158810
H25   H     H_    0.681264 0.227560 0.069502 0.140035
H26   H     H_    0.659980 0.340868 0.001414 0.183733
H27   H     H_    0.363896 0.156869 0.075921 0.283154
H28   H     H_    0.269336 0.230708 0.004275 0.158609
H29   H     H_    0.317907 0.226572 0.931183 0.140878
H30   H     H_    0.338815 0.338202 0.999921 0.184869
H31   H     H_    0.136443 0.661977 0.923975 0.279812
H32   H     H_    0.230309 0.733052 0.996901 0.158821
H33   H     H_    0.181260 0.727554 0.069519 0.139223
H34   H     H_    0.785404 0.746185 0.526979 0.107193
H35   H     H_    0.159978 0.840868 0.001435 0.183615
H36   H     H_    0.863895 0.656870 0.075918 0.283540
H37   H     H_    0.769335 0.730711 0.004270 0.158771
H38   H     H_    0.817908 0.726575 0.931181 0.140940
H39   H     H_    0.838815 0.838204 0.999919 0.184986
H40   H     H_    0.495318 0.440364 0.923615 0.267385
H41   H     H_    0.561950 0.365759 0.893747 0.259829
H42   H     H_    0.500945 0.439524 0.076975 0.267853
H43   H     H_    0.435999 0.362491 0.107416 0.262426
H44   H     H_    0.995321 0.940363 0.923615 0.267467
H45   H     H_    0.690464 0.620985 0.519169 0.128784
H46   H     H_    0.061953 0.865756 0.893748 0.259874
H47   H     H_    0.000944 0.939524 0.076975 0.267686
H48   H     H_    0.935999 0.862491 0.107415 0.263184
H49   H     H_    0.510569 0.903940 0.077016 0.237008
H50   H     H_    0.431634 0.912499 0.035768 0.235737
H51   H     H_    0.493457 0.905061 0.922063 0.237405
H52   H     H_    0.572194 0.914511 0.963453 0.235912
H53   H     H_    0.010567 0.403940 0.077017 0.237065
H54   H     H_    0.931633 0.412499 0.035767 0.235717
H55   H     H_    0.993459 0.405062 0.922062 0.237468
H56   H     H_    0.354151 0.358935 0.453716 0.119400
H57   H     H_    0.072194 0.414509 0.963457 0.235920
H58   H     H_    0.179852 0.088156 0.519207 0.125100
H59   H     H_    0.841109 0.926388 0.451490 0.130248
H60   H     H_    0.374054 0.982057 0.512785 0.115908
N1    N     N_3   0.791720 0.630790 0.403436 -0.609368
N2    N     N_3   0.459139 0.383325 0.063073 -0.618914
N3    N     N_3   0.037996 0.885291 0.937834 -0.618934
N4    N     N_3   0.959138 0.883325 0.063073 -0.618723
N5    N     N_3   0.467210 0.959584 0.069650 -0.577409
N6    N     N_3   0.536030 0.961463 0.929693 -0.581614
N7    N     N_3   0.967208 0.459585 0.069650 -0.577579
N8    N     N_3   0.036032 0.461462 0.929695 -0.581371
N9    N     N_3   0.353366 0.553478 0.563656 -0.600885
N10   N     N_3   0.271835 0.086119 0.398456 -0.583019
N11   N     N_3   0.837676 0.089222 0.576145 -0.607225
N12   N     N_2   0.633938 0.162003 0.976857 -0.518886
N13   N     N_2   0.366343 0.158726 0.023030 -0.518513
N14   N     N_2   0.133941 0.662006 0.976868 -0.518632
N15   N     N_2   0.866342 0.658728 0.023028 -0.518553
N16   N     N_3   0.537993 0.385292 0.937833 -0.618880
O1    O     O_R   0.783230 0.287800 0.346510 -0.523675
O2    O     O_R   0.454570 0.285140 0.836900 -0.522838
O3    O     O_R   0.045430 0.785140 0.163100 -0.516661
O4    O     O_R   0.954570 0.785140 0.836900 -0.522186
O5    O     O_R   0.677850 0.374730 0.185500 -0.512603
O6    O     O_R   0.322150 0.374730 0.814500 -0.515189
O7    O     O_R   0.177850 0.874730 0.185500 -0.510566
O8    O     O_R   0.822150 0.874730 0.814500 -0.514683
O9    O     O_3   0.664630 0.164620 0.255130 -0.342424
O10   O     O_3   0.335370 0.164620 0.744870 -0.320162
O11   O     O_3   0.164630 0.664620 0.255130 -0.341528
O12   O     O_R   0.216770 0.287800 0.653490 -0.529453
O13   O     O_3   0.835370 0.664620 0.744870 -0.324162
O14   O     O_R   0.760130 0.037060 0.338610 -0.490507
O15   O     O_R   0.239870 0.037060 0.661390 -0.486314
O16   O     O_R   0.260130 0.537060 0.338610 -0.513831
O17   O     O_R   0.739870 0.537060 0.661390 -0.486139
O18   O     O_R   0.666620 0.921370 0.332440 -0.510556
O19   O     O_R   0.333380 0.921370 0.667560 -0.503737
O20   O     O_R   0.166620 0.421370 0.332440 -0.517235
O21   O     O_R   0.833380 0.421370 0.667560 -0.507124
O22   O     O_R   0.557170 0.082420 0.312350 -0.483155
O23   O     O_R   0.283230 0.787800 0.346510 -0.491894
O24   O     O_R   0.442830 0.082420 0.687650 -0.507606
O25   O     O_R   0.057170 0.582420 0.312350 -0.469974
O26   O     O_R   0.942830 0.582420 0.687650 -0.509264
O27   O     O_R   0.548310 0.285980 0.316250 -0.490090
O28   O     O_R   0.451690 0.285980 0.683750 -0.484449
O29   O     O_R   0.048310 0.785980 0.316250 -0.495216
O30   O     O_R   0.951690 0.785980 0.683750 -0.487857
O31   O     O_R   0.680520 0.375500 0.327470 -0.518205
O32   O     O_R   0.319480 0.375500 0.672530 -0.473712
O33   O     O_R   0.180520 0.875500 0.327470 -0.493613
O34   O     O_R   0.716770 0.787800 0.653490 -0.533182
O35   O     O_R   0.819480 0.875500 0.672530 -0.474098
O36   O     O_R   0.780350 0.286970 0.193350 -0.501771
O37   O     O_R   0.219650 0.286970 0.806650 -0.506947
O38   O     O_R   0.280350 0.786970 0.193350 -0.497907
O39   O     O_R   0.719650 0.786970 0.806650 -0.507615
O40   O     O_R   0.757460 0.036290 0.196640 -0.476599
O41   O     O_R   0.242540 0.036290 0.803360 -0.479593
O42   O     O_R   0.257460 0.536290 0.196640 -0.484225
O43   O     O_R   0.742540 0.536290 0.803360 -0.479676
O44   O     O_R   0.663740 0.920540 0.179290 -0.501544
O45   O     O_R   0.554500 0.081650 0.170370 -0.473369
O46   O     O_R   0.336260 0.920540 0.820710 -0.504005
O47   O     O_R   0.163740 0.420540 0.179290 -0.506517
O48   O     O_R   0.836260 0.420540 0.820710 -0.503990
O49   O     O_R   0.445500 0.081650 0.829630 -0.483710
O50   O     O_R   0.054500 0.581650 0.170370 -0.472406
O51   O     O_R   0.945500 0.581650 0.829630 -0.483293
O52   O     O_R   0.545430 0.285140 0.163100 -0.515822

loop_
_geom_bond_atom_site_label_1
_geom_bond_atom_site_label_2
_ccdc_geom_bond_type
H15   N1    S    
Cr6   O38   S    
C21   C26   S    
H44   N3    S    
C58   C62   S    
C98   H24   S    
C34   C49   S    
C69   O32   A    
C33   C45   S    
C14   C18   S    
C99   H30   S    
C19   C23   S    
C2    C7    S    
C8    C96   S    
Cr11  O26   S    
C29   N2    S    
C74   O42   A    
C95   H56   S    
Cr11  O13   S    
C4    C70   S    
C76   O52   A    
C85   C91   T    
C19   C46   S    
H52   N6    S    
C12   H60   S    
H36   N15   S    
C15   C19   S    
C41   C86   S    
H54   N7    S    
C68   C96   S    
C98   H26   S    
Cr1   O40   S    
C44   O26   A    
C77   O2    A    
C80   O51   A    
C28   C29   S    
C22   C79   S    
Cr7   O13   S    
C47   N6    S    
Cr1   O1    S    
C52   C61   T    
C28   N16   S    
H20   N11   S    
C30   C31   S    
C41   O27   A    
H19   N10   S    
Cr1   O9    S    
C65   C83   S    
C20   C25   S    
C11   C25   S    
C100  H35   S    
C16   C20   S    
C40   C49   S    
Cr4   O4    S    
C29   C33   S    
C70   O33   A    
H41   N16   S    
Cr9   O19   S    
C11   C16   S    
Cr12  O27   S    
Cr8   O9    S    
C34   N14   S    
C92   C93   S    
H50   N5    S    
Cr2   O2    S    
C17   H7    S    
H21   N11   S    
Cr5   O12   S    
C24   O16   A    
C88   C92   T    
C6    C94   S    
Cr7   O39   S    
C12   C17   S    
C69   O12   A    
C51   C74   S    
C98   N12   S    
C76   O45   A    
Cr5   O37   S    
C14   C27   S    
C5    C79   S    
C2    C69   S    
C2    C16   S    
Cr4   O35   S    
C20   H10   S    
C4    C8    S    
C54   C59   S    
C49   N8    S    
Cr9   O46   S    
H55   N8    S    
C19   H9    S    
C78   O50   A    
C71   O34   A    
C96   H58   S    
C55   C60   S    
C77   O49   A    
C70   O23   A    
H48   N4    S    
Cr9   O10   S    
C43   O29   A    
Cr3   O7    S    
C81   O5    A    
C42   O28   A    
C43   C88   S    
C1    O14   A    
Cr2   O6    S    
C82   O6    A    
C73   O41   A    
C58   C66   T    
C7    C11   S    
C79   H34   S    
C31   N4    S    
C45   C47   S    
C26   C96   S    
C82   O37   A    
Cr9   O49   S    
C2    C57   S    
C3    H37   S    
Cr7   O43   S    
C30   C34   S    
C98   H25   S    
C30   C40   S    
C34   C39   S    
C72   O40   A    
C39   C78   S    
C36   C40   S    
Cr10  O25   S    
C71   O35   A    
C24   C25   S    
Cr8   O18   S    
C52   C73   S    
C100  H32   S    
C14   H2    S    
C4    C68   S    
C7    N9    S    
C22   H13   S    
C5    C18   S    
Cr12  O52   S    
C6    C90   S    
Cr6   O16   S    
C24   O20   A    
C67   C90   S    
Cr11  O51   S    
C15   H5    S    
C12   C26   S    
Cr5   O41   S    
Cr12  O9    S    
C21   H11   S    
C100  N14   S    
C9    C14   S    
Cr11  O21   S    
C5    C9    S    
C9    N11   S    
C16   H6    S    
C53   C62   T    
C8    N10   S    
C46   C94   S    
C28   C32   S    
C100  H33   S    
C8    C12   S    
Cr4   O30   S    
C55   C64   T    
H51   N6    S    
C40   C80   S    
Cr11  O48   S    
Cr4   O8    S    
C44   O30   A    
C75   O48   A    
C56   C61   S    
C42   C85   S    
Cr3   O11   S    
C32   C37   S    
C75   O43   A    
C1    O18   A    
C64   C82   S    
C73   O46   A    
H14   N1    S    
C10   H3    S    
Cr3   O29   S    
C32   N12   S    
C4    C17   S    
H43   N2    S    
Cr2   O28   S    
Cr5   O10   S    
C6    N1    S    
C37   C76   S    
C63   C81   S    
C25   C95   S    
C94   H45   S    
C23   C35   S    
H47   N4    S    
C21   C68   S    
H18   N10   S    
C22   C27   S    
H53   N7    S    
C32   C47   S    
C13   C26   S    
C89   C91   S    
C41   O22   A    
C37   C45   S    
C44   C87   S    
C18   H8    S    
C30   N3    S    
C99   N13   S    
C42   O24   A    
Cr10  O47   S    
Cr1   O36   S    
C74   O47   A    
Cr8   O44   S    
C57   C95   S    
C20   C57   S    
C81   O36   A    
H17   N9    S    
Cr8   O45   S    
C27   C97   S    
C3    H38   S    
C9    C97   S    
H57   N8    S    
C46   H1    S    
Cr10  O11   S    
C18   C22   S    
Cr10  O20   S    
C99   H29   S    
C68   H23   S    
H16   N9    S    
H22   N12   S    
C86   C89   T    
C3    N15   S    
C6    C10   S    
Cr8   O22   S    
Cr10  O50   S    
C79   C97   S    
C46   C90   S    
C38   C77   S    
C45   N5    S    
C10   C23   S    
C7    C95   S    
C78   O3    A    
C3    H39   S    
C33   C38   S    
C97   H59   S    
C23   C94   S    
C38   C47   S    
C10   C15   S    
C36   N15   S    
Cr4   O13   S    
Cr7   O34   S    
Cr9   O24   S    
Cr2   O10   S    
C50   C59   T    
C35   O21   A    
Cr2   O32   S    
C11   H4    S    
C50   C75   S    
Cr3   O33   S    
C15   C90   S    
C53   C72   S    
C84   O8    A    
C48   C49   S    
Cr6   O23   S    
C87   C93   T    
C67   O31   A    
Cr1   O14   S    
H31   N14   S    
Cr12  O31   S    
C31   C39   S    
C36   C48   S    
C35   O17   A    
C83   O7    A    
C99   H28   S    
C17   C21   S    
Cr12  O5    S    
Cr7   O17   S    
Cr5   O15   S    
C13   O19   A    
C80   O4    A    
C66   C84   S    
H40   N16   S    
Cr6   O42   S    
H46   N3    S    
H42   N2    S    
Cr3   O3    S    
C5    C71   S    
C54   C63   T    
C29   C37   S    
C67   O1    A    
C1    C27   S    
C31   C36   S    
Cr6   O11   S    
C33   N13   S    
C51   C60   T    
C28   C38   S    
H27   N13   S    
C84   O39   A    
H49   N5    S    
C48   N7    S    
C72   O44   A    
C56   C65   T    
C13   O15   A    
C39   C48   S    
C57   H12   S    
C83   O38   A    
C43   O25   A    
