data_mof_unit_53012.cif
_audit_creation_date              2013-03-05T16:48:14-0500
_audit_creation_method            fapswitch 2.2
_symmetry_space_group_name_H-M    P1
_symmetry_Int_Tables_number       1
_space_group_crystal_system       triclinic
_cell_length_a                    23.550786
_cell_length_b                    8.915435
_cell_length_c                    8.086839
_cell_angle_alpha                 90.451101
_cell_angle_beta                  90.010561
_cell_angle_gamma                 89.563052
_cell_volume                      1697.85519611

loop_
_atom_site_label
_atom_site_type_symbol
_atom_site_description
_atom_site_fract_x
_atom_site_fract_y
_atom_site_fract_z
_atom_type_partial_charge
O1    O     O_R   0.500000 0.285350 0.636850 -0.595347
O2    O     O_R   0.500000 0.714650 0.363150 -0.626145
O3    O     O_R   0.500000 0.714650 0.636850 -0.592561
O4    O     O_R   0.500000 0.285350 0.363150 -0.626648
C1    C     C_R   0.500056 0.217946 0.499584 0.967065
C2    C     C_R   0.499927 0.782052 0.500413 0.947818
O5    O     O_R   0.416160 0.500000 0.636910 -0.600744
O6    O     O_R   0.583840 0.500000 0.363090 -0.633381
O7    O     O_R   0.583840 0.500000 0.636910 -0.597007
O8    O     O_R   0.416160 0.500000 0.363090 -0.628485
C3    C     C_R   0.208705 0.532558 0.498817 0.147558
C4    C     C_R   0.793087 0.490862 0.499569 0.113815
C5    C     C_R   0.389157 0.501902 0.499933 0.900636
C6    C     C_R   0.611176 0.499199 0.499944 0.889211
Zn1   Zn    Zn3+2 0.500000 0.500000 0.682780 1.063078
Zn2   Zn    Zn3+2 0.500000 0.500000 0.317220 1.024899
C7    C     C_R   0.299600 0.613756 0.391425 -0.116347
C8    C     C_R   0.703731 0.432572 0.362997 -0.110310
C9    C     C_R   0.295224 0.421216 0.608807 -0.065787
C10   C     C_R   0.704342 0.556633 0.636513 -0.059754
C11   C     C_R   0.327017 0.511592 0.499564 -0.176526
C12   C     C_R   0.673962 0.496429 0.499686 -0.196097
C13   C     C_R   0.879525 0.634235 0.519901 0.500325
C14   C     C_R   0.122400 0.415504 0.411905 0.497104
C15   C     C_R   0.885302 0.371457 0.467140 0.507654
C16   C     C_R   0.118357 0.648813 0.559251 0.471402
N1    N     N_R   0.854085 0.498578 0.495869 -0.370734
N2    N     N_R   0.148051 0.533339 0.488750 -0.365760
C17   C     C_R   0.944026 0.381283 0.441418 -0.050979
C18   C     C_R   0.058625 0.650941 0.552574 -0.084201
C19   C     C_R   0.938813 0.642313 0.536993 -0.088937
C20   C     C_R   0.062993 0.402669 0.414820 -0.058799
C21   C     C_R   0.971371 0.515872 0.487304 -0.073665
C22   C     C_R   0.031065 0.523327 0.484636 -0.058702
C23   C     C_R   0.975470 0.262468 0.369571 0.125805
C24   C     C_R   0.025492 0.773479 0.613838 0.106932
C25   C     C_R   0.966309 0.770100 0.603488 0.091151
C26   C     C_R   0.034406 0.274151 0.351969 0.039794
C27   C     C_1   0.499981 0.065204 0.499403 -0.134891
C28   C     C_1   0.499934 0.934790 0.500591 -0.140883
C29   C     C_R   0.239908 0.624103 0.391637 0.003959
C30   C     C_R   0.763394 0.441701 0.357747 0.016320
C31   C     C_R   0.235607 0.433659 0.609661 -0.022803
C32   C     C_R   0.763758 0.539133 0.642875 0.004916
N3    N     N_1   0.500000 0.500000 0.073640 -0.016673
N4    N     N_1   0.500000 0.500000 0.926360 -0.011687
O9    O     O_2   0.847093 0.759417 0.526779 -0.519672
O10   O     O_2   0.155211 0.311253 0.335988 -0.538049
O11   O     O_2   0.859261 0.237153 0.463040 -0.495794
O12   O     O_2   0.147329 0.759385 0.635375 -0.545665
N5    N     N_3   0.947120 0.133282 0.302943 -0.362361
H1    H     H_    0.954121 0.129546 0.175285 0.208596
H2    H     H_    0.965286 0.037014 0.354310 0.204696
N6    N     N_3   0.050153 0.905040 0.687012 -0.413602
H3    H     H_    0.076934 0.956170 0.601706 0.235367
H4    H     H_    0.072216 0.875471 0.794208 0.246203
N7    N     N_3   0.935444 0.893879 0.675831 -0.407726
H5    H     H_    0.907210 0.853592 0.764528 0.241572
H6    H     H_    0.913460 0.951949 0.584050 0.273284
N8    N     N_3   0.063455 0.151853 0.270977 -0.457547
H7    H     H_    0.092197 0.102175 0.352711 0.251473
H8    H     H_    0.084014 0.191031 0.165423 0.251076
C33   C     C_2   0.208505 0.730974 0.283529 0.561462
H9    H     H_    0.167770 0.699787 0.231334 0.030646
O13   O     O_2   0.226232 0.857125 0.258562 -0.488438
C34   C     C_2   0.796148 0.400742 0.206268 0.560467
H10   H     H_    0.831284 0.470466 0.167933 0.034284
O14   O     O_2   0.786660 0.285253 0.129341 -0.504383
C35   C     C_2   0.199476 0.342367 0.721688 0.430233
H11   H     H_    0.159009 0.386806 0.764631 0.067529
O15   O     O_2   0.212948 0.215104 0.761213 -0.518298
C36   C     C_2   0.797154 0.572309 0.795695 0.445747
H12   H     H_    0.835336 0.507564 0.821263 0.064294
O16   O     O_2   0.784480 0.675054 0.889573 -0.563172
C37   C     C_2   0.333794 0.709083 0.279183 0.561334
H13   H     H_    0.371403 0.765144 0.325466 0.045106
O17   O     O_2   0.321578 0.720553 0.133040 -0.527267
C38   C     C_2   0.672332 0.353382 0.228971 0.563811
H14   H     H_    0.640433 0.271182 0.260637 0.057194
O18   O     O_2   0.679957 0.383352 0.083744 -0.573320
C39   C     C_2   0.323797 0.313310 0.721684 0.558363
H15   H     H_    0.310627 0.306277 0.849953 0.100851
O19   O     O_2   0.360860 0.228203 0.670913 -0.556127
C40   C     C_2   0.674780 0.642625 0.769647 0.577729
H16   H     H_    0.682373 0.617137 0.898476 0.136933
O20   O     O_2   0.642857 0.746466 0.735545 -0.552417

loop_
_geom_bond_atom_site_label_1
_geom_bond_atom_site_label_2
_geom_bond_distance
_ccdc_geom_bond_type
C34   O14   1.220836 D    
C33   O13   1.220956 D    
O7    C6    1.281177 A    
O3    C2    1.260517 A    
C39   H15   1.085152 S    
N3    N4    1.191029 T    
O1    C1    1.258099 A    
C24   C25   1.396835 A    
C9    C11   1.418079 A    
C40   O20   1.221344 D    
C16   O12   1.347912 S    
C38   O18   1.220109 D    
N7    H6    1.043466 S    
C17   C21   1.413129 A    
N8    H8    1.045229 S    
C35   O15   1.220806 D    
C4    C30   1.411713 A    
C10   C32   1.407744 A    
C32   C36   1.493579 S    
C19   C21   1.414193 A    
C3    C31   1.409278 A    
O1    Zn1   1.946537 S    
C20   C26   1.423699 A    
O2    Zn2   1.946537 S    
O5    Zn1   2.008975 S    
C34   H10   1.085461 S    
O6    Zn2   2.008973 S    
O2    C2    1.258070 A    
C39   O19   1.221188 D    
C9    C31   1.407566 A    
C15   O11   1.349632 S    
C15   C17   1.402092 A    
N6    H4    1.045139 S    
C13   O9    1.348360 S    
C18   C22   1.420859 A    
C4    N1    1.439037 S    
N5    H1    1.045701 S    
C14   O10   1.348370 S    
C23   C26   1.400058 A    
C40   H16   1.082612 S    
C36   O16   1.220449 D    
C27   C28   1.162822 T    
C38   H14   1.085572 S    
O4    C1    1.260503 A    
C10   C40   1.486862 S    
C7    C11   1.419389 A    
C19   C25   1.417013 A    
N8    H7    1.044555 S    
N5    H2    1.045066 S    
C13   C19   1.405427 A    
O4    Zn2   1.952279 S    
C37   H13   1.085392 S    
C14   C20   1.404843 A    
C8    C38   1.488494 S    
C21   C22   1.408078 A    
C5    C11   1.465330 S    
C37   O17   1.221188 D    
C26   N8    1.436445 S    
C10   C12   1.421464 A    
C16   C18   1.407753 A    
C13   N1    1.366302 A    
C1    C27   1.361762 S    
C23   N5    1.436812 S    
C2    C28   1.361718 S    
C29   C33   1.490382 S    
O3    Zn1   1.952278 S    
C30   C34   1.489282 S    
N6    H3    1.044511 S    
O6    C6    1.280287 A    
C8    C12   1.421900 A    
C14   N2    1.361622 A    
C36   H12   1.085560 S    
O8    C5    1.276380 A    
Zn2   N3    1.969792 S    
C15   N1    1.364596 A    
C17   C23   1.409458 A    
C16   N2    1.361581 A    
C18   C24   1.423541 A    
C6    C12   1.478665 S    
C8    C30   1.408754 A    
O7    Zn1   2.009107 S    
C4    C32   1.411837 A    
O8    Zn2   2.009109 S    
N7    H5    1.045712 S    
C3    N2    1.430712 S    
C3    C29   1.406386 A    
C35   H11   1.085358 S    
C7    C29   1.408101 A    
C24   N6    1.436153 S    
C33   H9    1.085297 S    
O5    C5    1.277346 A    
C31   C35   1.493223 S    
C7    C37   1.489151 S    
Zn1   N4    1.969792 S    
C9    C39   1.488379 S    
C25   N7    1.437424 S    
C20   C22   1.421133 A    
