data_mof_unit_67030.cif
_audit_creation_date              2013-03-05T15:58:15-0500
_audit_creation_method            fapswitch 2.2
_symmetry_space_group_name_H-M    P1
_symmetry_Int_Tables_number       1
_space_group_crystal_system       triclinic
_cell_length_a                    8.27862
_cell_length_b                    12.692598
_cell_length_c                    14.25599
_cell_angle_alpha                 93.33205
_cell_angle_beta                  90.880633
_cell_angle_gamma                 98.090697
_cell_volume                      1480.14183733

loop_
_atom_site_label
_atom_site_type_symbol
_atom_site_description
_atom_site_fract_x
_atom_site_fract_y
_atom_site_fract_z
_atom_type_partial_charge
P1    P     P_3+3 0.054400 0.427280 0.286870 0.463277
O1    O     O_2   0.887370 0.460630 0.272300 -0.371708
O2    O     O_3   0.129410 0.451380 0.388510 -0.382712
O3    O     O_3   0.670210 0.653170 0.329170 -0.350584
O4    O     O_2   0.766559 0.572968 0.165546 -0.397164
O5    O     O_3   0.022309 0.289017 0.262511 -0.570355
O6    O     O_3   0.730147 0.770556 0.157940 -0.519131
C1    C     C_3   0.663314 0.942102 0.115738 -1.022503
H1    H     H_    0.669532 0.022849 0.153621 0.226649
H2    H     H_    0.779214 0.940376 0.076864 0.273382
P2    P     P_3+3 0.668300 0.742890 0.573060 0.488843
P3    P     P_3+3 0.148658 0.842265 0.378591 0.512920
O7    O     O_2   0.845380 0.761330 0.544970 -0.387116
O8    O     O_3   0.088930 0.704860 0.376040 -0.347554
O9    O     O_2   0.034372 0.893646 0.446780 -0.335042
O10   O     O_3   0.683466 0.771441 0.694933 -0.597696
O11   O     O_3   0.106984 0.887150 0.268146 -0.512475
C2    C     C_3   0.125070 0.805066 0.199761 0.541193
H3    H     H_    0.020744 0.739881 0.202277 0.162034
H4    H     H_    0.239317 0.769957 0.211166 -0.027076
C3    C     C_3   0.129061 0.848859 0.102306 -0.965422
H5    H     H_    0.074764 0.785052 0.048856 0.236841
H6    H     H_    0.057806 0.917171 0.100534 0.275005
C4    C     C_3   0.152592 0.776566 0.690953 0.400934
H7    H     H_    0.038415 0.751774 0.651199 0.139226
C5    C     C_3   0.147186 0.887072 0.737719 -1.048194
H8    H     H_    0.225242 0.899134 0.802444 0.289606
H9    H     H_    0.190843 0.949567 0.689087 0.267457
H10   H     H_    0.020168 0.895281 0.757779 0.265786
Ba1   Ba    Ba6+2 0.855630 0.555280 0.454520 1.584122
C6    C     C_3   0.955207 0.237249 0.340355 0.337532
H11   H     H_    0.825877 0.249152 0.345395 0.102980
H12   H     H_    0.022686 0.265782 0.407458 0.135850
C7    C     C_3   0.964404 0.118679 0.324084 -0.827101
H13   H     H_    0.903113 0.088126 0.255803 0.244412
H14   H     H_    0.904144 0.073528 0.381716 0.233950
H15   H     H_    0.094570 0.105687 0.321503 0.269690
C8    C     C_3   0.697640 0.678793 0.741539 0.373283
H16   H     H_    0.818592 0.653300 0.728399 -0.031040
H17   H     H_    0.599675 0.612891 0.719038 0.131648
C9    C     C_3   0.682755 0.703344 0.847036 -0.034875
H18   H     H_    0.791227 0.759650 0.874600 0.110310
H19   H     H_    0.681428 0.628610 0.884208 0.111589
P4    P     P_3+3 0.135310 0.572810 0.713130 0.518163
O12   O     O_2   0.302330 0.539400 0.727760 -0.340339
O13   O     O_3   0.060300 0.548700 0.611500 -0.362700
O14   O     O_3   0.519500 0.346920 0.670840 -0.384307
O15   O     O_3   0.170391 0.705676 0.759733 -0.575808
P5    P     P_3+3 0.061871 0.157094 0.627250 0.435458
O16   O     O_3   0.614310 0.373510 0.452640 -0.399491
O17   O     O_3   0.100780 0.295230 0.623970 -0.376982
O18   O     O_2   0.193642 0.112221 0.567491 -0.394569
O19   O     O_3   0.104179 0.124805 0.741927 -0.522591
Ba2   Ba    Ba6+2 0.334200 0.444810 0.545490 1.565307
P6    P     P_3+3 0.651267 0.649041 0.205332 0.456124
C10   C     C_3   0.635421 0.851773 0.184703 0.534960
H20   H     H_    0.503051 0.821337 0.182948 -0.039372
H21   H     H_    0.559595 0.935923 0.063103 0.246105
O20   O     O_3   0.575400 0.626570 0.547370 -0.360437
C11   C     C_3   0.479471 0.304130 0.259060 0.424186
H22   H     H_    0.358332 0.323568 0.281307 0.105109
H23   H     H_    0.574901 0.373783 0.275990 0.122931
C12   C     C_3   0.473737 0.281075 0.152968 -0.985160
H24   H     H_    0.371449 0.216738 0.132916 0.272291
H25   H     H_    0.455293 0.353969 0.116808 0.227641
H26   H     H_    0.590736 0.255340 0.129731 0.258540
P7    P     P_3+3 0.526518 0.240831 0.424493 0.411502
O21   O     O_2   0.344320 0.238700 0.455090 -0.364696
O22   O     O_3   0.516456 0.213608 0.302431 -0.585694
H27   H     H_    0.257799 0.876802 0.083363 0.235404
C13   C     C_3   0.014595 0.182200 0.804392 0.468430
H28   H     H_    0.053355 0.269537 0.801763 0.111099
H29   H     H_    0.882206 0.162439 0.787847 0.014279
C14   C     C_3   0.043824 0.150971 0.904077 -0.944458
H30   H     H_    0.169593 0.185001 0.929124 0.282583
H31   H     H_    0.953707 0.182084 0.952004 0.219001
H32   H     H_    0.028795 0.062443 0.905948 0.258779
P8    P     P_3+3 0.538063 0.348221 0.793139 0.450811
C15   C     C_3   0.516313 0.145634 0.758782 0.538431
H33   H     H_    0.637344 0.170361 0.727695 -0.002632
O23   O     O_2   0.411341 0.414172 0.835969 -0.387711
O24   O     O_3   0.476682 0.219676 0.828858 -0.517134
H34   H     H_    0.422502 0.136677 0.701120 0.150209
H35   H     H_    0.642470 0.031078 0.829948 0.246744
C16   C     C_3   0.518710 0.038291 0.801192 -1.048153
H36   H     H_    0.484280 0.973246 0.746044 0.235203
H37   H     H_    0.430479 0.028599 0.859042 0.288515
C17   C     C_R   0.987626 0.441076 0.059615 -0.125404
C18   C     C_R   0.181457 0.497147 0.195751 0.246459
C19   C     C_R   0.334907 0.548586 0.226181 -0.508737
C20   C     C_R   0.445227 0.595398 0.162957 0.222472
C21   C     C_R   0.401612 0.597340 0.068400 -0.285318
C22   C     C_R   0.247537 0.548566 0.034802 0.056063
C23   C     C_R   0.137010 0.494679 0.097643 -0.015769
H38   H     H_    0.372121 0.548127 0.299271 0.174125
C24   C     C_R   0.056486 0.497725 0.900485 -0.024757
C25   C     C_R   0.945431 0.444422 0.963456 0.066127
C26   C     C_R   0.012160 0.495658 0.802203 0.247544
C27   C     C_R   0.857527 0.445536 0.772089 -0.546069
C28   C     C_R   0.745204 0.401171 0.835710 0.239799
C29   C     C_R   0.790001 0.397708 0.930128 -0.309665
C30   C     C_R   0.205853 0.551216 0.938705 -0.103519
H39   H     H_    0.489370 0.635378 0.020923 0.190088
H40   H     H_    0.702434 0.360236 0.977985 0.162760
H41   H     H_    0.820384 0.446290 0.699033 0.176808
H42   H     H_    0.902165 0.396879 0.104469 0.167521
H43   H     H_    0.292186 0.594785 0.894203 0.219593
C31   C     C_R   0.766596 0.178038 0.538826 -0.506404
C32   C     C_R   0.461868 0.815125 0.441305 -0.394807
C33   C     C_R   0.409647 0.995833 0.435127 -0.199494
C34   C     C_R   0.359423 0.887727 0.417813 0.119776
C35   C     C_R   0.592627 0.847253 0.504810 0.347404
C36   C     C_R   0.649273 0.958174 0.521922 -0.081576
C37   C     C_R   0.558893 0.033113 0.482257 -0.074681
C38   C     C_R   0.620177 0.142726 0.489704 0.258086
C39   C     C_R   0.856232 0.106021 0.578638 0.204707
C40   C     C_R   0.795746 0.997069 0.573171 -0.177450
H44   H     H_    0.330875 0.049500 0.409997 0.197996
H45   H     H_    0.868588 0.944115 0.604914 0.180808
H46   H     H_    0.815715 0.261898 0.541502 0.169087
H47   H     H_    0.425353 0.731361 0.421732 0.192642
C41   C     C_2   0.684288 0.897985 0.282111 0.480448
H48   H     H_    0.628689 0.964544 0.311970 -0.033070
O25   O     O_2   0.788821 0.862938 0.327552 -0.472227
O26   O     O_3   0.536385 0.744901 0.864512 -0.708171
H49   H     H_    0.564914 0.823831 0.872235 0.349358
C42   C     C_2   0.292651 0.776601 0.628419 0.567045
H50   H     H_    0.405407 0.829378 0.646350 -0.037264
O27   O     O_2   0.284718 0.707651 0.564564 -0.568676

loop_
_geom_bond_atom_site_label_1
_geom_bond_atom_site_label_2
_geom_bond_distance
_ccdc_geom_bond_type
C8    H17   1.109137 S    
C12   H25   1.112596 S    
C22   C23   1.424039 A    
C24   C30   1.409561 A    
C2    C3    1.525219 S    
C9    H18   1.116886 S    
C31   H46   1.082929 S    
O6    P6    1.764356 S    
C33   H44   1.078815 S    
C37   C38   1.409537 A    
C19   H38   1.082581 S    
C16   H36   1.110115 S    
C39   C40   1.400199 A    
Ba1   Ba2   4.578390 S    
C5    H8    1.108979 S    
O16   Ba2   2.914502 S    
C14   H31   1.116505 S    
C11   C12   1.522440 S    
C31   C38   1.394657 A    
C4    C5    1.524369 S    
C7    H13   1.113967 S    
C40   H45   1.077604 S    
C8    H16   1.110107 S    
O2    Ba2   2.798990 S    
Ba2   O21   2.860909 S    
C7    H15   1.113676 S    
C10   H20   1.108871 S    
C11   H23   1.112084 S    
C2    H3    1.111308 S    
C18   C23   1.438190 A    
P7    C38   1.843957 S    
C33   C34   1.383279 A    
C21   C22   1.401471 A    
P6    C20   1.825273 S    
C21   H39   1.083230 S    
C1    H21   1.122888 S    
P4    C26   1.874595 S    
C6    H11   1.104979 S    
P2    Ba1   3.403459 S    
C1    H1    1.124569 S    
P5    O17   1.740988 S    
C14   H32   1.114907 S    
C24   C26   1.440721 A    
P3    O11   1.750872 S    
C4    C42   1.473380 S    
C6    H12   1.115661 S    
O16   P7    1.758755 S    
C33   C37   1.405304 A    
C7    H14   1.113184 S    
C17   C25   1.413939 A    
O5    C6    1.404583 S    
Ba1   O16   2.829936 S    
C12   H26   1.113973 S    
C3    H5    1.119750 S    
Ba1   O20   2.915292 S    
C9    H19   1.111939 S    
C1    C10   1.548510 S    
O6    C10   1.419227 S    
O8    Ba1   2.804952 S    
P2    O20   1.585641 S    
C35   C36   1.425568 A    
P4    O13   1.563874 S    
Ba2   O20   2.829259 S    
C16   H37   1.110774 S    
C27   H41   1.082348 S    
C17   C23   1.409217 A    
C14   H30   1.114544 S    
P7    O21   1.573599 D    
C4    O15   1.388583 S    
C9    O26   1.408018 S    
O7    Ba1   2.860692 S    
C4    H7    1.092121 S    
C8    C9    1.528465 S    
C32   C35   1.400151 A    
C20   C21   1.392655 A    
C13   H29   1.107942 S    
P1    O5    1.750995 S    
C11   H22   1.112436 S    
P1    O2    1.563993 S    
C10   C41   1.502436 S    
O2    Ba1   2.919665 S    
C42   O27   1.219936 D    
C15   O24   1.405899 S    
C17   H42   1.080755 S    
P2    O10   1.753000 S    
P8    O24   1.746619 S    
C27   C28   1.393657 A    
P3    O9    1.547164 D    
P5    O18   1.545070 D    
C24   C25   1.424703 A    
O13   Ba2   2.920436 S    
O11   C2    1.410191 S    
C6    C7    1.522081 S    
C30   H43   1.078240 S    
H35   C16   1.115364 S    
O14   Ba2   2.792965 S    
C36   C40   1.417825 A    
P3    O8    1.742636 S    
O12   Ba2   2.830283 S    
C29   H40   1.083092 S    
C3    H6    1.116443 S    
O3    P6    1.767058 S    
P8    C28   1.832184 S    
O26   H49   0.995665 S    
C41   O25   1.221083 D    
C42   H50   1.087281 S    
O19   C13   1.403804 S    
C15   C16   1.524871 S    
P4    O12   1.517113 D    
C36   C37   1.426234 A    
P1    C18   1.869100 S    
P2    C35   1.859697 S    
O4    P6    1.541877 D    
C12   H24   1.111944 S    
C22   C30   1.411061 A    
C13   C14   1.522220 S    
C5    H9    1.109688 S    
Ba1   O13   2.798417 S    
C3    H27   1.117217 S    
O1    Ba1   2.829761 S    
O17   Ba2   2.805548 S    
C31   C39   1.395210 A    
C32   C34   1.388437 A    
C41   H48   1.086477 S    
C13   H28   1.112791 S    
C15   H34   1.111960 S    
P2    O7    1.515452 D    
P8    O23   1.543234 D    
C32   H47   1.082622 S    
C19   C20   1.390808 A    
C11   O22   1.404247 S    
P5    O19   1.750433 S    
P1    O1    1.516757 D    
P1    Ba1   3.388439 S    
C2    H4    1.114409 S    
C25   C29   1.402401 A    
C15   H33   1.113623 S    
P4    Ba2   3.388902 S    
P5    C39   1.843785 S    
C5    H10   1.111294 S    
C1    H2    1.117626 S    
C26   C27   1.396394 A    
C28   C29   1.395472 A    
O14   P8    1.746815 S    
P7    O22   1.752678 S    
C18   C19   1.394610 A    
P3    C34   1.827345 S    
O3    Ba1   2.793564 S    
P4    O15   1.759457 S    
O10   C8    1.401909 S    
