data_mof_unit_55507.cif
_audit_creation_date              2013-03-05T15:46:14-0500
_audit_creation_method            fapswitch 2.2
_symmetry_space_group_name_H-M    P1
_symmetry_Int_Tables_number       1
_space_group_crystal_system       triclinic
_cell_length_a                    10.741909
_cell_length_b                    10.939777
_cell_length_c                    9.861941
_cell_angle_alpha                 110.709279
_cell_angle_beta                  99.21888
_cell_angle_gamma                 90.297761
_cell_volume                      1067.63021753

loop_
_atom_site_label
_atom_site_type_symbol
_atom_site_description
_atom_site_fract_x
_atom_site_fract_y
_atom_site_fract_z
_atom_type_partial_charge
O1    O     O_R   0.511820 0.332340 0.577400 -0.582342
O2    O     O_R   0.474400 0.295500 0.332650 -0.532969
C1    C     C_R   0.487791 0.253585 0.441609 0.824599
O3    O     O_R   0.336400 0.518400 0.622370 -0.591957
O4    O     O_R   0.298980 0.481560 0.377620 -0.533405
C2    C     C_R   0.259762 0.499171 0.499989 0.773936
Cu1   Cu    Cu3+1 0.522160 0.521810 0.644910 1.095588
Cu2   Cu    Cu3+1 0.477840 0.478190 0.355090 1.086609
O5    O     O_R   0.525600 0.704500 0.667350 -0.517520
O6    O     O_R   0.488180 0.667660 0.422600 -0.590392
O7    O     O_R   0.701020 0.518440 0.622380 -0.538213
O8    O     O_R   0.663600 0.481600 0.377630 -0.601045
C3    C     C_R   0.506852 0.746333 0.558576 0.829180
C4    C     C_R   0.739985 0.500534 0.499693 0.782259
C5    C     C_3   0.073309 0.372127 0.527944 0.630713
C6    C     C_3   0.929148 0.378952 0.532724 -0.318619
H1    H     H_    0.876279 0.287956 0.451254 0.187865
H2    H     H_    0.909382 0.384063 0.641918 0.205381
H3    H     H_    0.142463 0.641647 0.727392 0.239427
H4    H     H_    0.929972 0.632312 0.729020 0.248163
C7    C     C_3   0.089151 0.625657 0.615802 -0.381584
C8    C     C_3   0.048637 0.491629 0.347096 -0.320686
C9    C     C_3   0.121320 0.496434 0.499339 -0.070920
H5    H     H_    0.078877 0.578051 0.322837 0.244076
H6    H     H_    0.069462 0.403105 0.256721 0.249961
C10   C     C_3   0.877567 0.498987 0.498820 -0.043178
C11   C     C_3   0.946210 0.625413 0.617940 -0.332078
C12   C     C_3   0.905947 0.490515 0.346274 -0.341614
H7    H     H_    0.859398 0.399018 0.259006 0.227780
H8    H     H_    0.867608 0.574743 0.318472 0.217561
H9    H     H_    0.118047 0.710852 0.588736 0.228689
H10   H     H_    0.908005 0.713097 0.597937 0.209756
H11   H     H_    0.439656 0.147132 0.628873 0.239694
C13   C     C_2   0.470593 0.113719 0.413271 -0.288424
C14   C     C_2   0.447185 0.075294 0.522015 -0.103660
C15   C     C_2   0.510589 0.887553 0.589974 0.051314
C16   C     C_2   0.430950 0.937007 0.503219 0.217220
H12   H     H_    0.475331 0.043031 0.304672 0.204367
H13   H     H_    0.400824 0.439685 0.850145 0.194953
H14   H     H_    0.573283 0.591317 0.157387 0.147262
N1    N     N_2   0.444530 0.445420 0.137360 -0.074992
C17   C     C_2   0.506130 0.513504 0.081460 0.070288
N2    N     N_2   0.555520 0.554510 0.862630 -0.082745
C18   C     C_2   0.484429 0.497112 0.920844 0.074104
N3    N     N_R   0.141111 0.363863 0.666966 0.108901
O9    O     O_R   0.128134 0.450164 0.793624 -0.359612
O10   O     O_R   0.204454 0.262431 0.665617 -0.310256
N4    N     N_R   0.326038 0.858477 0.396325 0.148525
O11   O     O_R   0.284618 0.884510 0.278727 -0.299291
O12   O     O_R   0.257289 0.778399 0.429352 -0.391423
N5    N     N_R   0.609872 0.968009 0.704146 0.128208
O13   O     O_R   0.718470 0.920177 0.727660 -0.311619
O14   O     O_R   0.586869 0.079455 0.798721 -0.284308
N6    N     N_R   0.672783 0.613099 0.943548 0.227021
O15   O     O_R   0.717683 0.716006 0.925948 -0.264952
O16   O     O_R   0.749808 0.549099 0.005660 -0.362654
O17   O     O_3   0.088702 0.257076 0.409563 -0.687425
H15   H     H_    0.180151 0.251214 0.404724 0.335097
N7    N     N_R   0.364449 0.338196 0.043026 0.262217
O18   O     O_R   0.262718 0.309399 0.084284 -0.273156
O19   O     O_R   0.404710 0.249715 0.934226 -0.299674

loop_
_geom_bond_atom_site_label_1
_geom_bond_atom_site_label_2
_geom_bond_distance
_ccdc_geom_bond_type
O4    Cu2   1.968205 S    
N5    O14   1.300055 A    
N2    C18   1.302878 D    
H13   C18   1.082156 S    
H4    C11   1.113122 S    
Cu1   N2    2.018787 S    
C5    O17   1.413948 S    
N1    C17   1.303337 D    
N2    N6    1.393582 S    
C10   C12   1.553502 S    
Cu2   O8    1.970719 S    
C5    C9    1.582884 S    
O2    C1    1.298166 A    
C10   C11   1.548985 S    
N7    O18   1.299423 A    
C6    H2    1.112950 S    
C8    C12   1.531445 S    
N3    O9    1.301590 A    
C4    C10   1.479441 S    
C16   N4    1.445036 S    
Cu1   O7    1.968205 S    
N4    O12   1.300406 A    
C7    H9    1.111635 S    
C12   H7    1.113676 S    
O17   H15   0.992415 S    
C6    H1    1.114124 S    
C15   N5    1.443764 S    
C17   C18   1.508597 S    
O3    Cu1   1.970719 S    
C2    C9    1.486228 S    
C12   H8    1.113676 S    
C15   C16   1.361693 D    
H3    C7    1.109282 S    
O8    C4    1.292535 A    
N6    O16   1.302665 A    
C7    C9    1.555930 S    
C6    C10   1.549812 S    
O4    C2    1.292383 A    
C7    C11   1.538980 S    
O7    C4    1.293445 A    
C8    H5    1.112785 S    
N7    O19   1.301450 A    
C5    N3    1.478757 S    
C5    C6    1.558195 S    
Cu1   Cu2   2.687120 S    
Cu2   N1    2.018726 S    
N1    N7    1.393812 S    
C3    C15   1.463319 S    
O3    C2    1.295718 A    
C13   C14   1.339469 D    
N3    O10   1.301832 A    
C14   C16   1.463553 S    
Cu1   O5    1.930931 S    
O5    C3    1.296020 A    
C8    C9    1.560364 S    
N4    O11   1.301403 A    
O1    Cu1   1.936449 S    
C1    C13   1.459974 S    
H11   C14   1.084867 S    
C11   H10   1.113319 S    
N6    O15   1.299821 A    
O6    C3    1.294211 A    
Cu2   O6    1.936449 S    
O2    Cu2   1.930931 S    
N5    O13   1.301513 A    
H14   C17   1.084166 S    
O1    C1    1.293524 A    
C8    H6    1.112631 S    
C13   H12   1.086164 S    
