data_mof_unit_47644.cif
_audit_creation_date              2013-03-05T16:04:56-0500
_audit_creation_method            fapswitch 2.2
_symmetry_space_group_name_H-M    P1
_symmetry_Int_Tables_number       1
_space_group_crystal_system       triclinic
_cell_length_a                    8.336921
_cell_length_b                    14.346442
_cell_length_c                    18.8516
_cell_angle_alpha                 97.652918
_cell_angle_beta                  90.769146
_cell_angle_gamma                 92.072501
_cell_volume                      2232.82490585

loop_
_atom_site_label
_atom_site_type_symbol
_atom_site_description
_atom_site_fract_x
_atom_site_fract_y
_atom_site_fract_z
_atom_type_partial_charge
P1    P     P_3+3 0.061800 0.409390 0.339760 0.436427
O1    O     O_2   0.887710 0.436190 0.327560 -0.359711
O2    O     O_3   0.135370 0.443490 0.416520 -0.436429
O3    O     O_3   0.634420 0.609440 0.364670 -0.386005
O4    O     O_2   0.772837 0.544986 0.242063 -0.413196
O5    O     O_3   0.041223 0.286278 0.328150 -0.575581
O6    O     O_3   0.626070 0.700379 0.241654 -0.562614
H1    H     H_    0.550729 0.772269 0.337422 0.110857
C1    C     C_3   0.512343 0.851539 0.250685 -0.966983
H2    H     H_    0.633134 0.887268 0.257027 0.265363
H3    H     H_    0.477215 0.840120 0.193050 0.257225
P2    P     P_3+3 0.622760 0.718740 0.547830 0.469258
P3    P     P_3+3 0.061614 0.783694 0.402537 0.439607
O7    O     O_2   0.795290 0.730930 0.525800 -0.375525
O8    O     O_3   0.044470 0.660110 0.398750 -0.416751
O9    O     O_2   0.901886 0.826720 0.428958 -0.375048
O10   O     O_3   0.633395 0.746397 0.641265 -0.543686
O11   O     O_3   0.082520 0.813490 0.315880 -0.569954
C2    C     C_3   0.031846 0.736974 0.265565 0.363916
H4    H     H_    0.906024 0.716890 0.275585 0.191094
H5    H     H_    0.108929 0.675833 0.268657 0.052598
C3    C     C_3   0.044770 0.766360 0.190687 -0.480901
H6    H     H_    0.988892 0.835501 0.190055 0.227928
C4    C     C_3   0.220683 0.767492 0.647798 0.395017
H7    H     H_    0.338563 0.735426 0.640872 0.134233
H8    H     H_    0.159014 0.778391 0.597730 0.017757
C5    C     C_3   0.248540 0.865257 0.689511 -0.703636
H9    H     H_    0.301677 0.860896 0.743119 0.316447
H10   H     H_    0.332532 0.907273 0.659906 0.179225
H11   H     H_    0.133570 0.901923 0.695684 0.243975
Ba1   Ba    Ba6+2 0.843240 0.541620 0.463500 1.505215
C6    C     C_3   0.011359 0.253646 0.393491 0.437627
H12   H     H_    0.899656 0.283150 0.416042 0.099481
H13   H     H_    0.112295 0.273287 0.431987 0.138976
C7    C     C_3   0.993526 0.146702 0.380154 -1.002022
H14   H     H_    0.886018 0.124849 0.345691 0.270940
H15   H     H_    0.980637 0.117463 0.431309 0.234742
H16   H     H_    0.101741 0.117151 0.353204 0.256707
C8    C     C_3   0.724484 0.681675 0.671844 0.268130
H17   H     H_    0.837650 0.670937 0.642983 0.104739
H18   H     H_    0.655899 0.613316 0.668523 0.083909
C9    C     C_3   0.763924 0.718255 0.751054 -0.053498
H19   H     H_    0.880515 0.691963 0.766517 0.102293
H20   H     H_    0.675542 0.689477 0.786352 0.117737
P4    P     P_3+3 0.127890 0.590690 0.660240 0.467627
O12   O     O_2   0.301980 0.563840 0.672490 -0.335803
O13   O     O_3   0.054330 0.556590 0.583490 -0.437794
O14   O     O_3   0.555270 0.390630 0.635330 -0.372200
O15   O     O_3   0.116798 0.713817 0.684600 -0.540763
P5    P     P_3+3 0.125662 0.219297 0.607015 0.455920
O16   O     O_3   0.637720 0.384870 0.467990 -0.385691
O17   O     O_3   0.145220 0.339960 0.601250 -0.353697
O18   O     O_2   0.258459 0.171628 0.560537 -0.395692
O19   O     O_3   0.181830 0.204168 0.694307 -0.487681
Ba2   Ba    Ba6+2 0.346570 0.458460 0.536510 1.543933
P6    P     P_3+3 0.616151 0.589259 0.270574 0.394593
C10   C     C_3   0.514880 0.757794 0.279856 0.421486
H21   H     H_    0.392049 0.724679 0.273588 0.042291
H22   H     H_    0.424297 0.897360 0.280483 0.239317
O20   O     O_3   0.551980 0.615210 0.532020 -0.408997
C11   C     C_3   0.503525 0.284901 0.322528 0.306336
H23   H     H_    0.390738 0.311250 0.347287 0.092100
H24   H     H_    0.589328 0.344982 0.318352 0.102942
C12   C     C_3   0.458972 0.235430 0.247489 -0.485552
H25   H     H_    0.362565 0.180943 0.251880 0.216019
H26   H     H_    0.410769 0.287959 0.215260 0.171637
P7    P     P_3+3 0.575831 0.265459 0.453271 0.423471
O21   O     O_2   0.394410 0.269100 0.474240 -0.380285
O22   O     O_3   0.574413 0.220897 0.362289 -0.586092
H27   H     H_    0.174033 0.774551 0.178061 0.209168
C13   C     C_3   0.056930 0.233994 0.740181 0.396906
H28   H     H_    0.010137 0.302309 0.728947 0.072105
H29   H     H_    0.958384 0.179141 0.734768 0.058582
C14   C     C_3   0.119506 0.247447 0.817155 -0.874164
H30   H     H_    0.214277 0.304534 0.824698 0.276826
H31   H     H_    0.019897 0.267002 0.854070 0.210333
H32   H     H_    0.170246 0.181200 0.830358 0.262950
P8    P     P_3+3 0.574662 0.400952 0.728486 0.454263
C15   C     C_3   0.587198 0.221100 0.705125 0.487866
H33   H     H_    0.716571 0.236882 0.697011 -0.029044
O23   O     O_2   0.441749 0.466070 0.759234 -0.377816
O24   O     O_3   0.520308 0.291273 0.753828 -0.515114
H34   H     H_    0.521731 0.214440 0.652857 0.146873
H35   H     H_    0.637602 0.131526 0.786017 0.257309
C16   C     C_3   0.571604 0.127223 0.734042 -0.894820
H36   H     H_    0.622916 0.071191 0.695593 0.227872
H37   H     H_    0.443242 0.108512 0.741891 0.284232
C17   C     C_R   0.010838 0.442870 0.046700 0.006164
C18   C     C_R   0.913558 0.404559 0.097054 0.111574
C19   C     C_R   0.757627 0.370280 0.076483 -0.185956
C20   C     C_R   0.699578 0.372395 0.006696 -0.180193
C21   C     C_R   0.795673 0.409592 0.955811 0.123042
C22   C     C_R   0.951492 0.445738 0.975813 0.027221
C23   C     C_R   0.737311 0.411580 0.885662 -0.253513
C24   C     C_R   0.831782 0.449590 0.833972 0.004397
C25   C     C_R   0.986162 0.490468 0.854769 -0.009919
C26   C     C_R   0.045650 0.487265 0.925806 -0.023019
C27   C     C_R   0.776562 0.448388 0.762220 0.161840
C28   C     C_R   0.876698 0.484240 0.712412 -0.535744
C29   C     C_R   0.022746 0.532277 0.732297 0.293458
C30   C     C_R   0.077103 0.538832 0.806151 -0.187733
C31   C     C_R   0.165628 0.480005 0.067609 -0.023006
C32   C     C_R   0.222933 0.480236 0.139356 -0.017064
C33   C     C_R   0.123073 0.443367 0.190820 -0.038342
C34   C     C_R   0.971388 0.402773 0.167517 -0.153150
H38   H     H_    0.679186 0.343166 0.114780 0.134396
H39   H     H_    0.578492 0.345564 0.992707 0.138182
H40   H     H_    0.835386 0.479504 0.657359 0.176965
H41   H     H_    0.617201 0.383388 0.872171 0.186130
H42   H     H_    0.896008 0.369813 0.203780 0.162232
C35   C     C_R   0.215463 0.593296 0.834604 0.367453
C36   C     C_R   0.285295 0.578163 0.900952 -0.011778
C37   C     C_R   0.198398 0.526893 0.947442 -0.030164
C38   C     C_R   0.259369 0.521917 0.017803 0.049091
C39   C     C_R   0.437271 0.618471 0.923769 -0.096425
C40   C     C_R   0.500795 0.609033 0.991188 -0.225669
C41   C     C_R   0.411471 0.562942 0.039280 0.126387
C42   C     C_R   0.377835 0.520562 0.160046 -0.017593
C43   C     C_R   0.470875 0.560039 0.108977 -0.226982
C44   C     C_R   0.434265 0.520482 0.231389 0.224327
C45   C     C_R   0.339540 0.477654 0.278760 -0.588853
C46   C     C_R   0.180212 0.447956 0.263315 0.262046
H43   H     H_    0.509826 0.656756 0.889571 0.169689
H44   H     H_    0.618342 0.640601 0.006546 0.141818
H45   H     H_    0.590062 0.589408 0.122927 0.176076
H46   H     H_    0.391087 0.469262 0.329894 0.146813
C47   C     C_R   0.690698 0.940174 0.544825 -0.105898
C48   C     C_R   0.495744 0.804917 0.511177 0.223014
C49   C     C_R   0.338062 0.775134 0.488544 -0.323356
C50   C     C_R   0.239507 0.834494 0.455605 0.274214
C51   C     C_R   0.292807 0.926569 0.450754 -0.321995
C52   C     C_R   0.443297 0.960652 0.479510 0.057845
C53   C     C_R   0.545039 0.901079 0.512105 -0.033088
C54   C     C_R   0.635703 0.093381 0.508729 -0.010076
C55   C     C_R   0.736104 0.035539 0.543806 0.065140
C56   C     C_R   0.681155 0.189380 0.508636 0.239967
C57   C     C_R   0.821422 0.226643 0.544701 -0.498868
C58   C     C_R   0.925946 0.168865 0.575306 0.205043
C59   C     C_R   0.882681 0.073484 0.575791 -0.312883
C60   C     C_R   0.492494 0.053909 0.475261 -0.110846
H47   H     H_    0.217711 0.971124 0.423360 0.168144
H48   H     H_    0.963911 0.029002 0.599985 0.153701
H49   H     H_    0.855648 0.300050 0.544178 0.167192
H50   H     H_    0.768656 0.898112 0.572688 0.167898
H51   H     H_    0.414839 0.095561 0.446909 0.172000
N1    N     N_R   0.769717 0.821054 0.765296 0.294952
O25   O     O_R   0.903920 0.866324 0.785738 -0.348835
O26   O     O_R   0.637580 0.866860 0.766836 -0.346085
C61   C     C_3   0.603294 0.189046 0.209601 -0.187224
C62   C     C_3   0.557532 0.143787 0.133815 -0.906942
H52   H     H_    0.464722 0.086619 0.135512 0.270784
H53   H     H_    0.510177 0.196915 0.102005 0.259242
H54   H     H_    0.665086 0.113261 0.107004 0.259127
H55   H     H_    0.701961 0.242473 0.207199 0.181163
H56   H     H_    0.648127 0.133605 0.239918 0.227982
N2    N     N_R   0.253581 0.681131 0.809824 0.240002
O27   O     O_R   0.171041 0.753509 0.833832 -0.368648
O28   O     O_R   0.390317 0.695057 0.780120 -0.415640
C63   C     C_3   0.279780 0.675131 0.490581 -0.193690
C64   C     C_3   0.338091 0.615523 0.422820 -0.475120
H57   H     H_    0.381582 0.660978 0.383884 0.141684
H58   H     H_    0.421485 0.561145 0.432508 0.250086
H59   H     H_    0.246238 0.574699 0.392259 0.221821
H60   H     H_    0.306455 0.646976 0.539794 0.171405
H61   H     H_    0.151446 0.670632 0.502069 0.206267
C65   C     C_3   0.960917 0.693994 0.133857 -0.325018
C66   C     C_3   0.997534 0.715082 0.058405 -0.826228
H62   H     H_    0.955376 0.785700 0.050814 0.270546
H63   H     H_    0.128587 0.712809 0.048857 0.268182
H64   H     H_    0.934666 0.661640 0.018619 0.241516
H65   H     H_    0.000158 0.622600 0.139967 0.219176
H66   H     H_    0.829264 0.695160 0.141096 0.246509

loop_
_geom_bond_atom_site_label_1
_geom_bond_atom_site_label_2
_geom_bond_distance
_ccdc_geom_bond_type
O14   Ba2   2.821878 S    
O5    C6    1.397074 S    
C34   H42   1.077956 S    
C65   H66   1.108299 S    
C5    H10   1.111169 S    
O4    P6    1.544866 D    
C24   C25   1.422939 A    
C4    C5    1.522260 S    
C49   C63   1.503553 S    
O7    Ba1   2.856040 S    
C48   C49   1.410146 A    
Ba2   O21   2.856358 S    
C19   C20   1.400202 A    
C24   C27   1.420701 A    
C8    H18   1.111205 S    
P4    O12   1.537312 D    
C55   C59   1.413462 A    
C28   H40   1.081804 S    
P7    O22   1.748547 S    
P5    O19   1.748190 S    
C14   H31   1.110394 S    
P3    O11   1.752154 S    
N2    O27   1.300551 A    
C2    H5    1.113172 S    
C4    H8    1.100795 S    
C37   C38   1.425692 A    
C41   C43   1.404255 A    
C54   C60   1.407099 A    
C59   H48   1.083693 S    
C33   C46   1.433625 A    
C39   C40   1.395381 A    
P1    Ba1   3.397912 S    
C40   C41   1.398545 A    
P1    O1    1.536934 D    
O10   C8    1.397499 S    
O14   P8    1.747427 S    
C11   H24   1.111682 S    
C42   C43   1.408105 A    
C33   C34   1.412448 A    
C6    H13   1.107319 S    
P1    C46   1.889047 S    
O2    Ba2   2.828317 S    
O19   C13   1.404667 S    
C2    H4    1.103167 S    
C52   C53   1.416261 A    
C62   H54   1.110352 S    
O12   Ba2   2.833559 S    
P8    C27   1.863846 S    
P5    O17   1.750769 S    
P3    C50   1.849143 S    
C8    C9    1.542348 S    
C1    H2    1.110974 S    
O16   Ba2   2.929370 S    
C11   H23   1.111478 S    
C51   H47   1.084164 S    
O17   Ba2   2.756579 S    
P4    O13   1.573142 S    
C57   H49   1.082451 S    
C65   H65   1.106358 S    
Ba1   O13   2.827759 S    
Ba2   O20   2.788001 S    
O3    P6    1.762479 S    
C5    H11   1.110007 S    
P6    C44   1.867146 S    
C23   C24   1.413598 A    
C9    H20   1.104771 S    
O6    P6    1.751766 S    
C36   C37   1.408597 A    
C66   H64   1.110086 S    
N1    O26   1.301694 A    
C16   H37   1.110501 S    
P5    O18   1.543472 D    
C39   H43   1.078853 S    
C14   H30   1.111034 S    
C8    H17   1.100826 S    
P7    O21   1.569359 D    
O3    Ba1   2.822567 S    
C6    C7    1.522848 S    
C20   H39   1.083735 S    
C7    H16   1.111032 S    
C4    H7    1.102100 S    
C19   H38   1.081333 S    
C66   H63   1.110628 S    
C66   H62   1.110598 S    
C13   H29   1.110978 S    
O11   C2    1.400567 S    
C54   C56   1.415379 A    
C16   H36   1.110209 S    
C14   H32   1.110603 S    
C63   H61   1.095775 S    
O1    Ba1   2.833068 S    
P1    O2    1.573339 S    
C7    H14   1.110636 S    
C64   H58   1.095036 S    
Ba1   O20   2.930146 S    
P2    O10   1.753547 S    
C11   C12   1.530442 S    
C61   H55   1.109430 S    
C64   H59   1.061684 S    
C48   C53   1.422951 A    
C31   C38   1.410656 A    
H1    C10   1.112160 S    
C15   O24   1.405577 S    
P8    O24   1.750403 S    
C63   C64   1.534668 S    
C63   H60   1.083553 S    
P4    O15   1.771056 S    
C25   C26   1.428858 A    
C2    C3    1.530083 S    
C21   C23   1.407158 A    
O16   P7    1.756024 S    
H35   C16   1.110648 S    
O2    Ba1   2.944761 S    
C1    H3    1.110716 S    
C45   C46   1.395111 A    
C43   H45   1.080388 S    
P2    O20   1.567512 S    
P2    O7    1.512993 D    
P3    O8    1.765413 S    
P2    Ba1   3.421003 S    
C65   C66   1.525614 S    
C62   H53   1.110644 S    
C32   C42   1.423694 A    
C52   C60   1.397981 A    
C9    H19   1.104648 S    
C26   C37   1.408258 A    
C51   C52   1.404926 A    
C9    N1    1.462362 S    
C22   C26   1.412617 A    
C15   C16   1.520758 S    
C44   C45   1.388752 A    
O13   Ba2   2.945541 S    
N1    O25   1.300514 A    
C35   N2    1.427903 S    
C11   O22   1.401761 S    
C4    O15   1.390884 S    
C17   C22   1.425003 A    
C40   H44   1.083815 S    
C35   C36   1.418598 A    
C7    H15   1.106672 S    
C62   H52   1.110912 S    
C47   C53   1.417104 A    
Ba1   O16   2.788538 S    
C56   C57   1.397195 A    
P4    C29   1.896822 S    
C60   H51   1.079646 S    
C13   C14   1.520797 S    
C17   C31   1.408965 A    
P5    C58   1.850418 S    
O8    Ba1   2.755995 S    
C54   C55   1.417051 A    
P2    C48   1.851990 S    
C30   C35   1.426659 A    
C57   C58   1.394792 A    
P1    O5    1.752423 S    
C23   H41   1.080486 S    
C28   C29   1.398646 A    
C12   C61   1.534620 S    
Ba1   Ba2   4.549304 S    
C12   H25   1.112414 S    
N2    O28   1.297479 A    
C50   C51   1.393386 A    
C49   C50   1.401305 A    
C13   H28   1.112797 S    
C61   C62   1.526010 S    
C6    H12   1.103783 S    
C15   H34   1.111132 S    
P8    O23   1.544186 D    
C10   H21   1.111273 S    
C21   C22   1.408784 A    
C3    H27   1.112198 S    
P7    C56   1.843865 S    
C1    C10   1.519979 S    
C47   H50   1.079842 S    
C61   H56   1.111670 S    
C31   C32   1.427927 A    
C47   C55   1.408989 A    
C64   H57   1.101368 S    
C42   C44   1.419027 A    
C38   C41   1.409637 A    
C58   C59   1.403683 A    
C15   H33   1.110852 S    
C3    C65   1.531502 S    
C45   H46   1.073271 S    
C17   C18   1.410077 A    
P4    Ba2   3.398360 S    
C27   C28   1.400620 A    
P3    O9    1.548462 D    
C18   C34   1.410800 A    
C32   C33   1.428509 A    
C3    H6    1.112424 S    
C29   C30   1.448350 A    
C1    H22   1.110908 S    
C18   C19   1.404141 A    
C25   C30   1.430470 A    
O6    C10   1.404125 S    
C36   C39   1.410978 A    
C20   C21   1.404585 A    
C12   H26   1.111684 S    
C5    H9    1.108286 S    
