data_mof_unit_42995.cif
_audit_creation_date              2012-12-11T20:24:22-0500
_audit_creation_method            fapswitch 2.2
_symmetry_space_group_name_H-M    P1
_symmetry_Int_Tables_number       1
_space_group_crystal_system       triclinic
_cell_length_a                    8.437528
_cell_length_b                    17.1529
_cell_length_c                    19.006662
_cell_angle_alpha                 102.863179
_cell_angle_beta                  92.548076
_cell_angle_gamma                 97.837982
_cell_volume                      2648.72723723

loop_
_atom_site_label
_atom_site_type_symbol
_atom_type_description
_atom_site_fract_x
_atom_site_fract_y
_atom_site_fract_z
_atom_type_partial_charge
Ba1   Ba    Ba6+2 0.854170 0.535040 0.467640 1.638206
Ba2   Ba    Ba6+2 0.335670 0.465030 0.532370 1.636132
C1    C     C_3   0.619060 0.837993 0.305089 -0.100434
C2    C     C_R   0.023265 0.530612 0.728424 0.046214
C3    C     C_R   0.856236 0.434335 0.808319 -0.138539
C4    C     C_3   0.092517 0.722437 0.289274 0.328524
C5    C     C_R   0.791632 0.438122 0.740445 0.018497
C6    C     C_R   0.331104 0.576081 0.196862 -0.155701
C7    C     C_R   0.398231 0.570224 0.263673 0.002517
C8    C     C_R   0.130873 0.462788 0.199596 -0.163743
C9    C     C_R   0.165281 0.476924 0.275267 0.092491
C10   C     C_R   0.985178 0.492799 0.845613 -0.005392
C11   C     C_R   0.883352 0.479318 0.697963 -0.243890
C12   C     C_3   0.608804 0.755459 0.325631 0.394689
C13   C     C_R   0.204363 0.516741 0.158772 -0.003477
C14   C     C_R   0.306390 0.527684 0.305973 -0.236478
C15   C     C_R   0.763309 0.457451 0.958899 -0.087655
C16   C     C_3   0.052826 0.761351 0.226889 -0.213253
C17   C     C_R   0.660912 0.427206 0.004929 -0.082201
C18   C     C_R   0.710563 0.440401 0.077146 -0.060310
C19   C     C_R   0.865076 0.478763 0.100963 -0.077248
C20   C     C_R   0.983913 0.489104 0.052445 0.013737
C21   C     C_R   0.930364 0.480801 0.977840 0.042263
C22   C     C_R   0.149607 0.511229 0.078331 -0.017605
C23   C     C_3   0.426714 0.306410 0.291033 0.293018
C24   C     C_R   0.259928 0.528237 0.026314 0.035121
C25   C     C_R   0.206622 0.519262 0.951463 0.010641
C26   C     C_R   0.040768 0.497598 0.925739 -0.010548
C27   C     C_R   0.426503 0.552649 0.045709 -0.080086
C28   C     C_3   0.251461 0.713371 0.633530 0.301292
C29   C     C_R   0.528948 0.582184 0.999364 -0.063456
C30   C     C_R   0.480100 0.567528 0.926886 -0.028809
C31   C     C_R   0.325691 0.529127 0.902844 -0.069211
C32   C     C_2   0.437096 0.720283 0.485022 -0.270126
C33   C     C_3   0.356184 0.769028 0.441060 -0.038659
C34   C     C_3   0.386758 0.249187 0.214850 -0.175168
C35   C     C_2   0.405636 0.858332 0.468231 -0.113576
C36   C     C_2   0.546468 0.886844 0.508367 0.014033
C37   C     C_2   0.635933 0.829549 0.536320 -0.085363
C38   C     C_1   0.573425 0.752405 0.524881 0.047529
C39   C     C_R   0.804892 0.137515 0.526537 -0.139309
C40   C     C_3   0.269722 0.805712 0.651060 -0.211442
C41   C     C_R   0.864142 0.219448 0.535546 0.021937
C42   C     C_R   0.615773 0.239175 0.476595 0.065888
C43   C     C_R   0.557383 0.157460 0.467235 -0.116588
C44   C     C_R   0.650513 0.106504 0.492757 0.007830
C45   C     C_3   0.140611 0.313164 0.718231 0.360605
C46   C     C_2   0.615683 0.973311 0.524102 -0.074790
C47   C     C_2   0.585968 0.020298 0.478745 -0.095509
C48   C     C_R   0.768522 0.270466 0.511620 -0.284919
C49   C     C_3   0.990679 0.265640 0.341736 0.313201
C50   C     C_3   0.058106 0.184259 0.317007 -0.036875
C51   C     C_3   0.722618 0.645939 0.689307 0.272007
C52   C     C_3   0.758211 0.670540 0.771522 -0.217445
C53   C     C_2   0.386735 0.843047 0.715357 0.903184
C54   C     C_3   0.811784 0.250792 0.335964 -0.272272
C55   C     C_3   0.001999 0.139726 0.238319 -0.374636
C56   C     C_3   0.187657 0.294841 0.791331 -0.182020
C57   C     C_3   0.022402 0.125888 0.366867 -0.453063
C58   C     C_3   0.778994 0.892968 0.331398 -0.411248
C59   C     C_2   0.631356 0.714197 0.808617 0.925988
C60   C     C_3   0.542701 0.379860 0.283670 -0.291490
C61   C     C_3   0.291711 0.282762 0.161013 -0.496766
C62   C     C_2   0.577173 0.829877 0.225537 0.886687
C63   C     C_3   0.104104 0.717050 0.154957 -0.452111
C64   C     C_3   0.048797 0.252000 0.823657 -0.427897
C65   C     C_3   0.717633 0.226348 0.710167 -0.377947
C66   C     C_3   0.562786 0.243647 0.676805 0.343718
C67   C     C_3   0.440264 0.166408 0.662851 -0.326283
C68   C     C_R   0.059355 0.546019 0.804140 -0.158964
H1    H     H_    0.656032 0.764625 0.382754 0.026201
H2    H     H_    0.479575 0.731421 0.320463 -0.165874
H3    H     H_    0.526589 0.869621 0.334549 0.036504
H4    H     H_    0.318012 0.326756 0.314326 0.059331
H5    H     H_    0.318944 0.190904 0.219581 0.120333
H6    H     H_    0.499814 0.233828 0.191046 0.109295
H7    H     H_    0.245765 0.347487 0.700707 0.116996
H8    H     H_    0.047297 0.352614 0.724842 -0.030920
H9    H     H_    0.237593 0.352350 0.830349 0.082601
H10   H     H_    0.281491 0.255164 0.784806 0.157035
H11   H     H_    0.582972 0.258716 0.623834 0.034322
H12   H     H_    0.312656 0.827557 0.603635 0.024372
H13   H     H_    0.485542 0.116014 0.625774 0.081843
H14   H     H_    0.327143 0.175647 0.637120 0.174076
H15   H     H_    0.027031 0.659573 0.278074 0.075740
H16   H     H_    0.414943 0.148297 0.714298 0.115048
H17   H     H_    0.150114 0.596714 0.828970 0.112627
H18   H     H_    0.800026 0.386684 0.831491 0.066622
H19   H     H_    0.386723 0.624164 0.174001 0.080292
H20   H     H_    0.041566 0.411791 0.173957 0.065153
H21   H     H_    0.840988 0.474707 0.642394 0.062640
H22   H     H_    0.351058 0.529160 0.360561 0.065893
H23   H     H_    0.151234 0.825607 0.661469 0.087637
H24   H     H_    0.704228 0.466460 0.911022 0.078196
H25   H     H_    0.536507 0.403853 0.986748 0.077833
H26   H     H_    0.625626 0.427062 0.115469 0.082206
H27   H     H_    0.223189 0.720795 0.292138 -0.032631
H28   H     H_    0.889361 0.501059 0.157875 0.129438
H29   H     H_    0.485266 0.545046 0.094269 0.084565
H30   H     H_    0.653099 0.606061 0.017662 0.097451
H31   H     H_    0.565846 0.579837 0.888631 0.102029
H32   H     H_    0.302151 0.506646 0.845696 0.122716
H33   H     H_    0.507624 0.995820 0.429738 0.079637
H34   H     H_    0.037313 0.294356 0.398633 0.049436
H35   H     H_    0.751518 0.851867 0.566719 0.094624
H36   H     H_    0.880273 0.098275 0.544374 0.079070
H37   H     H_    0.696284 0.997672 0.572500 0.090949
H38   H     H_    0.333208 0.898211 0.449234 0.073573
H39   H     H_    0.921867 0.760120 0.220366 0.198162
H40   H     H_    0.441248 0.133190 0.438253 0.076298
H41   H     H_    0.395462 0.655767 0.473687 0.072945
H42   H     H_    0.815794 0.333614 0.517327 0.078454
H43   H     H_    0.112741 0.825256 0.239366 0.144374
H44   H     H_    0.371067 0.694091 0.627158 -0.013912
H45   H     H_    0.189920 0.199208 0.321038 0.124881
H46   H     H_    0.175741 0.690197 0.581785 0.056150
H47   H     H_    0.603575 0.907682 0.752994 0.326382
H48   H     H_    0.763126 0.234079 0.278426 0.124741
H49   H     H_    0.764368 0.202570 0.362510 0.051924
H50   H     H_    0.776866 0.309254 0.361955 0.101591
H51   H     H_    0.072021 0.089480 0.220357 0.121385
H52   H     H_    0.019375 0.181076 0.201153 0.141909
H53   H     H_    0.873068 0.113473 0.233420 0.126298
H54   H     H_    0.096829 0.076568 0.354460 0.134049
H55   H     H_    0.052320 0.158060 0.423737 0.145756
H56   H     H_    0.826794 0.620718 0.664975 -0.013687
H57   H     H_    0.894659 0.097718 0.360159 0.125859
H58   H     H_    0.805333 0.899093 0.390332 0.130409
H59   H     H_    0.879063 0.869551 0.302449 0.161214
H60   H     H_    0.772131 0.954174 0.322238 0.108460
H61   H     H_    0.579425 0.815368 0.874638 0.335867
H62   H     H_    0.578111 0.421870 0.336727 0.154852
H63   H     H_    0.648287 0.359461 0.256594 0.123207
H64   H     H_    0.485474 0.414067 0.249451 0.038774
H65   H     H_    0.181986 0.302408 0.183962 0.161328
H66   H     H_    0.365154 0.333949 0.145245 0.130630
H67   H     H_    0.615193 0.598648 0.676194 0.085321
H68   H     H_    0.255368 0.234576 0.111116 0.140783
H69   H     H_    0.428291 0.853714 0.149634 0.313247
H70   H     H_    0.067384 0.746183 0.111457 0.164237
H71   H     H_    0.236149 0.719892 0.157194 0.152726
H72   H     H_    0.044494 0.653367 0.141618 0.135339
H73   H     H_    0.996887 0.194018 0.785860 0.166367
H74   H     H_    0.093375 0.238478 0.874831 0.127351
H75   H     H_    0.955269 0.291014 0.836537 0.122880
H76   H     H_    0.810877 0.278619 0.714292 0.084211
H77   H     H_    0.700138 0.215716 0.765043 0.124866
H78   H     H_    0.876590 0.709963 0.784586 0.101891
H79   H     H_    0.758996 0.172669 0.676050 0.105936
H80   H     H_    0.765177 0.615728 0.792710 -0.022690
O1    O     O_2   0.873520 0.443690 0.322540 -0.490534
O2    O     O_2   0.198562 0.223141 0.538013 -0.498818
O3    O     O_3   0.087323 0.240948 0.666343 -0.630290
O4    O     O_3   0.122020 0.450920 0.411670 -0.484206
O5    O     O_3   0.580730 0.598500 0.542710 -0.505885
O6    O     O_2   0.336360 0.303040 0.452600 -0.466021
O7    O     O_3   0.497110 0.261143 0.334063 -0.663985
O8    O     O_2   0.480729 0.460027 0.758778 -0.514349
O9    O     O_3   0.503557 0.305963 0.725386 -0.617163
O10   O     O_3   0.663590 0.591680 0.375790 -0.468949
O11   O     O_2   0.711986 0.545789 0.240882 -0.511495
O12   O     O_3   0.697170 0.713707 0.662992 -0.618407
O13   O     O_3   0.033815 0.316280 0.294905 -0.669797
O14   O     O_3   0.693198 0.700751 0.281453 -0.575981
O15   O     O_2   0.853350 0.696990 0.547450 -0.448469
O16   O     O_3   0.086060 0.635230 0.414460 -0.481941
O17   O     O_2   0.054302 0.780382 0.494175 -0.479379
O18   O     O_2   0.351720 0.836840 0.775795 -0.566090
O19   O     O_R   0.534644 0.885596 0.705841 -0.769277
O20   O     O_2   0.492287 0.680722 0.802573 -0.595108
O21   O     O_R   0.673911 0.792779 0.850923 -0.738201
O22   O     O_2   0.658231 0.795799 0.180026 -0.607505
O23   O     O_3   0.045681 0.768306 0.354065 -0.592853
O24   O     O_R   0.445005 0.862509 0.204150 -0.779697
O25   O     O_2   0.316180 0.556340 0.677510 -0.451295
O26   O     O_3   0.067690 0.549150 0.588340 -0.496576
O27   O     O_3   0.526120 0.408390 0.624220 -0.464816
O28   O     O_3   0.179174 0.684924 0.689772 -0.593081
O29   O     O_3   0.608980 0.401570 0.457310 -0.490343
O30   O     O_3   0.103650 0.364840 0.585560 -0.494173
P1    P     P_3+3 0.040700 0.421000 0.332140 0.952223
P2    P     P_3+3 0.677490 0.686860 0.568200 0.999660
P3    P     P_3+3 0.135134 0.739399 0.427277 0.960256
P4    P     P_3+3 0.149010 0.579070 0.667870 1.022754
P5    P     P_3+3 0.064869 0.261392 0.580125 0.914414
P6    P     P_3+3 0.614867 0.603076 0.289474 0.955033
P7    P     P_3+3 0.511403 0.301110 0.428660 0.926681
P8    P     P_3+3 0.579247 0.401677 0.711806 0.902586

loop_
_geom_bond_atom_site_label_1
_geom_bond_atom_site_label_2
_ccdc_geom_bond_type
Ba1   O26   S    
Ba2   O5    S    
C63   H72   S    
O13   P1    S    
C40   H23   S    
C54   H50   S    
C12   H1    S    
C17   C18   A    
C9    P1    S    
C16   H39   S    
O10   P6    S    
C2    C68   A    
O5    P2    S    
C52   H80   S    
C28   H46   S    
C43   C44   A    
C25   C31   A    
C16   C63   S    
C44   C47   S    
H61   O21   S    
C24   C25   A    
C15   C21   A    
O27   P8    S    
C50   C57   S    
C10   C26   S    
C32   C38   D    
O15   P2    D    
C60   H63   S    
C33   C35   S    
C7    C14   A    
C22   C24   A    
C23   H4    S    
O14   P6    S    
C8    C13   A    
C36   C37   S    
C40   C53   S    
C51   O12   S    
O6    P7    D    
C46   H37   S    
C65   H79   S    
C41   P5    S    
C33   P3    S    
O4    P1    S    
O26   P4    S    
C32   C33   S    
C2    C11   A    
Ba1   O5    S    
C64   H75   S    
C34   H6    S    
Ba2   O26   S    
C55   H52   S    
C63   H70   S    
C56   C64   S    
O17   P3    D    
C66   C67   S    
C40   H12   S    
C39   C44   A    
C49   O13   S    
C59   O21   S    
Ba2   O27   S    
C66   O9    S    
C36   C46   S    
C56   H10   S    
C1    C58   S    
C18   H26   S    
Ba2   O4    S    
C19   C20   A    
C11   H21   S    
C32   H41   S    
C39   C41   A    
Ba2   O30   S    
C53   O18   D    
C68   H17   S    
C16   H43   S    
O1    P1    D    
C38   P2    S    
C4    C16   S    
C39   H36   S    
C27   H29   S    
C31   H32   S    
C4    H27   S    
C60   H62   S    
C5    P8    S    
C58   H58   S    
C35   H38   S    
C7    P6    S    
C51   H56   S    
C58   H60   S    
C37   C38   D    
C3    C5    A    
Ba1   P1    S    
C43   H40   S    
C6    C7    A    
C64   H73   S    
C45   O3    S    
C49   H34   S    
C51   C52   S    
C65   C66   S    
C61   H65   S    
O9    P8    S    
C62   O22   D    
C35   C36   D    
C67   H13   S    
C34   H5    S    
Ba2   O25   S    
C55   H53   S    
C63   H71   S    
C9    C14   A    
C29   C30   A    
Ba1   O15   S    
C65   H76   S    
C48   H42   S    
C28   O28   S    
Ba2   P4    S    
C29   H30   S    
C2    P4    S    
C61   H68   S    
C4    H15   S    
C8    H20   S    
C1    C12   S    
C56   H9    S    
C3    C10   A    
C46   C47   D    
C4    O23   S    
C14   H22   S    
C6    C13   A    
C8    C9    A    
C65   H77   S    
C54   H49   S    
C51   H67   S    
C21   C26   A    
Ba2   O29   S    
C66   H11   S    
C62   O24   S    
C50   C55   S    
C34   C61   S    
C17   H25   S    
C42   C43   A    
C52   H78   S    
C28   H44   S    
C50   H45   S    
C42   C48   A    
C57   H54   S    
C37   H35   S    
C10   C68   A    
C13   C22   S    
C64   H74   S    
Ba2   O6    S    
C23   C34   S    
C30   H31   S    
C54   H48   S    
Ba1   O10   S    
O16   P3    S    
C49   C54   S    
O2    P5    D    
O8    P8    D    
C58   H59   S    
C47   H33   S    
Ba1   P2    S    
C41   C48   A    
O12   P2    S    
C15   H24   S    
C52   C59   S    
C1    C62   S    
C57   H55   S    
C6    H19   S    
C12   H2    S    
C30   C31   A    
C60   H64   S    
C49   C50   S    
C27   C29   A    
C67   H14   S    
C61   H66   S    
C45   C56   S    
C23   O7    S    
C19   H28   S    
Ba1   O29   S    
O3    P5    S    
Ba1   O16   S    
Ba1   Ba2   S    
C15   C17   A    
Ba1   O1    S    
C20   C22   A    
C23   C60   S    
C12   O14   S    
Ba1   O4    S    
C1    H3    S    
O7    P7    S    
O30   P5    S    
C42   P7    S    
C55   H51   S    
H47   O19   S    
C5    C11   A    
O29   P7    S    
C18   C19   A    
O23   P3    S    
C24   C27   A    
C25   C26   A    
C3    H18   S    
C45   H7    S    
C20   C21   A    
C28   C40   S    
H69   O24   S    
C59   O20   D    
C45   H8    S    
C57   H57   S    
C53   O19   S    
O28   P4    S    
C67   H16   S    
O25   P4    D    
O11   P6    D    
