data_mof_unit_43919.cif
_audit_creation_date              2012-12-11T16:04:50-0500
_audit_creation_method            fapswitch 2.2
_symmetry_space_group_name_H-M    P1
_symmetry_Int_Tables_number       1
_space_group_crystal_system       triclinic
_cell_length_a                    10.67377
_cell_length_b                    10.647917
_cell_length_c                    16.943943
_cell_angle_alpha                 98.522002
_cell_angle_beta                  98.480775
_cell_angle_gamma                 61.356291
_cell_volume                      1664.90559856

loop_
_atom_site_label
_atom_site_type_symbol
_atom_type_description
_atom_site_fract_x
_atom_site_fract_y
_atom_site_fract_z
_atom_type_partial_charge
C1    C     C_R   0.355462 0.773558 0.398361 0.545540
C2    C     C_3   0.291749 0.737530 0.248881 -0.113211
C3    C     C_3   0.347585 0.811437 0.319288 0.062229
C4    C     C_R   0.370770 0.346893 0.358729 0.564926
C5    C     C_3   0.473751 0.783779 0.273683 -0.117151
C6    C     C_3   0.379562 0.932204 0.240949 -0.116797
C7    C     C_3   0.254909 0.958011 0.288505 -0.148270
C8    C     C_3   0.197810 0.885342 0.217468 -0.107014
C9    C     C_3   0.323118 0.858080 0.170960 0.060891
C10   C     C_3   0.482588 0.285425 0.794419 -0.119604
C11   C     C_3   0.425863 0.431170 0.759397 -0.152190
C12   C     C_3   0.697900 0.403334 0.256550 -0.129832
C13   C     C_3   0.379077 0.367116 0.680706 0.045891
C14   C     C_3   0.435911 0.222221 0.714887 -0.097405
C15   C     C_3   0.286685 0.274654 0.742823 -0.105493
C16   C     C_R   0.780499 0.374748 0.403103 0.571991
C17   C     C_3   0.229737 0.420106 0.708155 -0.098837
C18   C     C_3   0.275943 0.483198 0.788574 -0.125840
C19   C     C_3   0.333620 0.337563 0.821934 0.050662
C20   C     C_1   0.816893 0.341797 0.709664 -0.043800
C21   C     C_1   0.843518 0.315237 0.778197 -0.044861
C22   C     C_1   0.338037 0.811908 0.709742 -0.046043
C23   C     C_3   0.822920 0.345779 0.322443 0.073706
C24   C     C_1   0.313481 0.839255 0.778546 -0.045176
C25   C     C_R   0.889631 0.311552 0.089967 0.541458
C26   C     C_R   0.319102 0.299745 0.120234 0.538202
C27   C     C_R   0.293725 0.892822 0.089126 0.545347
C28   C     C_R   0.356586 0.771019 0.627257 0.536329
C29   C     C_R   0.884898 0.299624 0.860925 0.542921
C30   C     C_R   0.310955 0.297292 0.894610 0.542577
C31   C     C_R   0.280238 0.884709 0.859043 0.543603
C32   C     C_R   0.408621 0.377746 0.601351 0.559041
C33   C     C_R   0.773737 0.379540 0.629674 0.540360
C34   C     C_3   0.896696 0.202889 0.271632 -0.142015
C35   C     C_1   0.344085 0.336629 0.275019 -0.077266
C36   C     C_1   0.331896 0.326806 0.203846 -0.070356
C37   C     C_3   0.773045 0.260109 0.204522 -0.126900
C38   C     C_2   0.977885 0.490037 0.328635 0.224555
C39   C     C_3   0.976551 0.267300 0.235466 -0.126261
C40   C     C_3   0.900438 0.409810 0.286644 0.020645
C41   C     C_3   0.777081 0.468355 0.220833 -0.150872
C42   C     C_3   0.851276 0.325671 0.170244 0.042574
C43   C     C_3   0.416297 0.711414 0.201815 -0.155300
Cr1   Cr    Cr6+3 0.608340 0.611040 0.520430 1.046858
Cr2   Cr    Cr6+3 0.287650 0.601120 0.489350 1.066491
Cr3   Cr    Cr6+3 0.604040 0.287870 0.490280 1.028013
Cr4   Cr    Cr6+3 0.054020 0.052700 0.970850 1.019909
Cr5   Cr    Cr6+3 0.059230 0.375120 0.993390 1.023056
Cr6   Cr    Cr6+3 0.374950 0.061200 0.992340 1.021612
H1    H     H_    0.583471 0.455878 0.268606 0.116224
H2    H     H_    0.210793 0.589268 0.820707 0.135849
H3    H     H_    0.719034 0.200765 0.168721 0.130423
H4    H     H_    0.943190 0.096675 0.295624 0.117273
H5    H     H_    0.090812 0.215042 0.223064 0.111567
H6    H     H_    0.730205 0.575066 0.197329 0.113824
H7    H     H_    0.255070 0.657534 0.253506 0.127477
H8    H     H_    0.477515 0.614085 0.162000 0.105601
H9    H     H_    0.585874 0.744358 0.300656 0.137564
H10   H     H_    0.018739 0.537602 0.293600 0.102758
H11   H     H_    0.416030 0.011786 0.235087 0.137070
H12   H     H_    0.194248 0.055108 0.328599 0.117171
H13   H     H_    0.084428 0.924729 0.192736 0.136905
H14   H     H_    0.484013 0.495249 0.764071 0.104680
H15   H     H_    0.585763 0.231012 0.831378 0.129756
H16   H     H_    0.501200 0.114541 0.684315 0.143105
H17   H     H_    0.228690 0.210188 0.737360 0.116873
H18   H     H_    0.126483 0.474559 0.671287 0.150158
O1    O     O_R   0.751220 0.499230 0.435170 -0.469413
O2    O     O_R   0.412990 0.180750 0.091610 -0.519330
O3    O     O_R   0.366620 0.943130 0.065760 -0.505460
O4    O     O_R   0.477220 0.727600 0.436870 -0.504645
O5    O     O_R   0.160510 0.906330 0.879210 -0.511729
O6    O     O_R   0.930190 0.179050 0.889450 -0.498503
O7    O     O_R   0.909140 0.398170 0.896710 -0.507794
O8    O     O_R   0.186190 0.363460 0.918830 -0.500196
O9    O     O_R   0.401670 0.173200 0.913310 -0.516576
O10   O     O_R   0.356120 0.936130 0.900470 -0.493800
O11   O     O_3   0.162740 0.163010 0.985530 -0.255621
O12   O     O_R   0.297880 0.469080 0.560050 -0.476049
O13   O     O_R   0.258650 0.745120 0.411470 -0.518717
O14   O     O_R   0.297070 0.467240 0.395960 -0.471509
O15   O     O_R   0.488830 0.252610 0.387790 -0.506637
O16   O     O_R   0.724400 0.302390 0.420980 -0.512900
O17   O     O_R   0.752100 0.501210 0.612190 -0.500908
O18   O     O_R   0.478040 0.729440 0.600970 -0.499995
O19   O     O_R   0.259530 0.747110 0.588490 -0.510918
O20   O     O_2   0.996813 0.501304 0.401554 -0.476071
O21   O     O_R   0.489720 0.254590 0.564810 -0.513707
O22   O     O_R   0.725220 0.304230 0.585080 -0.515151
O23   O     O_3   0.500010 0.500010 0.500020 -0.297018
O24   O     O_R   0.171830 0.913880 0.057510 -0.524382
O25   O     O_R   0.940690 0.186050 0.054730 -0.503472
O26   O     O_R   0.920470 0.405720 0.075010 -0.521176
O27   O     O_R   0.196690 0.370460 0.084120 -0.501493

loop_
_geom_bond_atom_site_label_1
_geom_bond_atom_site_label_2
_ccdc_geom_bond_type
C26   O27   A    
C11   C18   S    
C25   O26   A    
C34   C37   S    
C41   C42   S    
C13   C32   S    
C35   C36   T    
C6    C9    S    
C7    C8    S    
Cr3   O22   S    
C15   C19   S    
C12   C23   S    
C1    O4    A    
Cr5   O27   S    
C5    H9    S    
C11   H14   S    
C5    C6    S    
C39   H5    S    
C29   O6    A    
C23   C40   S    
C32   O21   A    
C12   C37   S    
Cr6   O11   S    
Cr1   O4    S    
C18   C19   S    
Cr4   O25   S    
Cr5   O11   S    
C37   C42   S    
C41   H6    S    
Cr3   O15   S    
C7    H12   S    
C4    O14   A    
C8    C9    S    
C27   O24   A    
C16   O1    A    
C10   C19   S    
C5    C43   S    
C4    C35   S    
Cr6   O2    S    
C13   C14   S    
Cr5   O8    S    
C18   H2    S    
C31   O10   A    
C39   C42   S    
Cr3   O21   S    
Cr2   O14   S    
C9    C43   S    
C17   H18   S    
Cr5   O26   S    
C34   C39   S    
Cr5   O7    S    
Cr4   O6    S    
C10   C14   S    
C6    H11   S    
C39   C40   S    
C37   H3    S    
C29   O7    A    
Cr1   O17   S    
C15   H17   S    
C21   C29   S    
C16   O16   A    
Cr3   O16   S    
C1    C3    S    
C12   C41   S    
C33   O22   A    
C30   O9    A    
C2    C43   S    
C23   C34   S    
C17   C18   S    
Cr6   O9    S    
Cr2   O12   S    
Cr2   O23   S    
C27   O3    A    
C20   C33   S    
C26   C36   S    
C31   O5    A    
C16   C23   S    
Cr6   O3    S    
C28   O19   A    
C22   C24   T    
Cr1   O1    S    
Cr1   O18   S    
Cr1   O23   S    
C9    C27   S    
C15   C17   S    
C40   C41   S    
C25   O25   A    
Cr4   O24   S    
C2    C8    S    
C3    C5    S    
C25   C42   S    
C12   H1    S    
C6    C7    S    
Cr3   O23   S    
C3    C7    S    
C13   C17   S    
C38   O20   D    
C10   H15   S    
Cr2   O19   S    
C24   C31   S    
C2    H7    S    
C32   O12   A    
C38   C40   S    
C30   O8    A    
C11   C13   S    
C14   H16   S    
Cr6   O10   S    
C2    C3    S    
Cr2   O13   S    
C33   O17   A    
Cr4   O5    S    
C10   C11   S    
C43   H8    S    
C38   H10   S    
C4    O15   A    
C20   C21   T    
C34   H4    S    
C28   O18   A    
C26   O2    A    
C14   C15   S    
C1    O13   A    
C22   C28   S    
Cr4   O11   S    
C19   C30   S    
C8    H13   S    
