data_mof_unit_18640.cif
_audit_creation_date              2012-12-10T20:34:15-0500
_audit_creation_method            fapswitch 2.2
_symmetry_space_group_name_H-M    P1
_symmetry_Int_Tables_number       1
_space_group_crystal_system       triclinic
_cell_length_a                    9.90747
_cell_length_b                    10.722163
_cell_length_c                    13.646353
_cell_angle_alpha                 90.985673
_cell_angle_beta                  83.984815
_cell_angle_gamma                 90.169388
_cell_volume                      1441.44955331

loop_
_atom_site_label
_atom_site_type_symbol
_atom_type_description
_atom_site_fract_x
_atom_site_fract_y
_atom_site_fract_z
_atom_type_partial_charge
C1    C     C_R   0.500396 0.739689 0.499678 0.885451
C2    C     C_3   0.246434 0.928563 0.495264 -0.523117
C3    C     C_R   0.917017 0.484209 0.585063 0.112178
C4    C     C_R   0.476474 0.499706 0.685365 0.909911
C5    C     C_R   0.939159 0.502217 0.414425 -0.217991
C6    C     C_R   0.082259 0.495814 0.413573 0.526097
C7    C     C_R   0.058440 0.485467 0.585146 0.071711
C8    C     C_3   0.051381 0.558741 0.679481 0.316964
C9    C     C_3   0.897256 0.559703 0.678280 -0.532912
C10   C     C_R   0.499965 0.260156 0.500502 0.866244
C11   C     C_R   0.523315 0.500684 0.314653 0.878779
C12   C     C_1   0.458193 0.500001 0.788603 -0.220191
C13   C     C_1   0.539021 0.506469 0.211591 -0.188099
C14   C     C_2   0.544774 0.516929 0.021260 -0.201281
C15   C     C_2   0.428467 0.504391 0.980283 0.124903
C16   C     C_1   0.441222 0.501237 0.875998 -0.044092
C17   C     C_1   0.546774 0.512007 0.124428 -0.012728
C18   C     C_3   0.288915 0.488831 0.036972 -0.369295
C19   C     C_3   0.188546 0.586366 0.007186 -0.358885
C20   C     C_3   0.051697 0.577865 0.069409 -0.876449
C21   C     C_3   0.182095 0.355797 0.301335 0.135965
C22   C     C_3   0.063145 0.293070 0.257174 -0.994734
C23   C     C_R   0.382109 0.936120 0.533623 0.046202
C24   C     C_3   0.125041 0.730464 0.761874 0.070932
C25   C     C_3   0.145932 0.870673 0.755869 -0.784928
C26   C     C_3   0.024962 0.141433 0.544608 0.102645
C27   C     C_3   0.920843 0.170988 0.631967 -0.819901
C28   C     C_R   0.501823 0.871542 0.506336 -0.094026
C29   C     C_R   0.625525 0.935841 0.492570 -0.222613
C30   C     C_R   0.624948 0.064381 0.492453 -0.220649
C31   C     C_R   0.501022 0.128374 0.508348 -0.157204
C32   C     C_R   0.381771 0.063348 0.536694 0.134728
C33   C     C_3   0.243659 0.070338 0.502318 0.299127
H1    H     H_    0.088083 0.502160 0.739325 0.061262
H2    H     H_    0.894554 0.505270 0.345513 0.183190
H3    H     H_    0.004568 0.485311 0.058242 0.255468
H4    H     H_    0.064191 0.592441 0.148743 0.292998
H5    H     H_    0.982765 0.650965 0.046650 0.242611
H6    H     H_    0.230962 0.681596 0.015779 0.227640
H7    H     H_    0.171458 0.570397 0.928933 0.205480
H8    H     H_    0.250314 0.393892 0.021243 0.191529
H9    H     H_    0.293214 0.497293 0.117608 0.234690
H10   H     H_    0.208493 0.303753 0.366275 0.133776
H11   H     H_    0.271936 0.348297 0.245761 0.161196
H12   H     H_    0.843507 0.506308 0.739712 0.165859
H13   H     H_    0.030006 0.350360 0.197247 0.280656
H14   H     H_    0.095047 0.199961 0.226359 0.230916
H15   H     H_    0.976694 0.279432 0.314560 0.243623
H16   H     H_    0.216284 0.689063 0.789416 0.147931
H17   H     H_    0.034326 0.713843 0.815834 0.133036
H18   H     H_    0.062373 0.914122 0.720293 0.270942
H19   H     H_    0.146854 0.911221 0.831225 0.201832
H20   H     H_    0.244720 0.891501 0.713508 0.261986
H21   H     H_    0.987458 0.060348 0.502950 0.133833
H22   H     H_    0.035152 0.224081 0.496272 0.127229
H23   H     H_    0.853970 0.653409 0.667139 0.228376
H24   H     H_    0.961104 0.243432 0.680306 0.252342
H25   H     H_    0.826056 0.206449 0.605913 0.224516
H26   H     H_    0.897303 0.085609 0.675436 0.245373
H27   H     H_    0.641409 0.527003 0.976219 0.142625
H28   H     H_    0.721401 0.887686 0.475895 0.173746
H29   H     H_    0.720173 0.112502 0.473918 0.167218
H30   H     H_    0.243236 0.117455 0.430415 0.047143
H31   H     H_    0.168488 0.882288 0.546633 0.262288
H32   H     H_    0.252991 0.892413 0.418036 0.172166
N1    N     N_R   0.857130 0.500860 0.500650 -0.118561
N2    N     N_R   0.142770 0.500820 0.500650 -0.141994
O1    O     O_R   0.385310 0.683210 0.499990 -0.577407
O2    O     O_3   0.108438 0.679309 0.667641 -0.571920
O3    O     O_3   0.150170 0.115133 0.580107 -0.580551
O4    O     O_R   0.614650 0.683240 0.500000 -0.624404
O5    O     O_R   0.368820 0.499950 0.640340 -0.598210
O6    O     O_R   0.598170 0.499990 0.640350 -0.606671
O7    O     O_R   0.385350 0.316760 0.500000 -0.631149
O8    O     O_R   0.614690 0.316790 0.500010 -0.622298
O9    O     O_R   0.401830 0.500010 0.359650 -0.579843
O10   O     O_R   0.631180 0.500050 0.359660 -0.622316
O11   O     O_3   0.157989 0.484133 0.323221 -0.611540
Zn1   Zn    Zn3+2 0.346870 0.499980 0.499990 1.001537
Zn2   Zn    Zn3+2 0.653130 0.500020 0.500010 0.939110

loop_
_geom_bond_atom_site_label_1
_geom_bond_atom_site_label_2
_ccdc_geom_bond_type
C15   C18   S    
C22   H15   S    
C9    H12   S    
C10   O7    A    
C19   C20   S    
O9    Zn1   S    
C2    H32   S    
C26   H22   S    
C7    C8    S    
C8    O2    S    
C1    O4    A    
C28   C29   A    
C25   H20   S    
O5    Zn1   S    
C3    C7    A    
C11   O9    A    
C18   H9    S    
C30   C31   A    
C6    O11   S    
C15   C16   S    
C1    O1    A    
C18   C19   S    
C11   O10   A    
C21   H10   S    
C10   C31   S    
C12   C16   T    
C8    C9    S    
C21   O11   S    
C1    C28   S    
C4    C12   S    
O8    Zn2   S    
O1    Zn1   S    
C22   H14   S    
C21   C22   S    
C14   C17   S    
C26   H21   S    
O4    Zn2   S    
C2    H31   S    
C24   O2    S    
C24   H17   S    
C29   H28   S    
N2    Zn1   S    
C24   C25   S    
C27   H24   S    
C18   H8    S    
C25   H18   S    
C29   C30   A    
C3    C9    S    
C21   H11   S    
C20   H5    S    
C10   O8    A    
C31   C32   A    
C33   H30   S    
C26   C27   S    
C9    H23   S    
C8    H1    S    
C23   C28   A    
C4    O6    A    
C19   H6    S    
C33   O3    S    
C2    C33   S    
C6    N2    A    
C22   H13   S    
O7    Zn1   S    
C30   H29   S    
C26   O3    S    
C3    N1    A    
C4    O5    A    
N1    Zn2   S    
O10   Zn2   S    
C24   H16   S    
C5    N1    A    
C27   H25   S    
C14   H27   S    
C13   C17   T    
C23   C32   A    
C25   H19   S    
C27   H26   S    
C32   C33   S    
C20   H4    S    
C11   C13   S    
C5    C6    A    
C5    H2    S    
O6    Zn2   S    
C19   H7    S    
C7    N2    A    
C20   H3    S    
C2    C23   S    
C14   C15   D    
