data_mof_unit_50223.cif
_audit_creation_date              2012-10-26T19:24:24-0400
_audit_creation_method            fapswitch 2.2
_symmetry_space_group_name_H-M    P1
_symmetry_Int_Tables_number       1
_space_group_crystal_system       triclinic
_cell_length_a                    27.839191
_cell_length_b                    10.824607
_cell_length_c                    9.568283
_cell_angle_alpha                 89.325549
_cell_angle_beta                  90.239217
_cell_angle_gamma                 92.565976
_cell_volume                      2880.27597872

loop_
_atom_site_label
_atom_site_type_symbol
_atom_type_description
_atom_site_fract_x
_atom_site_fract_y
_atom_site_fract_z
_atom_type_partial_charge
C1    C     C_R   0.502469 0.262106 0.501826 0.552716
C2    C     C_R   0.972645 0.404069 0.479751 0.030138
C3    C     C_R   0.976848 0.630336 0.506307 -0.008391
C4    C     C_R   0.407420 0.499456 0.499611 0.578083
C5    C     C_R   0.949444 0.517751 0.491580 0.025062
C6    C     C_R   0.944033 0.295243 0.455083 -0.135902
C7    C     C_R   0.894295 0.297021 0.449811 -0.097215
C8    C     C_R   0.871038 0.407193 0.468588 0.024562
C9    C     C_R   0.898368 0.518453 0.489194 -0.074163
C10   C     C_R   0.874509 0.629736 0.507834 0.057673
C11   C     C_R   0.823661 0.625622 0.506275 0.434006
C12   C     C_R   0.276805 0.480315 0.381736 -0.098077
C13   C     C_R   0.820744 0.408266 0.467322 0.403076
C14   C     C_R   0.720272 0.514668 0.367118 -0.060513
C15   C     C_R   0.670242 0.510521 0.371546 -0.179962
C16   C     C_R   0.495731 0.736680 0.499636 0.533039
C17   C     C_R   0.672830 0.503548 0.626278 0.241525
C18   C     C_R   0.723338 0.508322 0.619824 -0.039956
C19   C     C_R   0.746840 0.513606 0.491067 0.204623
C20   C     C_R   0.023494 0.402683 0.491880 0.031497
C21   C     C_R   0.051030 0.516266 0.497753 0.026431
C22   C     C_R   0.027951 0.630239 0.499905 -0.007630
C23   C     C_R   0.253511 0.507860 0.505884 0.245068
C24   C     C_R   0.047887 0.291015 0.499752 -0.134899
C25   C     C_R   0.107186 0.741059 0.494657 0.261315
C26   C     C_R   0.952207 0.739527 0.529437 -0.130816
C27   C     C_R   0.901845 0.740733 0.529536 0.259686
C28   C     C_R   0.592617 0.501054 0.500391 0.564675
C29   C     C_R   0.056799 0.740906 0.493475 -0.128384
C30   C     C_R   0.509068 0.106899 0.768383 -0.097771
C31   C     C_R   0.495489 0.041723 0.889402 -0.167474
C32   C     C_R   0.469533 0.929558 0.879528 -0.048652
C33   C     C_R   0.460920 0.876254 0.749180 0.277145
C34   C     C_R   0.102101 0.515554 0.501188 -0.074553
C35   C     C_R   0.482063 0.933166 0.627177 0.019461
C36   C     C_R   0.498398 0.057975 0.634421 0.006505
C37   C     C_R   0.503700 0.126833 0.506993 0.006072
C38   C     C_R   0.504006 0.064435 0.379591 -0.139400
C39   C     C_R   0.499485 0.937009 0.377173 -0.150138
C40   C     C_R   0.175433 0.401915 0.508278 0.415917
C41   C     C_R   0.489712 0.870003 0.500463 -0.012635
C42   C     C_R   0.562659 0.667584 0.142658 -0.144265
C43   C     C_R   0.593160 0.752418 0.070345 0.190031
C44   C     C_R   0.593162 0.751545 0.924396 0.271548
C45   C     C_R   0.125131 0.402089 0.505004 0.026051
C46   C     C_R   0.562977 0.666899 0.854570 -0.028300
C47   C     C_R   0.530881 0.582406 0.924586 0.113453
C48   C     C_R   0.530802 0.582553 0.073980 0.106199
C49   C     C_R   0.470702 0.421456 0.074676 0.024495
C50   C     C_R   0.470709 0.421511 0.926555 0.009867
C51   C     C_R   0.180889 0.622370 0.503468 0.469526
C52   C     C_R   0.280097 0.531644 0.627999 0.293752
C53   C     C_R   0.330437 0.528001 0.623952 -0.188246
C54   C     C_R   0.327128 0.476361 0.376780 0.221886
C55   C     C_R   0.097648 0.290995 0.505985 -0.097411
C56   C     C_R   0.130228 0.627699 0.500516 0.055874
C57   C     C_R   0.354305 0.500947 0.499351 0.008788
C58   C     C_R   0.645856 0.504658 0.500319 0.046346
Cu1   Cu    Cu3+1 0.500000 0.499990 0.640660 0.984662
Cu2   Cu    Cu3+1 0.500000 0.500010 0.359340 0.964161
H1    H     H_    0.041085 0.829592 0.482723 0.091934
H2    H     H_    0.673816 0.498496 0.830033 0.326078
H3    H     H_    0.903264 0.918872 0.563194 0.315833
H4    H     H_    0.744614 0.507173 0.714854 0.118950
H5    H     H_    0.529924 0.192220 0.782688 0.168827
H6    H     H_    0.255406 0.461812 0.288861 0.126418
H7    H     H_    0.455620 0.884270 0.973421 0.142275
H8    H     H_    0.415871 0.768697 0.648108 0.323701
H9    H     H_    0.504105 0.891043 0.278444 0.143143
H10   H     H_    0.446725 0.357128 0.130678 0.145182
H11   H     H_    0.565577 0.671677 0.252645 0.182384
H12   H     H_    0.509035 0.113890 0.281265 0.139512
H13   H     H_    0.618902 0.825039 0.242544 0.330266
H14   H     H_    0.641736 0.886872 0.906626 0.389518
H15   H     H_    0.566729 0.671448 0.744515 0.216741
H16   H     H_    0.446766 0.357179 0.871563 0.120677
H17   H     H_    0.114530 0.202772 0.511441 0.171050
H18   H     H_    0.650665 0.511964 0.273528 0.148489
H19   H     H_    0.738464 0.518720 0.267247 0.146795
H20   H     H_    0.958997 0.206970 0.436061 0.108874
H21   H     H_    0.029523 0.201367 0.504807 0.104268
H22   H     H_    0.503530 0.080672 0.991012 0.116507
H23   H     H_    0.874071 0.210861 0.431289 0.181763
H24   H     H_    0.350951 0.547196 0.718293 0.150475
H25   H     H_    0.325711 0.432951 0.179578 0.325857
H26   H     H_    0.279825 0.571892 0.825475 0.328315
H27   H     H_    0.112630 0.921922 0.486868 0.317993
H28   H     H_    0.971270 0.825557 0.552762 0.093436
N1    N     N_R   0.202059 0.510841 0.507118 -0.385972
N2    N     N_R   0.798293 0.516136 0.486777 -0.416662
N3    N     N_R   0.500460 0.501210 0.147910 -0.233810
N4    N     N_R   0.500480 0.501290 0.852040 -0.229848
O1    O     O_R   0.500000 0.319640 0.618810 -0.520756
O2    O     O_R   0.569730 0.499970 0.618800 -0.462310
O3    O     O_R   0.569740 0.499990 0.381230 -0.541565
O4    O     O_2   0.197703 0.293669 0.512562 -0.463466
O5    O     O_3   0.350027 0.447325 0.254367 -0.676036
O6    O     O_3   0.256028 0.557579 0.749307 -0.642910
O7    O     O_3   0.134200 0.851462 0.489170 -0.612939
O8    O     O_3   0.649608 0.497212 0.753666 -0.677783
O9    O     O_3   0.879032 0.849737 0.551740 -0.619541
O10   O     O_3   0.428986 0.775121 0.744359 -0.671144
O11   O     O_3   0.623440 0.835683 0.140311 -0.692780
O12   O     O_2   0.794345 0.302107 0.448109 -0.464220
O13   O     O_3   0.622408 0.831130 0.844845 -0.669428
O14   O     O_2   0.209010 0.727167 0.501924 -0.375420
O15   O     O_2   0.799502 0.729550 0.524057 -0.385900
O16   O     O_R   0.500000 0.319660 0.381240 -0.506587
O17   O     O_R   0.430260 0.500010 0.618770 -0.504826
O18   O     O_R   0.430270 0.500030 0.381200 -0.429787
O19   O     O_R   0.500000 0.680340 0.618760 -0.497045
O20   O     O_R   0.500000 0.680360 0.381190 -0.534684

loop_
_geom_bond_atom_site_label_1
_geom_bond_atom_site_label_2
_ccdc_geom_bond_type
C10   C27   A    
C7    H23   S    
C4    O17   A    
C34   C56   A    
C8    C13   A    
C22   C29   A    
C13   N2    A    
C47   N4    A    
C35   C36   A    
C25   C56   A    
C43   C44   A    
C7    C8    A    
C39   C41   A    
C31   C32   A    
C44   O13   S    
C24   C55   A    
C12   C23   A    
C26   C27   A    
C31   H22   S    
C28   O3    A    
C36   C37   A    
H8    O10   S    
C18   C19   A    
C30   C31   A    
C55   H17   S    
C15   H18   S    
C28   O2    A    
C51   C56   A    
C33   C35   A    
C25   O7    S    
C20   C24   A    
C8    C9    A    
C48   N3    A    
C4    C57   S    
Cu1   O19   S    
C23   N1    S    
C54   O5    S    
Cu1   O2    S    
C40   N1    A    
C9    C10   A    
Cu2   O16   S    
C1    C37   S    
C17   C58   A    
Cu1   Cu2   S    
C29   H1    S    
C21   C22   A    
C2    C6    A    
C49   N3    A    
C35   C41   A    
C46   H15   S    
C44   C46   A    
H27   O7    S    
C25   C29   A    
C40   C45   A    
C38   H12   S    
C2    C20   A    
C33   O10   S    
H25   O5    S    
C26   H28   S    
C53   C57   A    
C21   C34   A    
C12   H6    S    
C27   O9    S    
C24   H21   S    
C5    C9    A    
C37   C38   A    
Cu2   O20   S    
C50   H16   S    
C6    H20   S    
C47   C48   A    
C17   C18   A    
C39   H9    S    
C34   C45   A    
C42   C48   A    
C14   H19   S    
C13   O12   S    
C32   H7    S    
H2    O8    S    
C50   N4    A    
C49   H10   S    
C53   H24   S    
C11   O15   S    
C15   C58   A    
C2    C5    A    
C42   C43   A    
C52   C53   A    
C16   O20   A    
Cu2   N3    S    
C4    O18   A    
C46   C47   A    
C14   C19   A    
C3    C26   A    
C3    C5    A    
C6    C7    A    
C28   C58   S    
C30   C36   A    
C32   C33   A    
C40   O4    S    
H3    O9    S    
C19   N2    S    
C51   N1    A    
H14   O13   S    
C11   N2    A    
C18   H4    S    
C23   C52   A    
C38   C39   A    
C51   O14   S    
C52   O6    S    
C42   H11   S    
Cu1   O17   S    
Cu1   N4    S    
H26   O6    S    
C17   O8    S    
C43   O11   S    
C30   H5    S    
Cu2   O18   S    
C10   C11   A    
C1    O16   A    
Cu2   O3    S    
H13   O11   S    
C20   C21   A    
C45   C55   A    
C1    O1    A    
C49   C50   A    
C14   C15   A    
C3    C22   A    
Cu1   O1    S    
C16   C41   S    
C12   C54   A    
C16   O19   A    
C54   C57   A    
