data_mof_unit_32048.cif
_audit_creation_date              2012-12-10T18:20:40-0500
_audit_creation_method            fapswitch 2.2
_symmetry_space_group_name_H-M    P1
_symmetry_Int_Tables_number       1
_space_group_crystal_system       triclinic
_cell_length_a                    14.082512
_cell_length_b                    13.595882
_cell_length_c                    14.946136
_cell_angle_alpha                 89.276527
_cell_angle_beta                  90.87533
_cell_angle_gamma                 81.989327
_cell_volume                      2833.08058974

loop_
_atom_site_label
_atom_site_type_symbol
_atom_type_description
_atom_site_fract_x
_atom_site_fract_y
_atom_site_fract_z
_atom_type_partial_charge
C1    C     C_R   0.499147 0.501629 0.326859 0.950234
C2    C     C_R   0.388808 0.376805 0.955032 0.687864
C3    C     C_R   0.809065 0.438914 0.558621 0.616733
C4    C     C_R   0.190477 0.566989 0.447151 0.616148
C5    C     C_R   0.789305 0.555751 0.437664 -0.090175
C6    C     C_R   0.212432 0.430427 0.549694 -0.067852
C7    C     C_R   0.890134 0.553227 0.432184 -0.138416
C8    C     C_R   0.112664 0.425122 0.547925 -0.119538
C9    C     C_R   0.950846 0.489365 0.490301 -0.098767
C10   C     C_R   0.051902 0.489711 0.490464 -0.106797
C11   C     C_R   0.910532 0.426303 0.549431 -0.215664
C12   C     C_R   0.500532 0.499256 0.673131 0.938446
C13   C     C_R   0.091784 0.557087 0.435378 -0.228527
C14   C     C_R   0.932097 0.611164 0.368767 0.381346
C15   C     C_R   0.072743 0.355153 0.600496 0.367669
C16   C     C_R   0.517803 0.313964 0.500694 0.901875
C17   C     C_R   0.482267 0.686039 0.499349 0.903590
C18   C     C_R   0.031715 0.613697 0.371370 0.531271
C19   C     C_R   0.972833 0.354181 0.599177 0.525775
C20   C     C_1   0.468510 0.790301 0.493967 -0.176906
C21   C     C_1   0.531953 0.209637 0.504019 -0.144918
C22   C     C_2   0.461684 0.982029 0.483428 -0.164424
C23   C     C_R   0.497410 0.502461 0.953269 -0.059133
C24   C     C_2   0.540533 0.017525 0.509572 -0.125723
C25   C     C_1   0.539656 0.121503 0.507054 0.028397
C26   C     C_1   0.461511 0.878287 0.488532 0.023991
C27   C     C_R   0.445766 0.436599 0.814078 0.633622
C28   C     C_R   0.550702 0.568165 0.185917 0.603280
C29   C     C_R   0.500789 0.498501 0.768665 -0.227764
C30   C     C_R   0.497165 0.504810 0.231299 -0.202159
C31   C     C_R   0.553638 0.562084 0.813787 -0.343128
C32   C     C_R   0.441651 0.443834 0.186018 -0.276991
C33   C     C_R   0.552283 0.564719 0.906175 0.087673
C34   C     C_R   0.496544 0.504779 0.046514 -0.059756
C35   C     C_R   0.441555 0.442611 0.093572 0.070153
C36   C     C_3   0.760646 0.450284 0.704762 0.127792
C37   C     C_3   0.848340 0.433780 0.767945 -0.333358
C38   C     C_3   0.827969 0.488001 0.855840 -0.966365
C39   C     C_3   0.219491 0.727124 0.467062 0.134578
C40   C     C_3   0.123566 0.795949 0.458851 -0.338620
C41   C     C_3   0.124766 0.888681 0.514997 -0.971570
C42   C     C_3   0.852036 0.615664 0.233894 0.122184
C43   C     C_3   0.928899 0.611731 0.162052 -0.297364
C44   C     C_3   0.896851 0.565535 0.076248 -0.941369
C45   C     C_R   0.443508 0.437934 0.907096 -0.146226
C46   C     C_3   0.157994 0.201572 0.624435 0.086445
C47   C     C_3   0.241483 0.147929 0.680744 -0.243379
C48   C     C_3   0.268124 0.040595 0.652023 -0.979619
C49   C     C_R   0.550539 0.569194 0.092729 -0.128631
C50   C     C_R   0.604102 0.629431 0.951835 -0.304756
C51   C     C_R   0.388003 0.379492 0.047822 -0.289717
C52   C     C_R   0.602897 0.632442 0.044603 0.657964
F1    F     F_    0.396302 0.374536 0.767187 -0.620602
F2    F     F_    0.601016 0.629200 0.233034 -0.641681
F3    F     F_    0.652114 0.698042 0.086473 -0.637863
F4    F     F_    0.336031 0.314418 0.912847 -0.602491
F5    F     F_    0.069346 0.670488 0.309514 -0.642506
F6    F     F_    0.937562 0.282081 0.646715 -0.645291
H1    H     H_    0.603996 0.969496 0.534252 0.168743
H2    H     H_    0.742809 0.531144 0.688139 0.114014
H3    H     H_    0.867363 0.353308 0.783457 0.296957
H4    H     H_    0.909925 0.462750 0.736612 0.219012
H5    H     H_    0.809241 0.569157 0.843334 0.266826
H6    H     H_    0.892983 0.474949 0.899539 0.287306
H7    H     H_    0.768111 0.459686 0.891035 0.275858
H8    H     H_    0.276155 0.772409 0.448712 0.182044
H9    H     H_    0.233389 0.702884 0.538321 0.119315
H10   H     H_    0.109437 0.819427 0.387910 0.293473
H11   H     H_    0.064550 0.756923 0.482998 0.214368
H12   H     H_    0.398356 0.030065 0.458517 0.151192
H13   H     H_    0.137838 0.867544 0.586600 0.269209
H14   H     H_    0.054431 0.936750 0.508364 0.286411
H15   H     H_    0.181577 0.931510 0.491721 0.265773
H16   H     H_    0.783527 0.653825 0.205059 0.272810
H17   H     H_    0.839061 0.538975 0.252649 0.113729
H18   H     H_    0.944146 0.688156 0.146775 0.273908
H19   H     H_    0.996001 0.566469 0.187123 0.238748
H20   H     H_    0.880824 0.489082 0.089837 0.266582
H21   H     H_    0.955218 0.561865 0.026801 0.273851
H22   H     H_    0.832044 0.611311 0.047107 0.302636
H23   H     H_    0.594577 0.610389 0.776643 0.168247
H24   H     H_    0.182580 0.207374 0.554112 0.106043
H25   H     H_    0.096980 0.157628 0.625797 0.201291
H26   H     H_    0.304823 0.187776 0.673577 0.251155
H27   H     H_    0.221590 0.148531 0.752460 0.268563
H28   H     H_    0.208627 0.997578 0.666737 0.274596
H29   H     H_    0.333291 0.006188 0.689503 0.285870
H30   H     H_    0.282949 0.037558 0.579392 0.258790
H31   H     H_    0.400506 0.395629 0.223081 0.173491
H32   H     H_    0.645386 0.678026 0.915617 0.175070
H33   H     H_    0.345723 0.331830 0.083996 0.178092
H34   H     H_    0.741598 0.602835 0.392594 0.221390
H35   H     H_    0.260611 0.379455 0.591209 0.217463
H36   H     H_    0.700283 0.427925 0.743258 0.193467
N1    N     N_R   0.750030 0.500040 0.500070 -0.168981
N2    N     N_R   0.249970 0.499960 0.499930 -0.173617
O1    O     O_R   0.580280 0.500020 0.367860 -0.594413
O2    O     O_3   0.226147 0.646168 0.406962 -0.571811
O3    O     O_3   0.876000 0.672032 0.307863 -0.607886
O4    O     O_3   0.129808 0.295773 0.661626 -0.594581
O5    O     O_R   0.419720 0.499980 0.632140 -0.577555
O6    O     O_R   0.419730 0.500030 0.367840 -0.596484
O7    O     O_R   0.580270 0.499970 0.632160 -0.640413
O8    O     O_R   0.591830 0.359650 0.500030 -0.580780
O9    O     O_R   0.408170 0.640350 0.499970 -0.626840
O10   O     O_R   0.431280 0.359660 0.500010 -0.626087
O11   O     O_R   0.568720 0.640340 0.499990 -0.604172
O12   O     O_3   0.769954 0.389606 0.627580 -0.573910
Zn1   Zn    Zn3+2 0.607200 0.499990 0.500020 0.997811
Zn2   Zn    Zn3+2 0.392800 0.500010 0.499980 0.994438

loop_
_geom_bond_atom_site_label_1
_geom_bond_atom_site_label_2
_ccdc_geom_bond_type
O9    Zn2   S    
C16   C21   S    
C23   C45   A    
C4    O2    S    
C12   C29   S    
C27   C29   A    
C14   C18   A    
C15   O4    S    
C37   H4    S    
C14   O3    S    
C15   C19   A    
C11   C19   A    
C42   H17   S    
C13   C18   A    
C47   H27   S    
C36   C37   S    
C17   O11   A    
O8    Zn1   S    
C36   O12   S    
C17   C20   S    
C34   C35   A    
C4    C13   A    
C21   C25   T    
C51   H33   S    
C4    N2    A    
C50   H32   S    
C7    C14   A    
C47   C48   S    
C23   C33   A    
C50   C52   A    
C48   H30   S    
C9    C10   A    
C52   F3    S    
C16   O10   A    
C41   H13   S    
C49   C52   A    
C19   F6    S    
C46   H24   S    
O11   Zn1   S    
C5    N1    A    
C16   O8    A    
C38   H6    S    
C2    C45   A    
C42   H16   S    
C40   H11   S    
C32   C35   A    
C44   H22   S    
C24   C25   S    
C12   O7    A    
N1    Zn1   S    
C1    O1    A    
C39   C40   S    
C5    C7    A    
C28   F2    S    
C39   O2    S    
C6    C8    A    
O5    Zn2   S    
N2    Zn2   S    
C43   C44   S    
C37   C38   S    
C17   O9    A    
O1    Zn1   S    
C28   C49   A    
C18   F5    S    
C32   H31   S    
C38   H7    S    
C6    H35   S    
C31   C33   A    
C48   H29   S    
C47   H26   S    
C9    C11   A    
C22   C26   S    
C23   C34   A    
C41   H14   S    
C40   C41   S    
C8    C15   A    
C6    N2    A    
C35   C51   A    
C39   H8    S    
C48   H28   S    
O6    Zn2   S    
C42   C43   S    
C38   H5    S    
O10   Zn2   S    
C43   H18   S    
C7    C9    A    
C46   O4    S    
C46   C47   S    
C34   C49   A    
C39   H9    S    
C44   H21   S    
C36   H2    S    
C10   C13   A    
C37   H3    S    
C27   F1    S    
C3    O12   S    
C43   H19   S    
C31   H23   S    
O7    Zn1   S    
C44   H20   S    
C33   C50   A    
C12   O5    A    
C29   C31   A    
C2    F4    S    
C42   O3    S    
C30   C32   A    
C27   C45   A    
C20   C26   T    
C24   H1    S    
C28   C30   A    
C1    C30   S    
C22   C24   D    
C5    H34   S    
C3    C11   A    
C2    C51   A    
C41   H15   S    
C46   H25   S    
C36   H36   S    
C8    C10   A    
C40   H10   S    
C3    N1    A    
C1    O6    A    
C22   H12   S    
