data_mof_unit_6334.cif
_audit_creation_date              2012-12-11T14:14:05-0500
_audit_creation_method            fapswitch 2.2
_symmetry_space_group_name_H-M    P1
_symmetry_Int_Tables_number       1
_space_group_crystal_system       triclinic
_cell_length_a                    16.998253
_cell_length_b                    7.260808
_cell_length_c                    16.926682
_cell_angle_alpha                 90.000141
_cell_angle_beta                  99.047111
_cell_angle_gamma                 89.999888
_cell_volume                      2063.11907823

loop_
_atom_site_label
_atom_site_type_symbol
_atom_type_description
_atom_site_fract_x
_atom_site_fract_y
_atom_site_fract_z
_atom_type_partial_charge
O1    O     O_R   0.414560 0.494370 0.416770 -0.527592
O2    O     O_R   0.585440 0.994370 0.583230 -0.527593
O3    O     O_R   0.578370 0.819590 0.429320 -0.533880
O4    O     O_R   0.421630 0.319590 0.570680 -0.533880
C1    C     C_R   0.605076 0.655998 0.414316 0.751329
C2    C     C_R   0.394924 0.155998 0.585683 0.751331
O5    O     O_R   0.414740 0.823790 0.407360 -0.523601
O6    O     O_R   0.585260 0.323790 0.592640 -0.523600
O7    O     O_R   0.420650 0.998510 0.561120 -0.535834
O8    O     O_R   0.579350 0.498510 0.438880 -0.535833
C3    C     C_R   0.386889 0.655429 0.386576 0.767564
C4    C     C_R   0.613111 0.155429 0.613424 0.767563
O9    O     O_3   0.502130 0.662240 0.550470 -0.373697
O10   O     O_3   0.497870 0.162240 0.449530 -0.373698
V1    V     V_3+5 0.499600 0.935390 0.490640 1.550748
V2    V     V_3+5 0.500400 0.435390 0.509360 1.550751
C5    C     C_2   0.803274 0.239968 0.767144 0.095923
C6    C     C_2   0.196725 0.739968 0.232856 0.095923
C7    C     C_2   0.812909 0.119095 0.828987 -0.010206
C8    C     C_2   0.187091 0.619094 0.171014 -0.010206
C9    C     C_2   0.724674 0.275945 0.717651 0.225858
C10   C     C_2   0.275325 0.775946 0.282349 0.225855
C11   C     C_2   0.686534 0.139094 0.673146 -0.313479
C12   C     C_2   0.313467 0.639094 0.326854 -0.313476
H1    H     H_    0.713930 0.003398 0.678259 0.182422
H2    H     H_    0.286071 0.503398 0.321740 0.182424
C13   C     C_R   0.328793 0.152467 0.633382 -0.112098
C14   C     C_R   0.671206 0.652465 0.366618 -0.112098
C15   C     C_R   0.167349 0.116982 0.863098 -0.095261
C16   C     C_R   0.832651 0.616984 0.136902 -0.095261
C17   C     C_R   0.301379 0.039981 0.841304 -0.147454
C18   C     C_R   0.698618 0.540003 0.158692 -0.147452
C19   C     C_R   0.243686 0.047384 0.891668 0.153126
C20   C     C_R   0.756313 0.547401 0.108330 0.153125
C21   C     C_R   0.150251 0.180793 0.783900 -0.243936
C22   C     C_R   0.849751 0.680781 0.216102 -0.243935
C23   C     C_R   0.208292 0.174943 0.731926 0.099393
C24   C     C_R   0.791709 0.674933 0.268076 0.099395
C25   C     C_R   0.284467 0.101331 0.761800 0.084671
C26   C     C_R   0.715532 0.601339 0.238198 0.084671
C27   C     C_R   0.343578 0.091084 0.712599 -0.238794
C28   C     C_R   0.656420 0.591097 0.287399 -0.238795
C29   C     C_R   0.252918 0.223362 0.601938 0.107302
C30   C     C_R   0.747084 0.723341 0.398065 0.107299
C31   C     C_R   0.192494 0.238543 0.651148 0.102630
C32   C     C_R   0.807509 0.738517 0.348856 0.102633
H3    H     H_    0.402167 0.037998 0.736450 0.138450
H4    H     H_    0.597829 0.538025 0.263545 0.138449
H5    H     H_    0.359817 0.985602 0.864548 0.157013
H6    H     H_    0.640179 0.485637 0.135447 0.157014
H7    H     H_    0.090470 0.229356 0.763588 0.147684
H8    H     H_    0.909533 0.729331 0.236416 0.147683
O11   O     O_R   0.920750 0.773600 0.061260 -0.528260
O12   O     O_R   0.079250 0.273600 0.938740 -0.528261
O13   O     O_R   0.085340 0.439850 0.092570 -0.526919
O14   O     O_R   0.914660 0.939850 0.907430 -0.526919
C33   C     C_R   0.112516 0.608583 0.113558 0.739628
C34   C     C_R   0.887483 0.108583 0.886442 0.739627
O15   O     O_R   0.921720 0.444130 0.070790 -0.535700
O16   O     O_R   0.078280 0.944130 0.929210 -0.535700
O17   O     O_R   0.914480 0.269530 0.916840 -0.523806
O18   O     O_R   0.085520 0.769530 0.083160 -0.523806
C35   C     C_R   0.896222 0.612078 0.086288 0.726397
C36   C     C_R   0.103778 0.112077 0.913712 0.726398
O19   O     O_3   0.997840 0.601520 0.949550 -0.370941
O20   O     O_3   0.002160 0.101520 0.050450 -0.370941
V3    V     V_3+5 0.000400 0.328340 0.009360 1.572485
V4    V     V_3+5 0.999600 0.828340 0.990640 1.572486
I1    I     I_    0.901229 0.388477 0.733664 -0.377841
I2    I     I_    0.098769 0.888476 0.266336 -0.377842
I3    I     I_    0.715830 0.972272 0.864488 -0.275363
I4    I     I_    0.284169 0.472267 0.135513 -0.275365
I5    I     I_    0.682029 0.551009 0.720093 -0.236646
I6    I     I_    0.317968 0.051012 0.279911 -0.236651
I7    I     I_    0.230068 0.294953 0.477412 -0.391881
I8    I     I_    0.769934 0.794914 0.522593 -0.391875
C37   C     C_3   0.112565 0.324501 0.617436 -0.348194
C38   C     C_3   0.051116 0.177294 0.586731 -0.663394
H9    H     H_    0.071467 0.096499 0.538003 0.244997
H10   H     H_    0.041441 0.082184 0.635644 0.230182
H11   H     H_    0.993532 0.244108 0.562752 0.234987
H12   H     H_    0.090205 0.412689 0.662579 0.190527
H13   H     H_    0.117944 0.421891 0.568250 0.213404
C39   C     C_3   0.887441 0.824454 0.382571 -0.348196
C40   C     C_3   0.948885 0.677231 0.413269 -0.663403
H14   H     H_    0.928532 0.596425 0.461992 0.244995
H15   H     H_    0.958558 0.582134 0.364351 0.230182
H16   H     H_    0.006471 0.744030 0.437251 0.234990
H17   H     H_    0.909804 0.912647 0.337432 0.190529
H18   H     H_    0.882066 0.921833 0.431762 0.213408
I9    I     I_    0.276173 0.955523 0.011267 -0.281947
I10   I     I_    0.723824 0.455552 0.988728 -0.281942

loop_
_geom_bond_atom_site_label_1
_geom_bond_atom_site_label_2
_ccdc_geom_bond_type
C6    I2    S    
C5    I1    S    
C9    I5    S    
C7    I3    S    
O1    C3    A    
O2    C4    A    
C2    O7    A    
C33   O18   A    
C25   C27   A    
C40   H14   S    
O5    C3    A    
C4    C11   S    
C21   C23   A    
C12   H2    S    
C19   I9    S    
C38   H10   S    
C37   H13   S    
C15   C19   A    
C3    C12   S    
C14   C28   A    
C30   I8    S    
O11   V4    S    
C13   C27   A    
O15   V3    S    
C9    C11   D    
C17   C25   A    
C17   C19   A    
C22   H8    S    
C37   C38   S    
C34   O17   A    
C26   C28   A    
O20   V3    S    
C15   C36   S    
O6    V2    S    
C16   C35   S    
C39   H18   S    
C17   H5    S    
C30   C32   A    
C40   H15   S    
C7    C34   S    
C29   I7    S    
C16   C20   A    
C39   C40   S    
O4    C2    A    
C38   H9    S    
O12   V3    S    
O14   V4    S    
C14   C30   A    
C5    C9    S    
C18   C20   A    
O4    V2    S    
C1    C14   S    
O17   V3    S    
C2    C13   S    
O6    C4    A    
O19   V4    S    
C27   H3    S    
O1    V2    S    
C28   H4    S    
O2    V1    S    
C29   C31   A    
C18   H6    S    
C32   C39   S    
O13   C33   A    
C21   H7    S    
C10   C12   D    
C39   H17   S    
C10   I6    S    
C23   C31   A    
O3    V1    S    
C40   H16   S    
C6    C10   S    
O3    C1    A    
O13   V3    S    
O18   V4    S    
C15   C21   A    
O15   C35   A    
C16   C22   A    
O16   C36   A    
C22   C24   A    
O7    V1    S    
C1    O8    A    
C23   C25   A    
O8    V2    S    
C24   C26   A    
O11   C35   A    
C38   H11   S    
O12   C36   A    
C37   H12   S    
O5    V1    S    
C5    C7    D    
O14   C34   A    
C6    C8    D    
C18   C26   A    
C20   I10   S    
C24   C32   A    
C13   C29   A    
C11   H1    S    
O16   V4    S    
O9    V2    S    
O10   V1    S    
C8    I4    S    
C31   C37   S    
C8    C33   S    
