data_mof_unit_66367.cif
_audit_creation_date              2012-12-11T16:26:57-0500
_audit_creation_method            fapswitch 2.2
_symmetry_space_group_name_H-M    P1
_symmetry_Int_Tables_number       1
_space_group_crystal_system       triclinic
_cell_length_a                    8.498622
_cell_length_b                    17.388638
_cell_length_c                    19.00059
_cell_angle_alpha                 96.46837
_cell_angle_beta                  93.399237
_cell_angle_gamma                 96.051184
_cell_volume                      2767.27076421

loop_
_atom_site_label
_atom_site_type_symbol
_atom_type_description
_atom_site_fract_x
_atom_site_fract_y
_atom_site_fract_z
_atom_type_partial_charge
Ba1   Ba    Ba6+2 0.848080 0.535720 0.465810 1.679970
Ba2   Ba    Ba6+2 0.341750 0.464340 0.534200 1.675743
C1    C     C_3   0.596330 0.789392 0.204370 0.273694
C2    C     C_3   0.586703 0.734893 0.262706 0.411963
C3    C     C_3   0.440534 0.322005 0.311321 0.417600
C4    C     C_3   0.375102 0.270438 0.241226 0.837776
C5    C     C_3   0.052944 0.224633 0.715994 0.342432
C6    C     C_3   0.090328 0.158448 0.759229 -0.101217
C7    C     C_3   0.611668 0.272884 0.756691 0.880127
C8    C     C_3   0.551231 0.194719 0.712528 0.312742
C9    C     C_2   0.296925 0.514505 0.294989 -0.335467
C10   C     C_3   0.389322 0.565707 0.249687 -0.002558
C11   C     C_2   0.351495 0.544802 0.170707 0.295560
C12   C     C_3   0.066955 0.810939 0.281084 0.845176
C13   C     C_2   0.210808 0.502077 0.146535 -0.155301
C14   C     C_2   0.113408 0.462013 0.200035 0.289097
C15   C     C_1   0.159336 0.475348 0.269947 0.052969
C16   C     C_R   0.061804 0.487959 0.927016 0.451814
C17   C     C_R   0.156161 0.496276 0.068516 0.467299
C18   C     C_R   0.094619 0.516089 0.799921 -0.152662
C19   C     C_R   0.031206 0.520655 0.730223 0.045124
C20   C     C_R   0.775540 0.457844 0.759992 -0.008269
C21   C     C_R   0.836039 0.456873 0.831136 0.080001
C22   C     C_R   0.997617 0.485892 0.851363 -0.036083
C23   C     C_3   0.046726 0.898806 0.279466 0.463635
C24   C     C_R   0.869340 0.498294 0.715009 -0.263245
C25   C     C_R   0.437650 0.714974 0.453076 -0.233784
C26   C     C_R   0.568390 0.742254 0.500469 0.107902
C27   C     C_R   0.613344 0.822579 0.515830 -0.165148
C28   C     C_R   0.521814 0.875869 0.487861 0.003373
C29   C     C_R   0.377768 0.847657 0.447303 0.077062
C30   C     C_R   0.336730 0.766377 0.429547 0.034117
C31   C     C_R   0.583012 0.163329 0.492019 -0.200390
C32   C     C_R   0.638511 0.242615 0.494955 0.014671
C33   C     C_R   0.888380 0.219321 0.554660 -0.014614
C34   C     C_3   0.178982 0.702353 0.615295 0.393413
C35   C     C_R   0.834689 0.139078 0.550361 0.063986
C36   C     C_R   0.679976 0.110940 0.519251 0.001635
C37   C     C_1   0.623288 0.028064 0.510368 -0.018887
C38   C     C_1   0.576454 0.958935 0.501254 -0.035079
C39   C     C_R   0.790176 0.269496 0.526016 0.133725
C40   C     C_3   0.195188 0.791894 0.629347 0.512299
C41   C     C_3   0.961120 0.299282 0.380567 0.365401
C42   C     C_3   0.954488 0.210565 0.366359 -0.106425
C43   C     C_3   0.727326 0.678605 0.697407 0.447517
C44   C     C_3   0.758056 0.734936 0.769725 0.809240
H1    H     H_    0.220907 0.814307 0.577770 -0.112476
H2    H     H_    0.840736 0.315198 0.389553 0.048002
H3    H     H_    0.044388 0.318672 0.428013 0.067092
H4    H     H_    0.917701 0.183495 0.413724 -0.006375
H5    H     H_    0.074840 0.194456 0.356360 0.152935
H6    H     H_    0.837732 0.653791 0.682889 -0.021899
H7    H     H_    0.716517 0.821906 0.205568 0.110969
H8    H     H_    0.460843 0.711055 0.259901 0.054236
H9    H     H_    0.338553 0.344710 0.337859 -0.031799
H10   H     H_    0.353534 0.309338 0.199364 -0.158566
H11   H     H_    0.578890 0.752588 0.152177 0.078728
H12   H     H_    0.050006 0.280012 0.751532 0.021503
H13   H     H_    0.932458 0.208195 0.688987 0.005311
H14   H     H_    0.979694 0.129027 0.777212 0.065288
H15   H     H_    0.142940 0.113275 0.724678 0.105067
H16   H     H_    0.728110 0.294393 0.737213 -0.285547
H17   H     H_    0.527244 0.204745 0.656024 -0.001063
H18   H     H_    0.436624 0.172585 0.733151 0.067131
H19   H     H_    0.217411 0.538026 0.814783 0.109871
H20   H     H_    0.338818 0.516934 0.350353 0.072326
H21   H     H_    0.813785 0.513834 0.667088 0.000135
H22   H     H_    0.467722 0.141897 0.465564 0.102805
H23   H     H_    0.196642 0.808618 0.275241 -0.076244
H24   H     H_    0.716149 0.843532 0.551704 0.075888
H25   H     H_    0.405709 0.652903 0.439677 0.070494
H26   H     H_    0.150542 0.933486 0.310531 -0.068492
H27   H     H_    0.069419 0.683360 0.583006 0.093589
N1    N     N_R   0.142599 0.553996 0.962269 -0.260773
N2    N     N_R   0.188105 0.558030 0.031258 -0.220737
N3    N     N_R   0.076942 0.429898 0.032888 -0.236371
N4    N     N_R   0.029837 0.426056 0.964005 -0.242453
O1    O     O_2   0.870670 0.457200 0.328780 -0.443324
O2    O     O_3   0.674592 0.721317 0.643786 -0.634346
O3    O     O_3   0.020102 0.785128 0.346410 -0.605215
O4    O     O_2   0.319030 0.542820 0.671260 -0.436086
O5    O     O_3   0.066510 0.541590 0.583850 -0.527769
O6    O     O_3   0.544220 0.404070 0.628440 -0.483324
O7    O     O_3   0.177017 0.667778 0.678635 -0.653327
O8    O     O_3   0.618730 0.408150 0.464380 -0.478203
O9    O     O_3   0.124970 0.364690 0.593190 -0.452786
O10   O     O_2   0.207062 0.228592 0.535686 -0.473657
O11   O     O_3   0.172537 0.235514 0.668877 -0.573422
O12   O     O_3   0.123190 0.458470 0.416160 -0.498764
O13   O     O_3   0.570980 0.591910 0.535630 -0.489278
O14   O     O_2   0.357950 0.313790 0.466200 -0.459307
O15   O     O_3   0.522678 0.275903 0.353725 -0.633709
O16   O     O_2   0.449838 0.465548 0.751214 -0.467672
O17   O     O_3   0.494704 0.323125 0.746783 -0.592385
O18   O     O_3   0.645490 0.595990 0.371560 -0.486672
O19   O     O_2   0.706972 0.528415 0.246022 -0.491081
O20   O     O_3   0.014845 0.332745 0.321779 -0.597078
O21   O     O_3   0.689108 0.676394 0.250171 -0.552713
O22   O     O_2   0.831760 0.686240 0.533840 -0.513323
O23   O     O_3   0.064740 0.635370 0.406810 -0.452033
O24   O     O_2   0.212807 0.684013 0.309080 -0.568237
P1    P     P_3+3 0.041170 0.434790 0.339740 1.047933
P2    P     P_3+3 0.658290 0.675180 0.554960 0.979985
P3    P     P_3+3 0.151409 0.722010 0.378078 0.949533
P4    P     P_3+3 0.148540 0.565270 0.660270 0.951319
P5    P     P_3+3 0.093979 0.261719 0.588848 1.021605
P6    P     P_3+3 0.606156 0.589652 0.279362 0.998872
P7    P     P_3+3 0.533501 0.309827 0.444719 0.985960
P8    P     P_3+3 0.572226 0.412928 0.722184 0.986757
N5    N     N_3   0.628200 0.778419 0.332712 -0.521757
H28   H     H_    0.654203 0.739066 0.367812 0.180464
H29   H     H_    0.735645 0.812048 0.331720 0.243022
N6    N     N_3   0.327762 0.819983 0.681822 -0.478095
H30   H     H_    0.329677 0.880108 0.694595 0.154684
H31   H     H_    0.433193 0.812166 0.657638 0.166066
O25   O     O_3   0.052134 0.815292 0.654741 -0.603498
C45   C     C_3   0.019669 0.886169 0.630368 0.243449
H32   H     H_    0.998741 0.879209 0.571527 -0.014100
H33   H     H_    0.116615 0.933751 0.647793 -0.008247
H34   H     H_    0.910017 0.903770 0.653341 0.068786
N7    N     N_3   0.843826 0.179972 0.305585 -0.474214
H35   H     H_    0.857375 0.121051 0.292926 0.167592
H36   H     H_    0.728686 0.181559 0.321763 0.216776
N8    N     N_3   0.603569 0.616367 0.704739 -0.472061
H37   H     H_    0.642022 0.584064 0.743800 0.170611
H38   H     H_    0.507727 0.642370 0.724921 0.183273
O26   O     O_3   0.911645 0.777566 0.772466 -0.629485
C46   C     C_3   0.032556 0.739812 0.804022 0.289482
H39   H     H_    0.038399 0.752066 0.862695 0.011947
H40   H     H_    0.148572 0.764182 0.787669 0.107420
H41   H     H_    0.017492 0.675936 0.788216 0.017919
O27   O     O_3   0.741270 0.689955 0.828395 -0.717829
C47   C     C_3   0.728631 0.735367 0.894099 0.107355
H42   H     H_    0.602922 0.744637 0.900940 0.052524
H43   H     H_    0.803786 0.792370 0.900341 0.049501
H44   H     H_    0.767951 0.702557 0.937500 0.081870
N9    N     N_3   0.639760 0.791289 0.769492 -0.470866
H45   H     H_    0.676639 0.840549 0.805830 0.165657
H46   H     H_    0.530663 0.766111 0.783560 0.147362
O28   O     O_3   0.472249 0.837910 0.207838 -0.680812
C48   C     C_3   0.529278 0.913797 0.239647 0.142805
H47   H     H_    0.622674 0.941367 0.208935 0.075531
H48   H     H_    0.573462 0.913681 0.295761 0.086938
H49   H     H_    0.430066 0.950343 0.240031 0.052003
N10   N     N_3   0.550320 0.387221 0.295657 -0.498757
H50   H     H_    0.561933 0.429843 0.339471 0.200912
H51   H     H_    0.500541 0.412740 0.253771 0.079671
O29   O     O_3   0.228731 0.229308 0.253465 -0.650246
C49   C     C_3   0.146084 0.197408 0.188226 0.203316
H52   H     H_    0.104833 0.244145 0.158789 0.081453
H53   H     H_    0.039830 0.159231 0.199172 0.062545
H54   H     H_    0.219064 0.160736 0.154617 0.047263
O30   O     O_3   0.480420 0.214996 0.220451 -0.636976
C50   C     C_3   0.605574 0.247810 0.183930 0.123882
H55   H     H_    0.695551 0.283453 0.222120 0.103969
H56   H     H_    0.563942 0.282005 0.141769 -0.008754
H57   H     H_    0.665053 0.199784 0.157441 0.079916
N11   N     N_3   0.051096 0.918694 0.206755 -0.493466
H58   H     H_    0.165546 0.914842 0.190337 0.139242
H59   H     H_    0.032342 0.977294 0.207499 0.176043
N12   N     N_3   0.201043 0.188282 0.820670 -0.458845
H60   H     H_    0.236586 0.140037 0.843448 0.177670
H61   H     H_    0.138856 0.218646 0.858967 0.171991
O31   O     O_3   0.620528 0.262649 0.829916 -0.642742
C51   C     C_3   0.774900 0.251472 0.855201 0.165072
H62   H     H_    0.779731 0.256626 0.914053 0.084329
H63   H     H_    0.866755 0.296272 0.840957 0.036852
H64   H     H_    0.801523 0.192059 0.836502 0.061369
O32   O     O_3   0.666252 0.141770 0.715721 -0.694960
C52   C     C_3   0.591274 0.064651 0.702120 0.108921
H65   H     H_    0.508879 0.055830 0.653112 0.040909
H66   H     H_    0.526120 0.048895 0.748695 0.052754
H67   H     H_    0.683805 0.024536 0.694214 0.067687
O33   O     O_3   0.969502 0.765755 0.224763 -0.638468
C53   C     C_3   0.058556 0.735301 0.169741 0.186578
H68   H     H_    0.116962 0.685075 0.185249 0.091171
H69   H     H_    0.147706 0.779971 0.153208 0.047826
H70   H     H_    0.975918 0.713445 0.122649 0.059487
O34   O     O_3   0.450389 0.580212 0.125297 -0.638243
C54   C     C_3   0.535570 0.523915 0.089580 0.235640
H71   H     H_    0.469217 0.497273 0.039175 0.048639
H72   H     H_    0.563919 0.476923 0.121991 -0.014131
H73   H     H_    0.649766 0.553555 0.075822 0.058151
O35   O     O_3   0.019265 0.393297 0.175380 -0.647489
C55   C     C_3   0.867823 0.409946 0.151351 0.219072
H74   H     H_    0.820957 0.365460 0.106478 0.044950
H75   H     H_    0.865937 0.468210 0.132226 0.018710
H76   H     H_    0.786544 0.404802 0.194188 0.092214
N13   N     N_3   0.734673 0.432823 0.884653 -0.478247
H77   H     H_    0.618006 0.416900 0.864112 0.211722
H78   H     H_    0.730167 0.481361 0.922047 0.163215
N14   N     N_3   0.272781 0.900907 0.425876 -0.525603
H79   H     H_    0.237003 0.931250 0.471795 0.159509
H80   H     H_    0.337562 0.941275 0.398835 0.165318
N15   N     N_3   0.939725 0.086853 0.574815 -0.501209
H81   H     H_    0.956150 0.045706 0.532133 0.152894
H82   H     H_    0.885454 0.057542 0.613593 0.169284
O36   O     O_3   0.852486 0.344177 0.519599 -0.703460
C56   C     C_3   0.825488 0.391594 0.580866 0.467166
H83   H     H_    0.799158 0.360549 0.627874 -0.228421
H84   H     H_    0.749684 0.435779 0.568575 0.097902
H85   H     H_    0.928801 0.430632 0.597304 0.070698
O37   O     O_3   0.899860 0.916282 0.305083 -0.661831
C57   C     C_3   0.921610 0.972174 0.366162 0.115514
H86   H     H_    0.804176 0.989488 0.379803 0.059766
H87   H     H_    0.997063 0.025969 0.356406 0.037804
H88   H     H_    0.972623 0.946548 0.412358 0.064382
N16   N     N_3   0.308912 0.679332 0.575800 -0.574947
H89   H     H_    0.392075 0.664441 0.612554 0.208161
H90   H     H_    0.270850 0.629499 0.540408 0.178425

loop_
_geom_bond_atom_site_label_1
_geom_bond_atom_site_label_2
_ccdc_geom_bond_type
O22   P2    D    
C19   C24   A    
C51   H62   S    
N16   H90   S    
C2    O21   S    
O12   P1    S    
O1    P1    D    
O32   C52   S    
C34   C40   S    
C8    H17   S    
C15   P1    S    
C46   H39   S    
Ba1   O22   S    
C45   H33   S    
N12   H60   S    
C49   H52   S    
C5    C6    S    
C53   H69   S    
C43   C44   S    
O25   C45   S    
C8    O32   S    
C13   C17   S    
C10   C11   S    
N9    H46   S    
Ba1   O13   S    
O3    P3    S    
C16   C22   S    
C24   H21   S    
C35   N15   S    
C26   C27   A    
C33   C35   A    
C27   H24   S    
C6    N12   S    
C48   H48   S    
C44   O27   S    
C28   C29   A    
C7    O31   S    
C55   H75   S    
C14   C15   D    
C52   H65   S    
C13   C14   S    
C42   N7    S    
O23   P3    S    
O11   P5    S    
O35   C55   S    
C23   N11   S    
Ba2   O8    S    
N13   H78   S    
Ba1   Ba2   S    
C34   N16   S    
O5    P4    S    
Ba2   O13   S    
C5    O11   S    
N5    H28   S    
N12   H61   S    
O33   C53   S    
O15   P7    S    
C9    C15   D    
C18   C22   A    
O27   C47   S    
C47   H44   S    
C21   C22   A    
O6    P8    S    
O36   C56   S    
C12   O3    S    
O8    P7    S    
C7    C8    S    
Ba1   P2    S    
C5    H12   S    
C50   H56   S    
O20   P1    S    
C9    H20   S    
C6    H15   S    
C40   H1    S    
C56   H83   S    
C16   N1    A    
N11   H59   S    
Ba1   O1    S    
C14   O35   S    
O2    P2    S    
Ba2   O6    S    
O9    P5    S    
C32   C39   A    
Ba1   O23   S    
C5    H13   S    
N10   H51   S    
C54   H72   S    
C31   C32   A    
C53   H70   S    
C43   N8    S    
Ba1   O8    S    
C36   C37   S    
O4    P4    D    
C3    N10   S    
N1    N2    A    
C7    H16   S    
C4    O30   S    
C18   H19   S    
Ba2   O14   S    
N3    N4    A    
C50   H57   S    
C45   H34   S    
C37   C38   T    
N16   H89   S    
C55   H76   S    
C43   H6    S    
Ba1   O5    S    
C11   O34   S    
C29   N14   S    
O21   P6    S    
N15   H81   S    
N14   H80   S    
Ba2   O12   S    
C41   C42   S    
C35   C36   A    
C56   H85   S    
C47   H42   S    
C4    O29   S    
C44   O26   S    
C40   N6    S    
C53   H68   S    
C57   H88   S    
Ba1   O18   S    
C20   P8    S    
C18   C19   A    
C30   P3    S    
O7    P4    S    
C50   H55   S    
C28   C38   S    
C43   O2    S    
C23   H26   S    
O28   C48   S    
N7    H35   S    
O18   P6    S    
C44   N9    S    
C1    H11   S    
C42   H5    S    
C40   O25   S    
C17   N3    A    
O19   P6    D    
C57   H87   S    
O24   P3    D    
C11   C13   D    
N11   H58   S    
C12   H23   S    
C49   H54   S    
C1    C2    S    
C46   H41   S    
N10   H50   S    
C21   N13   S    
C25   H25   S    
C54   H71   S    
N8    H38   S    
N6    H30   S    
C41   H2    S    
C42   H4    S    
C2    N5    S    
O31   C51   S    
Ba1   O12   S    
Ba2   P4    S    
C2    H8    S    
C25   C30   A    
O14   P7    D    
C3    H9    S    
C29   C30   A    
C41   H3    S    
C41   O20   S    
C4    H10   S    
C39   O36   S    
C23   O37   S    
C46   H40   S    
C10   P6    S    
C9    C10   S    
C54   H73   S    
C48   H49   S    
C51   H64   S    
N9    H45   S    
O17   P8    S    
C8    H18   S    
C31   C36   A    
C32   P7    S    
N14   H79   S    
C49   H53   S    
C12   O33   S    
C33   P5    S    
C48   H47   S    
C6    H14   S    
C1    H7    S    
C26   P2    S    
C55   H74   S    
C3    C4    S    
O10   P5    D    
C52   H66   S    
C34   O7    S    
C16   N4    A    
C7    O17   S    
C17   N2    A    
Ba2   O9    S    
O29   C49   S    
C12   C23   S    
N13   H77   S    
C33   C39   A    
N5    H29   S    
O13   P2    S    
N7    H36   S    
C3    O15   S    
Ba2   O5    S    
C34   H27   S    
C27   C28   A    
O34   C54   S    
C57   H86   S    
C51   H63   S    
C20   C24   A    
C25   C26   A    
C56   H84   S    
C47   H43   S    
C20   C21   A    
Ba2   O4    S    
C1    O28   S    
O37   C57   S    
N15   H82   S    
O30   C50   S    
C45   H32   S    
Ba1   P1    S    
C19   P4    S    
O26   C46   S    
C31   H22   S    
O16   P8    D    
N8    H37   S    
N6    H31   S    
C52   H67   S    
