data_mof_unit_13601.cif
_audit_creation_date              2012-12-11T16:13:52-0500
_audit_creation_method            fapswitch 2.2
_symmetry_space_group_name_H-M    P1
_symmetry_Int_Tables_number       1
_space_group_crystal_system       triclinic
_cell_length_a                    26.116951
_cell_length_b                    7.25599
_cell_length_c                    23.813498
_cell_angle_alpha                 90.000058
_cell_angle_beta                  101.408514
_cell_angle_gamma                 89.999963
_cell_volume                      4423.59703869

loop_
_atom_site_label
_atom_site_type_symbol
_atom_type_description
_atom_site_fract_x
_atom_site_fract_y
_atom_site_fract_z
_atom_type_partial_charge
O1    O     O_R   0.192370 0.384760 0.193350 -0.530253
O2    O     O_R   0.807630 0.615240 0.806650 -0.530252
O3    O     O_R   0.307630 0.884760 0.306650 -0.530252
O4    O     O_R   0.692370 0.115240 0.693350 -0.530252
O5    O     O_R   0.296630 0.711620 0.196480 -0.538404
O6    O     O_R   0.703370 0.288380 0.803520 -0.538405
O7    O     O_R   0.203370 0.211620 0.303520 -0.538405
O8    O     O_R   0.796630 0.788380 0.696480 -0.538405
C1    C     C_R   0.311467 0.546219 0.182937 0.682740
C2    C     C_R   0.688533 0.453780 0.817063 0.682739
C3    C     C_R   0.188533 0.046220 0.317063 0.682739
C4    C     C_R   0.811467 0.953780 0.682937 0.682739
O9    O     O_R   0.192080 0.714290 0.186600 -0.532713
O10   O     O_R   0.807920 0.285710 0.813400 -0.532713
O11   O     O_R   0.307920 0.214290 0.313400 -0.532713
O12   O     O_R   0.692080 0.785710 0.686600 -0.532713
O13   O     O_R   0.202340 0.887460 0.296690 -0.536686
O14   O     O_R   0.797660 0.112540 0.703310 -0.536685
O15   O     O_R   0.297660 0.387460 0.203310 -0.536686
O16   O     O_R   0.702340 0.612540 0.796690 -0.536685
C5    C     C_R   0.173777 0.545945 0.171307 0.710292
C6    C     C_R   0.826223 0.454055 0.828693 0.710290
C7    C     C_R   0.326223 0.045945 0.328693 0.710291
C8    C     C_R   0.673777 0.954055 0.671307 0.710291
O17   O     O_3   0.253490 0.552180 0.286130 -0.378734
O18   O     O_3   0.746510 0.447820 0.713870 -0.378734
O19   O     O_3   0.246510 0.052180 0.213870 -0.378734
O20   O     O_3   0.753490 0.947820 0.786130 -0.378734
V1    V     V_3+5 0.249350 0.825920 0.243300 1.384585
V2    V     V_3+5 0.750650 0.174080 0.756700 1.384584
V3    V     V_3+5 0.250650 0.325920 0.256700 1.384586
V4    V     V_3+5 0.749350 0.674080 0.743300 1.384585
C9    C     C_3   0.528856 0.860012 0.488234 0.200375
C10   C     C_3   0.471143 0.139988 0.511766 0.200375
C11   C     C_3   0.971143 0.360012 0.011766 0.200375
C12   C     C_3   0.028856 0.639988 0.988234 0.200374
C13   C     C_3   0.514100 0.029983 0.449248 -0.177953
C14   C     C_3   0.485900 0.970017 0.550752 -0.177953
C15   C     C_3   0.985900 0.529983 0.050751 -0.177953
C16   C     C_3   0.014100 0.470017 0.949248 -0.177953
H1    H     H_    0.525631 0.053824 0.407404 0.122341
H2    H     H_    0.474369 0.946177 0.592596 0.122341
H3    H     H_    0.974368 0.553822 0.092596 0.122341
H4    H     H_    0.025631 0.446178 0.907404 0.122341
H5    H     H_    0.551480 0.284941 0.505632 0.130283
H6    H     H_    0.448520 0.715059 0.494369 0.130283
H7    H     H_    0.948520 0.784941 0.994368 0.130283
H8    H     H_    0.051480 0.215058 0.005632 0.130284
C17   C     C_1   0.371786 0.037016 0.374761 -0.180619
C18   C     C_1   0.628214 0.962984 0.625239 -0.180618
C19   C     C_1   0.128214 0.537016 0.125240 -0.180618
C20   C     C_1   0.871786 0.462984 0.874760 -0.180619
C21   C     C_3   0.472023 0.842979 0.497294 -0.176604
C22   C     C_3   0.527977 0.157021 0.502706 -0.176604
C23   C     C_3   0.027977 0.342978 0.002706 -0.176605
C24   C     C_3   0.972023 0.657021 0.997294 -0.176603
C25   C     C_3   0.457491 0.014315 0.458993 0.090763
C26   C     C_3   0.542508 0.985686 0.541007 0.090763
C27   C     C_3   0.042508 0.514314 0.041007 0.090763
C28   C     C_3   0.957492 0.485686 0.958993 0.090763
C29   C     C_1   0.410234 0.027869 0.412901 -0.056855
C30   C     C_1   0.589765 0.972131 0.587099 -0.056855
C31   C     C_1   0.089765 0.527869 0.087099 -0.056855
C32   C     C_1   0.910234 0.472131 0.912901 -0.056854
C33   C     C_R   0.883478 0.109543 0.646301 -0.192465
C34   C     C_R   0.116522 0.890455 0.353699 -0.192465
C35   C     C_R   0.616523 0.609548 0.853700 -0.192465
C36   C     C_R   0.383480 0.390459 0.146303 -0.192465
H9    H     H_    0.883554 0.215978 0.678220 0.127816
H10   H     H_    0.116447 0.784020 0.321781 0.127817
H11   H     H_    0.616448 0.715985 0.821782 0.127817
H12   H     H_    0.383555 0.284027 0.178222 0.127816
C37   C     C_R   0.920337 0.120833 0.611083 -0.144171
C38   C     C_R   0.079663 0.879166 0.388918 -0.144171
C39   C     C_R   0.579665 0.620838 0.888919 -0.144172
C40   C     C_R   0.420338 0.379171 0.111084 -0.144169
H13   H     H_    0.947245 0.235954 0.616661 0.144060
H14   H     H_    0.052756 0.764043 0.383340 0.144060
H15   H     H_    0.552758 0.735963 0.883342 0.144060
H16   H     H_    0.447247 0.264051 0.116664 0.144060
C41   C     C_R   0.922921 0.984699 0.569888 -0.005352
C42   C     C_R   0.077079 0.015301 0.430111 -0.005351
C43   C     C_R   0.577080 0.484701 0.930112 -0.005350
C44   C     C_R   0.422921 0.515302 0.069889 -0.005352
C45   C     C_R   0.886868 0.839070 0.563903 -0.158688
C46   C     C_R   0.113132 0.160932 0.436096 -0.158688
C47   C     C_R   0.613132 0.339067 0.936096 -0.158689
C48   C     C_R   0.386867 0.660929 0.063903 -0.158688
H17   H     H_    0.887954 0.735033 0.531541 0.137793
H18   H     H_    0.112045 0.264970 0.468458 0.137793
H19   H     H_    0.612044 0.235028 0.968457 0.137794
H20   H     H_    0.387953 0.764964 0.031540 0.137793
C49   C     C_R   0.849117 0.825342 0.598647 0.078588
C50   C     C_R   0.150882 0.174659 0.401353 0.078588
C51   C     C_R   0.650882 0.325339 0.901352 0.078588
C52   C     C_R   0.349116 0.674655 0.098646 0.078589
C53   C     C_R   0.847964 0.961683 0.641784 -0.064564
C54   C     C_R   0.152036 0.038317 0.358216 -0.064563
C55   C     C_R   0.652036 0.461683 0.858217 -0.064564
C56   C     C_R   0.347964 0.538317 0.141784 -0.064563
N1    N     N_R   0.966034 0.859102 0.494147 -0.288354
N2    N     N_R   0.033966 0.140898 0.505853 -0.288354
N3    N     N_R   0.533969 0.359110 0.005857 -0.288355
N4    N     N_R   0.466032 0.640894 0.994145 -0.288354
N5    N     N_R   0.002096 0.865683 0.461608 -0.287905
N6    N     N_R   0.997904 0.134317 0.538392 -0.287905
N7    N     N_R   0.497907 0.365690 0.038396 -0.287905
N8    N     N_R   0.502094 0.634313 0.961606 -0.287905
C57   C     C_R   0.036939 0.006731 0.466733 0.525605
C58   C     C_R   0.963061 0.993268 0.533266 0.525605
C59   C     C_R   0.463062 0.506733 0.033267 0.525604
C60   C     C_R   0.536939 0.493271 0.966735 0.525603
C61   C     C_3   0.562867 0.700848 0.475266 -0.373485
C62   C     C_3   0.536191 0.592784 0.422611 -0.755286
H21   H     H_    0.499201 0.530734 0.429958 0.226724
H22   H     H_    0.527622 0.684496 0.384567 0.230489
H23   H     H_    0.562339 0.480225 0.413888 0.217172
H24   H     H_    0.600471 0.757066 0.467720 0.180345
H25   H     H_    0.571127 0.607721 0.512941 0.171477
C63   C     C_3   0.437132 0.299152 0.524734 -0.373485
C64   C     C_3   0.463809 0.407216 0.577389 -0.755286
H26   H     H_    0.472378 0.315504 0.615433 0.230489
H27   H     H_    0.500798 0.469266 0.570043 0.226724
H28   H     H_    0.437660 0.519775 0.586112 0.217172
H29   H     H_    0.428873 0.392279 0.487059 0.171476
H30   H     H_    0.399529 0.242935 0.532280 0.180346
C65   C     C_3   0.937132 0.200847 0.024733 -0.373484
C66   C     C_3   0.963809 0.092780 0.077388 -0.755287
H31   H     H_    0.000798 0.030730 0.070040 0.226723
H32   H     H_    0.972378 0.184490 0.115432 0.230490
H33   H     H_    0.937660 0.980221 0.086110 0.217172
H34   H     H_    0.899529 0.257064 0.032280 0.180344
H35   H     H_    0.928873 0.107722 0.987057 0.171476
C67   C     C_3   0.062867 0.799153 0.975267 -0.373486
C68   C     C_3   0.036190 0.907220 0.922612 -0.755286
H36   H     H_    0.027620 0.815510 0.884568 0.230490
H37   H     H_    0.999201 0.969271 0.929960 0.226723
H38   H     H_    0.062339 0.019779 0.913889 0.217172
H39   H     H_    0.071127 0.892278 0.012942 0.171476
H40   H     H_    0.100471 0.742936 0.967719 0.180345
C69   C     C_3   0.810772 0.665670 0.586855 -0.355325
C70   C     C_3   0.755166 0.732210 0.561596 -0.288186
C71   C     C_3   0.716476 0.572209 0.553684 -0.740798
H41   H     H_    0.727252 0.468601 0.523698 0.220036
H42   H     H_    0.715893 0.505270 0.595483 0.244239
H43   H     H_    0.676687 0.624474 0.535772 0.204233
H44   H     H_    0.742094 0.836375 0.589787 0.181510
H45   H     H_    0.754640 0.797948 0.519314 0.188863
H46   H     H_    0.822433 0.568441 0.555503 0.164783
H47   H     H_    0.812040 0.581782 0.625992 0.198288
C72   C     C_3   0.189227 0.334333 0.413144 -0.355325
C73   C     C_3   0.244833 0.267796 0.438403 -0.288187
C74   C     C_3   0.283522 0.427798 0.446316 -0.740799
H48   H     H_    0.284105 0.494740 0.404517 0.244239
H49   H     H_    0.272746 0.531403 0.476303 0.220035
H50   H     H_    0.323312 0.375535 0.464227 0.204233
H51   H     H_    0.245359 0.202057 0.480685 0.188863
H52   H     H_    0.257905 0.163632 0.410213 0.181511
H53   H     H_    0.187959 0.418220 0.374006 0.198288
H54   H     H_    0.177565 0.431562 0.444495 0.164784
C75   C     C_3   0.689226 0.165662 0.913143 -0.355323
C76   C     C_3   0.744832 0.232195 0.938403 -0.288186
C77   C     C_3   0.783521 0.072190 0.946316 -0.740793
H55   H     H_    0.772741 0.968577 0.976299 0.220035
H56   H     H_    0.784106 0.005258 0.904516 0.244239
H57   H     H_    0.823310 0.124448 0.964233 0.204231
H58   H     H_    0.757906 0.336359 0.910214 0.181511
H59   H     H_    0.745358 0.297933 0.980685 0.188864
H60   H     H_    0.677564 0.068431 0.944493 0.164782
H61   H     H_    0.687958 0.081777 0.874005 0.198288
C78   C     C_3   0.310771 0.834325 0.086854 -0.355326
C79   C     C_3   0.255165 0.767782 0.061595 -0.288187
C80   C     C_3   0.216474 0.927780 0.053684 -0.740797
H62   H     H_    0.215891 0.994720 0.095483 0.244240
H63   H     H_    0.227249 0.031388 0.023697 0.220035
H64   H     H_    0.176685 0.875512 0.035773 0.204232
H65   H     H_    0.254639 0.702043 0.019314 0.188864
H66   H     H_    0.242094 0.663616 0.089787 0.181509
H67   H     H_    0.312038 0.918216 0.125991 0.198289
H68   H     H_    0.322431 0.931553 0.055501 0.164783

loop_
_geom_bond_atom_site_label_1
_geom_bond_atom_site_label_2
_ccdc_geom_bond_type
C79   H65   S    
O17   V3    S    
H8    C23   S    
C43   C47   A    
C78   C79   S    
C48   C52   A    
C26   C30   S    
C9    C26   S    
C16   C28   S    
C23   C27   S    
O19   V1    S    
O13   V1    S    
O3    C7    A    
C77   H55   S    
N4    N8    A    
C12   C27   S    
O15   V3    S    
C66   H31   S    
C40   C44   A    
C75   C76   S    
C69   H46   S    
C68   H36   S    
C80   H62   S    
C63   C64   S    
O1    C5    A    
C14   C21   S    
C3    C54   S    
O9    V1    S    
C77   H56   S    
O7    V3    S    
O10   V2    S    
C76   C77   S    
C47   H19   S    
C51   C75   S    
C67   H40   S    
C11   C15   S    
O4    C8    A    
C63   H30   S    
C7    C17   S    
C50   C54   A    
C71   H41   S    
C34   C38   A    
O1    V3    S    
C33   C37   A    
C76   H58   S    
O2    V4    S    
O3    V1    S    
C65   H34   S    
C64   H28   S    
C46   C50   A    
C61   H25   S    
C45   C49   A    
C1    O15   A    
C48   H20   S    
C2    O16   A    
C52   C78   S    
C47   C51   A    
O2    C6    A    
C10   C25   S    
C72   C73   S    
O14   V2    S    
C74   H49   S    
C35   H11   S    
C35   C55   A    
C75   H60   S    
C9    C61   S    
O11   C7    A    
O12   C8    A    
C14   C26   S    
N1    N5    A    
C78   H67   S    
C38   C42   A    
C37   C41   A    
O16   V4    S    
C69   H47   S    
C62   H21   S    
O5    V1    S    
C80   H63   S    
C9    C21   S    
C73   H52   S    
C44   C59   S    
C17   C29   T    
C11   C23   S    
O8    V4    S    
C42   C57   S    
C65   H35   S    
C12   C16   S    
C77   H57   S    
C19   C31   T    
C36   H12   S    
C46   H18   S    
C71   H43   S    
C67   H39   S    
C21   C25   S    
C63   H29   S    
C15   H3    S    
C50   C72   S    
C42   C46   A    
O11   V3    S    
C9    C13   S    
N8    C60   A    
C66   H32   S    
N3    C60   A    
C72   H53   S    
O7    C3    A    
C36   C56   A    
O5    C1    A    
C12   C24   S    
C70   H45   S    
C15   C24   S    
O8    C4    A    
C16   C23   S    
C15   C27   S    
C4    C53   S    
O9    C5    A    
C73   C74   S    
C74   H50   S    
C11   C65   S    
C8    C18   S    
C64   H26   S    
C68   H38   S    
C76   H59   S    
C75   H61   S    
O4    V2    S    
O6    V2    S    
H5    C22   S    
C10   C22   S    
C1    C56   S    
C20   C32   T    
O10   C6    A    
C18   C30   T    
C68   H37   S    
C78   H68   S    
C36   C40   A    
C13   C22   S    
C65   C66   S    
C66   H33   S    
C49   C53   A    
C5    C19   S    
C49   C69   S    
C79   C80   S    
C6    C20   S    
C61   C62   S    
C22   C26   S    
C80   H64   S    
C79   H66   S    
C71   H42   S    
N5    C57   A    
C73   H51   S    
C3    O13   A    
C45   H17   S    
C10   C14   S    
N7    C59   A    
C70   H44   S    
C40   H16   S    
C12   C67   S    
O6    C2    A    
N4    C59   A    
C62   H22   S    
C25   C29   S    
C67   C68   S    
O18   V4    S    
O12   V4    S    
C27   C31   S    
C28   C32   S    
C72   H54   S    
C34   C54   A    
O20   V2    S    
N1    C58   A    
C33   C53   A    
C69   C70   S    
C39   C43   A    
C34   H10   S    
C44   C48   A    
C33   H9    S    
C43   C60   S    
C52   C56   A    
H6    C21   S    
N2    N6    A    
C51   C55   A    
C13   H1    S    
C2    C55   S    
C41   C45   A    
C64   H27   S    
C62   H23   S    
C61   H24   S    
C14   H2    S    
C24   C28   S    
C16   H4    S    
C35   C39   A    
C41   C58   S    
C10   C63   S    
N6    C58   A    
C38   H14   S    
C4    O14   A    
C37   H13   S    
C70   C71   S    
C11   C28   S    
N2    C57   A    
N3    N7    A    
C74   H48   S    
C39   H15   S    
C13   C25   S    
H7    C24   S    
