data_mof_unit_22451.cif
_audit_creation_date              2012-12-10T17:47:17-0500
_audit_creation_method            fapswitch 2.2
_symmetry_space_group_name_H-M    P1
_symmetry_Int_Tables_number       1
_space_group_crystal_system       triclinic
_cell_length_a                    11.722841
_cell_length_b                    14.798534
_cell_length_c                    14.635563
_cell_angle_alpha                 64.857183
_cell_angle_beta                  104.607139
_cell_angle_gamma                 103.535806
_cell_volume                      2200.6718907

loop_
_atom_site_label
_atom_site_type_symbol
_atom_type_description
_atom_site_fract_x
_atom_site_fract_y
_atom_site_fract_z
_atom_type_partial_charge
Br1   Br    Br    0.392755 0.353039 0.778434 -0.454225
Br2   Br    Br    0.607058 0.646950 0.221572 -0.454291
Br3   Br    Br    0.644440 0.612314 0.682883 -0.500286
Br4   Br    Br    0.355409 0.387606 0.317196 -0.500312
Br5   Br    Br    0.316854 0.679902 0.739481 -0.444316
Br6   Br    Br    0.683053 0.320174 0.260495 -0.444329
C1    C     C_R   0.488859 0.119241 0.311576 0.859116
C2    C     C_R   0.561678 0.606829 0.106676 0.274336
C3    C     C_R   0.730323 0.309101 0.630089 -0.254717
C4    C     C_R   0.269665 0.690927 0.369884 -0.254725
C5    C     C_R   0.689319 0.220638 0.613429 0.184496
C6    C     C_R   0.310694 0.779389 0.386542 0.184537
C7    C     C_R   0.503508 0.276711 0.526542 0.116659
C8    C     C_R   0.496464 0.723265 0.473488 0.116656
C9    C     C_R   0.545782 0.372920 0.534050 0.023029
C10   C     C_R   0.454165 0.627058 0.465980 0.023036
C11   C     C_R   0.657968 0.383701 0.595757 0.016065
C12   C     C_R   0.511146 0.880759 0.688425 0.859140
C13   C     C_R   0.341988 0.616295 0.404256 0.016086
C14   C     C_R   0.480579 0.457259 0.485093 0.010338
C15   C     C_R   0.519346 0.542707 0.514949 0.010316
C16   C     C_R   0.283892 0.999724 0.499731 0.836416
C17   C     C_R   0.716108 0.000276 0.500269 0.836470
C18   C     C_R   0.619742 0.538940 0.594549 0.184490
C19   C     C_R   0.380170 0.461023 0.405500 0.184468
C20   C     C_R   0.694588 0.466080 0.626257 -0.031681
C21   C     C_R   0.305345 0.533904 0.373776 -0.031604
C22   C     C_1   0.161970 0.999143 0.499608 -0.095791
C23   C     C_R   0.453641 0.324232 0.995817 0.028793
C24   C     C_1   0.838030 0.000857 0.500393 -0.095830
C25   C     C_1   0.059712 0.999556 0.499809 0.058143
C26   C     C_1   0.940288 0.000444 0.500191 0.058138
C27   C     C_R   0.490359 0.185750 0.201419 -0.166629
C28   C     C_R   0.509636 0.814254 0.798581 -0.166653
C29   C     C_R   0.429533 0.220153 0.019560 -0.163904
C30   C     C_R   0.570441 0.779840 0.980445 -0.163922
C31   C     C_R   0.446366 0.150408 0.120884 -0.069425
C32   C     C_R   0.553679 0.849587 0.879119 -0.069421
C33   C     C_R   0.535617 0.288860 0.175625 0.215480
C34   C     C_R   0.546246 0.675762 0.004187 0.028816
C35   C     C_R   0.464304 0.711155 0.824370 0.215492
C36   C     C_R   0.500687 0.360189 0.075541 0.028724
C37   C     C_R   0.499185 0.639812 0.924458 0.028744
C38   C     C_2   0.570810 0.957147 0.864090 0.946848
C39   C     C_2   0.429394 0.042856 0.135914 0.946899
C40   C     C_2   0.807596 0.473634 0.698634 0.921238
C41   C     C_2   0.192342 0.526370 0.301389 0.921226
C42   C     C_2   0.226063 0.853067 0.341865 0.891240
C43   C     C_2   0.773992 0.146992 0.658083 0.891173
C44   C     C_R   0.511988 0.465725 0.051823 0.026735
C45   C     C_R   0.487845 0.534272 0.948175 0.026745
C46   C     C_R   0.459734 0.495930 0.870992 -0.118648
C47   C     C_R   0.540072 0.504062 0.129009 -0.118648
C48   C     C_R   0.438154 0.393163 0.893329 0.274320
Cu1   Cu    Cu3+1 0.469550 0.918260 0.475690 1.055407
Cu2   Cu    Cu3+1 0.530450 0.081740 0.524310 1.055405
H1    H     H_    0.397898 0.191849 0.959164 0.217835
H2    H     H_    0.329034 0.930455 0.095496 0.351386
H3    H     H_    0.964725 0.557264 0.726024 0.369390
H4    H     H_    0.035145 0.442815 0.274020 0.369383
H5    H     H_    0.061382 0.879673 0.332160 0.347637
H6    H     H_    0.938748 0.120490 0.667859 0.347689
H7    H     H_    0.602109 0.808141 0.040841 0.217780
H8    H     H_    0.454942 0.545103 0.791534 0.231177
H9    H     H_    0.544838 0.454885 0.208464 0.231170
H10   H     H_    0.588052 0.743083 0.502984 0.177359
H11   H     H_    0.411917 0.256870 0.497076 0.177364
H12   H     H_    0.819786 0.317862 0.671994 0.186742
H13   H     H_    0.180212 0.682191 0.327952 0.186630
H14   H     H_    0.671397 0.069504 0.904458 0.351375
N1    N     N_R   0.576230 0.204580 0.560790 -0.217411
N2    N     N_R   0.423770 0.795420 0.439210 -0.217459
O1    O     O_R   0.459870 0.022090 0.338120 -0.539206
O2    O     O_R   0.670679 0.995930 0.919313 -0.711295
O3    O     O_2   0.506021 0.990025 0.190982 -0.560021
O4    O     O_R   0.329641 0.004014 0.080634 -0.711284
O5    O     O_2   0.824864 0.405999 0.783468 -0.553990
O6    O     O_R   0.892160 0.560083 0.670321 -0.689289
O7    O     O_2   0.175149 0.593966 0.216521 -0.553936
O8    O     O_R   0.107701 0.439985 0.329735 -0.689292
O9    O     O_2   0.251930 0.937200 0.278516 -0.570750
O10   O     O_R   0.112510 0.823572 0.368274 -0.729440
O11   O     O_2   0.748104 0.062799 0.721320 -0.570696
O12   O     O_R   0.540130 0.977910 0.661880 -0.539137
O13   O     O_R   0.887601 0.176578 0.631780 -0.729470
O14   O     O_R   0.511290 0.160150 0.379180 -0.539871
O15   O     O_R   0.488710 0.839850 0.620820 -0.539865
O16   O     O_R   0.311490 0.930960 0.479480 -0.572225
O17   O     O_R   0.688510 0.069040 0.520520 -0.572220
O18   O     O_R   0.362910 0.069020 0.520540 -0.575978
O19   O     O_R   0.637090 0.930980 0.479460 -0.575947
O20   O     O_2   0.494222 0.010038 0.809076 -0.559996

loop_
_geom_bond_atom_site_label_1
_geom_bond_atom_site_label_2
_ccdc_geom_bond_type
Cu1   Cu2   S    
C10   C15   A    
C23   C36   A    
C1    C27   S    
C41   O7    D    
C6    C42   S    
Br4   C19   S    
H2    O4    S    
C1    O1    A    
C27   C33   A    
C39   O4    S    
C11   C20   A    
C29   C31   A    
C18   C20   A    
H5    O10   S    
C5    N1    A    
C1    O14   A    
C14   C19   A    
C42   O9    D    
Cu1   O16   S    
Cu1   O19   S    
C34   C37   A    
H14   O2    S    
C12   O12   A    
C17   O17   A    
C16   O16   A    
C30   H7    S    
C47   H9    S    
Cu1   N2    S    
C38   O20   D    
Cu2   O18   S    
C6    N2    A    
C16   C22   S    
C35   C37   A    
Br3   C18   S    
C28   C35   A    
C41   O8    S    
H3    O6    S    
C46   C48   A    
Cu2   O12   S    
C33   C36   A    
C8    H10   S    
C9    C14   A    
H6    O13   S    
C44   C47   A    
C45   C46   A    
C17   C24   S    
C43   O13   S    
C30   C34   A    
C46   H8    S    
C40   O6    S    
C7    N1    A    
C27   C31   A    
Br1   C48   S    
C32   C38   S    
C5    C43   S    
C12   C28   S    
Cu2   O14   S    
C25   C26   S    
C4    C13   A    
Cu2   N1    S    
C44   C45   A    
C16   O18   A    
C38   O2    S    
C3    C5    A    
C4    C6    A    
C36   C44   A    
C3    C11   A    
Cu2   O17   S    
C7    C9    A    
C17   O19   A    
C31   C39   S    
C13   C21   A    
C7    H11   S    
C21   C41   S    
C9    C11   A    
Br5   C35   S    
H4    O8    S    
C28   C32   A    
C8    N2    A    
C22   C25   T    
Br2   C2    S    
C2    C47   A    
C40   O5    D    
C19   C21   A    
C23   C29   A    
C12   O15   A    
C29   H1    S    
C39   O3    D    
C43   O11   D    
C30   C32   A    
C3    H12   S    
C24   C26   T    
C37   C45   A    
C10   C13   A    
C42   O10   S    
C8    C10   A    
Cu1   O15   S    
C20   C40   S    
Cu1   O1    S    
C4    H13   S    
C14   C15   A    
C23   C48   A    
C15   C18   A    
Br6   C33   S    
C2    C34   A    
