data_mof_unit_50306.cif
_audit_creation_date              2012-12-10T16:56:30-0500
_audit_creation_method            fapswitch 2.2
_symmetry_space_group_name_H-M    P1
_symmetry_Int_Tables_number       1
_space_group_crystal_system       triclinic
_cell_length_a                    7.82661
_cell_length_b                    8.576288
_cell_length_c                    15.687452
_cell_angle_alpha                 91.328568
_cell_angle_beta                  86.51246
_cell_angle_gamma                 92.39717
_cell_volume                      1049.8981206

loop_
_atom_site_label
_atom_site_type_symbol
_atom_type_description
_atom_site_fract_x
_atom_site_fract_y
_atom_site_fract_z
_atom_type_partial_charge
Br1   Br    Br    0.718011 0.010254 0.386041 -0.402224
Br2   Br    Br    0.282002 0.989749 0.613964 -0.402196
C1    C     C_R   0.543581 0.794027 0.497399 0.952631
C2    C     C_3   0.344108 0.450734 0.028545 0.056693
C3    C     C_1   0.508838 0.499469 0.750415 -0.103986
C4    C     C_1   0.491162 0.500531 0.249585 -0.103978
C5    C     C_3   0.382694 0.596213 0.973687 -0.240353
C6    C     C_3   0.617306 0.403788 0.026313 -0.240349
C7    C     C_3   0.507347 0.499788 0.916691 0.168156
C8    C     C_3   0.492653 0.500212 0.083309 0.168155
C9    C     C_1   0.510312 0.499351 0.825710 0.032010
C10   C     C_1   0.489688 0.500649 0.174290 0.032009
C11   C     C_2   0.832747 0.604835 0.941186 0.378638
C12   C     C_R   0.456420 0.205973 0.502601 0.952650
C13   C     C_2   0.167252 0.395167 0.058814 0.378642
C14   C     C_2   0.021290 0.409323 0.396740 0.760911
C15   C     C_2   0.978699 0.590731 0.603247 0.760865
C16   C     C_R   0.502873 0.500045 0.661746 0.910388
C17   C     C_R   0.497126 0.499956 0.338254 0.910408
C18   C     C_2   0.559001 0.953707 0.481133 0.014502
C19   C     C_2   0.441002 0.046293 0.518868 0.014500
C20   C     C_3   0.533304 0.646366 0.029805 -0.241074
C21   C     C_3   0.466696 0.353635 0.970195 -0.241062
C22   C     C_3   0.655891 0.549266 0.971455 0.056689
H1    H     H_    0.560899 0.765709 0.055779 0.162589
H2    H     H_    0.439100 0.234291 0.944221 0.162589
H3    H     H_    0.713603 0.325853 0.049499 0.167392
H4    H     H_    0.286397 0.674147 0.950501 0.167393
H5    H     H_    0.925652 0.638100 0.987521 0.055325
H6    H     H_    0.074339 0.361914 0.012479 0.055323
H7    H     H_    0.037859 0.491576 0.345050 0.029406
H8    H     H_    0.962027 0.508499 0.654940 0.029449
N1    N     N_2   0.950320 0.457950 0.477300 -0.194922
N2    N     N_2   0.049680 0.542050 0.522700 -0.194914
O1    O     O_R   0.389250 0.738570 0.505570 -0.595558
O2    O     O_2   0.126702 0.386994 0.134964 -0.552812
O3    O     O_2   0.058035 0.273581 0.384100 -0.524992
O4    O     O_2   0.942057 0.726499 0.615872 -0.524989
O5    O     O_R   0.610750 0.261430 0.494430 -0.595567
O6    O     O_R   0.678390 0.711630 0.491020 -0.582337
O7    O     O_R   0.321610 0.288370 0.508980 -0.582295
O8    O     O_R   0.355460 0.513480 0.630490 -0.628561
O9    O     O_R   0.644540 0.486520 0.369510 -0.628595
O10   O     O_R   0.644600 0.486540 0.615950 -0.647885
O11   O     O_R   0.355400 0.513460 0.384050 -0.647835
O12   O     O_2   0.873304 0.612997 0.865036 -0.552826
Zn1   Zn    Zn3+2 0.306940 0.517990 0.509710 1.026020
Zn2   Zn    Zn3+2 0.693060 0.482010 0.490290 1.025976

loop_
_geom_bond_atom_site_label_1
_geom_bond_atom_site_label_2
_ccdc_geom_bond_type
C17   O11   A    
C7    C22   S    
N2    Zn1   S    
C16   O10   A    
C14   N1    S    
C5    C20   S    
O9    Zn2   S    
C1    O1    A    
C14   O3    D    
C15   O4    D    
O1    Zn1   S    
C2    C13   S    
C16   O8    A    
N1    N2    D    
O7    Zn1   S    
C1    C18   S    
C8    C20   S    
C14   H7    S    
N1    Zn2   S    
C4    C17   S    
C7    C9    S    
C8    C10   S    
Br2   C19   S    
C12   O7    A    
C12   C19   S    
C11   H5    S    
C6    C22   S    
C17   O9    A    
C1    O6    A    
C3    C9    T    
O8    Zn1   S    
O11   Zn1   S    
C4    C10   T    
C11   O12   D    
C12   O5    A    
C20   C22   S    
C15   N2    S    
C2    C8    S    
C13   O2    D    
C6    C21   S    
C18   C19   D    
C13   H6    S    
C6    C8    S    
C21   H2    S    
C5    C7    S    
C15   H8    S    
O6    Zn2   S    
C6    H3    S    
Br1   C18   S    
C3    C16   S    
C2    C5    S    
C2    C21   S    
C7    C21   S    
C5    H4    S    
O10   Zn2   S    
C11   C22   S    
O5    Zn2   S    
C20   H1    S    
