data_mof_unit_53858.cif
_audit_creation_date              2012-12-11T15:08:39-0500
_audit_creation_method            fapswitch 2.2
_symmetry_space_group_name_H-M    P1
_symmetry_Int_Tables_number       1
_space_group_crystal_system       triclinic
_cell_length_a                    21.435342
_cell_length_b                    21.417017
_cell_length_c                    22.323347
_cell_angle_alpha                 89.993323
_cell_angle_beta                  89.971492
_cell_angle_gamma                 89.9961
_cell_volume                      10248.2249778

loop_
_atom_site_label
_atom_site_type_symbol
_atom_type_description
_atom_site_fract_x
_atom_site_fract_y
_atom_site_fract_z
_atom_type_partial_charge
C1    C     C_R   0.914434 0.158625 0.079087 -0.141277
C2    C     C_R   0.061441 0.135197 0.112544 -0.126372
C3    C     C_R   0.360500 0.800957 0.156794 0.609817
C4    C     C_R   0.201299 0.361152 0.845872 0.621561
C5    C     C_R   0.734902 0.896767 0.305019 0.620858
C6    C     C_R   0.265262 0.896754 0.695106 0.622328
C7    C     C_R   0.798759 0.361169 0.154129 0.619968
C8    C     C_R   0.301384 0.139335 0.342656 0.606974
C9    C     C_R   0.764481 0.602818 0.805944 0.610617
C10   C     C_R   0.235107 0.603167 0.194914 0.626048
C11   C     C_R   0.698260 0.139305 0.657706 0.610021
C12   C     C_R   0.860749 0.699416 0.343778 0.614017
C13   C     C_R   0.135189 0.938599 0.887463 -0.131160
C14   C     C_R   0.396851 0.233195 0.804150 0.612645
C15   C     C_R   0.603158 0.233267 0.195778 0.610686
C16   C     C_R   0.139266 0.699592 0.656115 0.612622
C17   C     C_R   0.851910 0.147909 0.091014 0.080563
C18   C     C_R   0.107496 0.892603 0.852429 0.065654
C19   C     C_R   0.107550 0.107542 0.147479 0.064314
C20   C     C_R   0.852092 0.852069 0.908883 0.076316
C21   C     C_R   0.147894 0.852085 0.091251 0.077684
C22   C     C_R   0.892469 0.107428 0.852487 0.064510
C23   C     C_R   0.892538 0.892594 0.147582 0.065213
C24   C     C_R   0.841407 0.085380 0.079012 -0.134886
C25   C     C_R   0.148087 0.147896 0.908962 0.080339
C26   C     C_R   0.352084 0.647937 0.591205 0.077989
C27   C     C_R   0.607433 0.392027 0.352568 0.064965
C28   C     C_R   0.607592 0.607495 0.647467 0.065782
C29   C     C_R   0.352248 0.351982 0.408797 0.078310
C30   C     C_R   0.647703 0.351937 0.591244 0.076764
C31   C     C_R   0.392574 0.607410 0.352438 0.065577
C32   C     C_R   0.392604 0.392043 0.647450 0.065229
C33   C     C_R   0.647937 0.647919 0.408796 0.077770
C34   C     C_R   0.822369 0.742385 0.885170 -0.196599
C35   C     C_R   0.085563 0.158622 0.920895 -0.140475
C36   C     C_R   0.177222 0.097065 0.235998 -0.189486
C37   C     C_R   0.822663 0.096893 0.764091 -0.193910
C38   C     C_R   0.177826 0.742249 0.114475 -0.198803
C39   C     C_R   0.257670 0.176542 0.884422 -0.189099
C40   C     C_R   0.902984 0.823187 0.236403 -0.192390
C41   C     C_R   0.097071 0.823259 0.763570 -0.191121
C42   C     C_R   0.742327 0.176598 0.115526 -0.190668
C43   C     C_R   0.242561 0.321898 0.385942 -0.189785
C44   C     C_R   0.596994 0.676659 0.736431 -0.197716
C45   C     C_R   0.402940 0.676949 0.263740 -0.192779
C46   C     C_R   0.938615 0.864908 0.112614 -0.123621
C47   C     C_R   0.757370 0.321679 0.613999 -0.192345
C48   C     C_R   0.677794 0.757766 0.385642 -0.201892
C49   C     C_R   0.324809 0.402856 0.737539 -0.193678
C50   C     C_R   0.675251 0.402846 0.262489 -0.194006
C51   C     C_R   0.322296 0.757790 0.614400 -0.201623
C52   C     C_R   0.804652 0.804666 0.894703 0.086355
C53   C     C_R   0.125653 0.125532 0.208637 0.085967
C54   C     C_R   0.874334 0.125309 0.791314 0.087118
C55   C     C_R   0.195366 0.804695 0.105463 0.085117
C56   C     C_R   0.195876 0.195104 0.895021 0.078905
C57   C     C_R   0.864822 0.061396 0.887507 -0.125128
C58   C     C_R   0.874570 0.874697 0.208831 0.087296
C59   C     C_R   0.125503 0.874722 0.791188 0.086913
C60   C     C_R   0.804130 0.195135 0.104945 0.079153
C61   C     C_R   0.304993 0.304413 0.394642 0.084265
C62   C     C_R   0.625703 0.625438 0.708620 0.087496
C63   C     C_R   0.374602 0.625344 0.291221 0.086946
C64   C     C_R   0.694895 0.304306 0.605434 0.082363
C65   C     C_R   0.695419 0.695358 0.394720 0.085688
C66   C     C_R   0.375037 0.373572 0.708648 0.085561
C67   C     C_R   0.625022 0.373556 0.291378 0.086736
C68   C     C_R   0.158535 0.914590 0.079147 -0.145886
C69   C     C_R   0.304628 0.695404 0.605274 0.086350
C70   C     C_R   0.742372 0.822501 0.885399 -0.214783
C71   C     C_R   0.096994 0.176849 0.236399 -0.201037
C72   C     C_R   0.903026 0.176521 0.763425 -0.203368
C73   C     C_R   0.257589 0.822610 0.115014 -0.211046
C74   C     C_R   0.179059 0.257972 0.887164 -0.192721
C75   C     C_R   0.823286 0.903500 0.236495 -0.203627
C76   C     C_R   0.176833 0.903501 0.763574 -0.203805
C77   C     C_R   0.820964 0.257993 0.112818 -0.196425
C78   C     C_R   0.323000 0.242215 0.384751 -0.204353
C79   C     C_R   0.414563 0.658597 0.579153 -0.143339
C80   C     C_R   0.677268 0.596901 0.736027 -0.207779
C81   C     C_R   0.323375 0.596510 0.263524 -0.207133
C82   C     C_R   0.676785 0.242160 0.615478 -0.203498
C83   C     C_R   0.757727 0.677562 0.385363 -0.210676
C84   C     C_R   0.403136 0.321242 0.735190 -0.204267
C85   C     C_R   0.596926 0.321239 0.264831 -0.203394
C86   C     C_R   0.242300 0.677659 0.614579 -0.213321
C87   C     C_3   0.620819 0.901799 0.812610 -0.279239
C88   C     C_3   0.053313 0.334366 0.245255 -0.270362
C89   C     C_3   0.946691 0.333700 0.754747 -0.277371
C90   C     C_R   0.561421 0.364567 0.387676 -0.122393
C91   C     C_3   0.421532 0.853243 0.091101 -0.259283
C92   C     C_3   0.107683 0.410025 0.824811 -0.251775
C93   C     C_3   0.666107 0.948247 0.245185 -0.252697
C94   C     C_3   0.334105 0.948108 0.754977 -0.259148
C95   C     C_3   0.892208 0.410542 0.174989 -0.258891
C96   C     C_3   0.354048 0.079535 0.409008 -0.239424
C97   C     C_3   0.776101 0.500678 0.829151 -0.271250
C98   C     C_3   0.166076 0.550893 0.253982 -0.287270
C99   C     C_3   0.645264 0.076992 0.593652 -0.249815
C100  C     C_3   0.922609 0.647676 0.409152 -0.286437
C101  C     C_R   0.635227 0.561433 0.612467 -0.128279
C102  C     C_3   0.499571 0.222728 0.824583 -0.255496
C103  C     C_3   0.500111 0.224734 0.176172 -0.244083
C104  C     C_3   0.079174 0.648007 0.589237 -0.279917
C105  C     C_R   0.061399 0.864918 0.887384 -0.123569
C106  C     C_R   0.341489 0.414495 0.420840 -0.135551
C107  C     C_R   0.585281 0.341380 0.579137 -0.143962
C108  C     C_R   0.438643 0.635089 0.387387 -0.124876
C109  C     C_R   0.364892 0.438352 0.612679 -0.123149
C110  C     C_R   0.658553 0.585391 0.420819 -0.146315
C111  C     C_R   0.414681 0.341387 0.420884 -0.143741
C112  C     C_R   0.561453 0.635155 0.612573 -0.126994
C113  C     C_R   0.635129 0.438339 0.387333 -0.122538
C114  C     C_R   0.341450 0.585412 0.579179 -0.147237
C115  C     C_R   0.585459 0.658598 0.420857 -0.143450
C116  C     C_R   0.135188 0.061450 0.112502 -0.123857
C117  C     C_R   0.438596 0.364570 0.612332 -0.123797
C118  C     C_R   0.364854 0.561403 0.387468 -0.133219
C119  C     C_R   0.658499 0.414452 0.579178 -0.140530
C120  C     C_R   0.700343 0.781555 0.858245 -0.030036
C121  C     C_R   0.126728 0.207587 0.283586 -0.032236
C122  C     C_R   0.873227 0.207265 0.716273 -0.033522
C123  C     C_R   0.299739 0.781405 0.141607 -0.032597
C124  C     C_R   0.220534 0.300015 0.860470 -0.020543
C125  C     C_R   0.792404 0.873818 0.283650 -0.031537
C126  C     C_R   0.207726 0.873836 0.716422 -0.031807
C127  C     C_R   0.841453 0.914583 0.920913 -0.149105
C128  C     C_R   0.779501 0.300044 0.139520 -0.020890
C129  C     C_R   0.281806 0.200059 0.358167 -0.035352
C130  C     C_R   0.707741 0.626393 0.783466 -0.034554
C131  C     C_R   0.292495 0.626221 0.216404 -0.032737
C132  C     C_R   0.717939 0.199959 0.642072 -0.033850
C133  C     C_R   0.799881 0.718830 0.358801 -0.033561
C134  C     C_R   0.373924 0.290681 0.782713 -0.037882
C135  C     C_R   0.626103 0.290728 0.217261 -0.039128
C136  C     C_R   0.200162 0.718952 0.641128 -0.034273
C137  C     C_R   0.264279 0.103286 0.304543 -0.377394
C138  C     C_R   0.085436 0.841403 0.079180 -0.143561
C139  C     C_R   0.801281 0.640654 0.842738 -0.382633
C140  C     C_R   0.199164 0.640292 0.156490 -0.390079
C141  C     C_R   0.735416 0.103223 0.695798 -0.388212
C142  C     C_R   0.896796 0.736437 0.305491 -0.388159
C143  C     C_R   0.358988 0.196494 0.840949 -0.376408
C144  C     C_R   0.641007 0.196577 0.158982 -0.374424
C145  C     C_R   0.103225 0.736589 0.694396 -0.383617
C146  C     C_R   0.603212 0.763621 0.805211 -0.392892
C147  C     C_R   0.140810 0.300763 0.343851 -0.383132
C148  C     C_R   0.859159 0.300409 0.655945 -0.384065
C149  C     C_R   0.938572 0.135132 0.887404 -0.129459
C150  C     C_R   0.396590 0.763903 0.194954 -0.383390
C151  C     C_R   0.239736 0.397863 0.808764 -0.397814
C152  C     C_R   0.698991 0.859671 0.343504 -0.394084
C153  C     C_R   0.301164 0.859668 0.656608 -0.394769
C154  C     C_R   0.760323 0.397869 0.191258 -0.400920
C155  C     C_R   0.781125 0.700649 0.858481 0.115636
C156  C     C_R   0.207484 0.126672 0.283234 0.111741
C157  C     C_R   0.792332 0.126504 0.716897 0.117568
C158  C     C_R   0.219054 0.700505 0.141253 0.116874
C159  C     C_R   0.299681 0.217523 0.857842 0.114089
C160  C     C_R   0.864831 0.938600 0.112551 -0.129088
C161  C     C_R   0.873340 0.793080 0.283763 0.116128
C162  C     C_R   0.126721 0.793176 0.716202 0.113523
C163  C     C_R   0.700328 0.217583 0.142115 0.112584
C164  C     C_R   0.200892 0.280723 0.359065 0.117076
C165  C     C_R   0.626727 0.706990 0.783574 0.116931
C166  C     C_R   0.373253 0.707132 0.216491 0.115217
C167  C     C_R   0.799014 0.280458 0.640865 0.114193
C168  C     C_R   0.719007 0.799551 0.358895 0.118175
C169  C     C_R   0.294952 0.373167 0.785126 0.124462
C170  C     C_R   0.705102 0.373176 0.214890 0.125074
C171  C     C_R   0.158591 0.085367 0.920978 -0.134057
C172  C     C_R   0.281104 0.799587 0.641154 0.118585
C173  C     C_R   0.721003 0.721187 0.842209 -0.026851
C174  C     C_R   0.184225 0.184028 0.304706 -0.025558
C175  C     C_R   0.815639 0.183789 0.695302 -0.026909
C176  C     C_R   0.279049 0.721105 0.157748 -0.026234
C177  C     C_R   0.280038 0.278350 0.842847 -0.030035
C178  C     C_R   0.815902 0.816326 0.304972 -0.027655
C179  C     C_R   0.184194 0.816392 0.695044 -0.027454
C180  C     C_R   0.719990 0.278394 0.157133 -0.030317
C181  C     C_R   0.221496 0.220758 0.342282 -0.024870
C182  C     C_R   0.914561 0.841395 0.920900 -0.142017
C183  C     C_R   0.684225 0.683905 0.804687 -0.027565
C184  C     C_R   0.315886 0.683822 0.195228 -0.027743
C185  C     C_R   0.778336 0.220553 0.657777 -0.026255
C186  C     C_R   0.779088 0.779050 0.342512 -0.026620
C187  C     C_R   0.317266 0.314945 0.805125 -0.024494
C188  C     C_R   0.682770 0.314982 0.194865 -0.024351
C189  C     C_R   0.220998 0.779128 0.657486 -0.026044
C190  C     C_R   0.640222 0.801869 0.841564 0.620733
C191  C     C_R   0.103826 0.265044 0.305175 0.624701
C192  C     C_R   0.896158 0.264670 0.694592 0.623862
H1    H     H_    0.869534 0.727074 0.893986 0.111531
H2    H     H_    0.555018 0.697055 0.718031 0.111756
H3    H     H_    0.318291 0.919655 0.793911 0.123154
H4    H     H_    0.346902 0.994967 0.772215 0.182691
H5    H     H_    0.892494 0.382275 0.216918 0.137729
H6    H     H_    0.877931 0.459403 0.184390 0.155969
H7    H     H_    0.940812 0.412207 0.158005 0.166586
H8    H     H_    0.325627 0.037321 0.398932 0.140705
H9    H     H_    0.333691 0.105586 0.447526 0.135709
H10   H     H_    0.401176 0.063475 0.422554 0.178689
H11   H     H_    0.725096 0.495518 0.837332 0.138718
H12   H     H_    0.800908 0.511030 0.871806 0.146969
H13   H     H_    0.444679 0.697612 0.282342 0.112021
H14   H     H_    0.793680 0.455209 0.812350 0.174292
H15   H     H_    0.123506 0.571419 0.233451 0.146756
H16   H     H_    0.181240 0.579273 0.293180 0.128606
H17   H     H_    0.153513 0.503823 0.270880 0.173440
H18   H     H_    0.672107 0.034512 0.606331 0.138044
H19   H     H_    0.667227 0.100341 0.554351 0.139846
H20   H     H_    0.597949 0.061685 0.579920 0.178185
H21   H     H_    0.898451 0.669710 0.447957 0.138325
H22   H     H_    0.964896 0.674958 0.396787 0.141411
H23   H     H_    0.938294 0.600636 0.423495 0.177238
H24   H     H_    0.772902 0.368662 0.604475 0.114749
H25   H     H_    0.490444 0.199926 0.868547 0.135775
H26   H     H_    0.505093 0.274082 0.830414 0.131464
H27   H     H_    0.544435 0.204223 0.807275 0.186113
H28   H     H_    0.508643 0.203560 0.131359 0.134333
H29   H     H_    0.494943 0.276314 0.172182 0.131390
H30   H     H_    0.455271 0.205931 0.193234 0.188317
H31   H     H_    0.105164 0.668900 0.550943 0.133145
H32   H     H_    0.037072 0.676387 0.599809 0.144514
H33   H     H_    0.063004 0.601081 0.575066 0.177856
H34   H     H_    0.630675 0.773107 0.394667 0.110676
H35   H     H_    0.304925 0.445436 0.719806 0.116371
H36   H     H_    0.695138 0.445413 0.280231 0.116129
H37   H     H_    0.369433 0.773097 0.605418 0.109779
H38   H     H_    0.727597 0.869706 0.894670 0.157200
H39   H     H_    0.054954 0.196720 0.217766 0.159036
H40   H     H_    0.945151 0.196316 0.781951 0.159630
H41   H     H_    0.197791 0.055275 0.217326 0.116201
H42   H     H_    0.272383 0.869876 0.106008 0.161129
H43   H     H_    0.132195 0.273260 0.897209 0.159843
H44   H     H_    0.803499 0.945562 0.217764 0.158538
H45   H     H_    0.196643 0.945528 0.782340 0.158554
H46   H     H_    0.867835 0.273264 0.102784 0.160289
H47   H     H_    0.370305 0.227476 0.393454 0.164138
H48   H     H_    0.697318 0.554985 0.717226 0.161607
H49   H     H_    0.303633 0.554389 0.282199 0.158288
H50   H     H_    0.629439 0.227504 0.606877 0.164721
H51   H     H_    0.772585 0.630337 0.394479 0.161431
H52   H     H_    0.802057 0.055164 0.782853 0.110467
H53   H     H_    0.444367 0.300633 0.715648 0.163711
H54   H     H_    0.555719 0.300602 0.284391 0.163592
H55   H     H_    0.227410 0.630454 0.605438 0.160840
H56   H     H_    0.281924 0.058816 0.288679 0.167529
H57   H     H_    0.847219 0.624456 0.855811 0.161664
H58   H     H_    0.154144 0.623398 0.141487 0.158626
H59   H     H_    0.717697 0.058863 0.711879 0.156555
H60   H     H_    0.941335 0.718832 0.289836 0.158520
H61   H     H_    0.374586 0.150059 0.853190 0.158893
H62   H     H_    0.625366 0.150177 0.146688 0.160179
H63   H     H_    0.130767 0.726835 0.105321 0.111086
H64   H     H_    0.058630 0.719027 0.709940 0.163112
H65   H     H_    0.557863 0.780194 0.790775 0.156267
H66   H     H_    0.124006 0.345867 0.358852 0.155572
H67   H     H_    0.876002 0.345480 0.640891 0.161471
H68   H     H_    0.441063 0.781573 0.210665 0.160090
H69   H     H_    0.225289 0.444411 0.795929 0.155687
H70   H     H_    0.653861 0.876472 0.358352 0.158410
H71   H     H_    0.346316 0.876441 0.641797 0.157142
H72   H     H_    0.774758 0.444408 0.204115 0.155305
H73   H     H_    0.937021 0.203460 0.074706 0.092397
H74   H     H_    0.272315 0.128920 0.892097 0.110628
H75   H     H_    0.030031 0.827896 0.874737 0.095707
H76   H     H_    0.172282 0.030125 0.125027 0.099008
H77   H     H_    0.796727 0.937280 0.925483 0.090179
H78   H     H_    0.062839 0.796588 0.074714 0.087648
H79   H     H_    0.969888 0.172231 0.874786 0.099028
H80   H     H_    0.827695 0.969901 0.125057 0.097263
H81   H     H_    0.203284 0.062661 0.925760 0.086046
H82   H     H_    0.937168 0.796588 0.925427 0.087879
H83   H     H_    0.030122 0.172312 0.125109 0.099044
H84   H     H_    0.172330 0.969897 0.874972 0.097195
H85   H     H_    0.944771 0.802556 0.217819 0.111626
H86   H     H_    0.796713 0.062681 0.074236 0.086427
H87   H     H_    0.062975 0.203460 0.925261 0.092338
H88   H     H_    0.969983 0.827876 0.125249 0.094980
H89   H     H_    0.827736 0.030055 0.875021 0.095239
H90   H     H_    0.203268 0.937263 0.074552 0.091334
H91   H     H_    0.437184 0.703396 0.574630 0.086163
H92   H     H_    0.530037 0.327448 0.375404 0.103754
H93   H     H_    0.672341 0.530104 0.624927 0.100171
H94   H     H_    0.296698 0.437093 0.425302 0.086676
H95   H     H_    0.562605 0.296635 0.574450 0.097304
H96   H     H_    0.055256 0.802650 0.782119 0.112930
H97   H     H_    0.470026 0.672112 0.374746 0.095242
H98   H     H_    0.327800 0.469582 0.625528 0.099130
H99   H     H_    0.703275 0.562679 0.425331 0.092564
H100  H     H_    0.437340 0.296627 0.425554 0.097113
H101  H     H_    0.530129 0.672234 0.625216 0.094622
H102  H     H_    0.672227 0.469561 0.374488 0.098887
H103  H     H_    0.296720 0.562720 0.574671 0.091617
H104  H     H_    0.562853 0.703407 0.425381 0.086772
H105  H     H_    0.469975 0.327441 0.624604 0.103485
H106  H     H_    0.327719 0.530114 0.374979 0.096656
H107  H     H_    0.727668 0.128987 0.107830 0.111062
H108  H     H_    0.703306 0.437017 0.574735 0.091515
H109  H     H_    0.587279 0.889222 0.776591 0.145422
H110  H     H_    0.668973 0.905324 0.794107 0.128944
H111  H     H_    0.607675 0.948721 0.829446 0.180750
H112  H     H_    0.082393 0.318772 0.206672 0.135870
H113  H     H_    0.073577 0.377031 0.265909 0.143685
H114  H     H_    0.006789 0.346960 0.227391 0.169695
H115  H     H_    0.917835 0.317777 0.793364 0.128292
H116  H     H_    0.926163 0.376404 0.734399 0.152754
H117  H     H_    0.993244 0.346359 0.772489 0.171823
H118  H     H_    0.227095 0.368929 0.395343 0.110029
H119  H     H_    0.396739 0.831840 0.052365 0.135877
H120  H     H_    0.463831 0.825573 0.102588 0.143622
H121  H     H_    0.437273 0.900382 0.077111 0.178287
H122  H     H_    0.107359 0.381339 0.783151 0.135790
H123  H     H_    0.121830 0.458816 0.814904 0.157512
H124  H     H_    0.059117 0.411759 0.841890 0.165974
H125  H     H_    0.623505 0.927419 0.265414 0.146678
H126  H     H_    0.681924 0.919854 0.206217 0.121823
H127  H     H_    0.653325 0.995140 0.228005 0.183467
H128  H     H_    0.376697 0.927300 0.734710 0.143604
N1    N     N_R   0.940200 0.105310 0.059970 -0.039372
N2    N     N_R   0.059800 0.105310 0.059970 -0.041074
N3    N     N_R   0.105310 0.940200 0.940030 -0.040773
N4    N     N_R   0.894690 0.059800 0.059970 -0.039779
N5    N     N_R   0.059800 0.105310 0.940030 -0.039253
N6    N     N_R   0.940200 0.894690 0.059970 -0.041249
N7    N     N_R   0.894690 0.059800 0.940030 -0.041727
N8    N     N_R   0.105310 0.940200 0.059970 -0.038701
N9    N     N_R   0.440200 0.605310 0.559970 -0.038759
N10   N     N_R   0.559800 0.394690 0.440030 -0.041651
N11   N     N_R   0.605310 0.559800 0.559970 -0.040904
N12   N     N_R   0.059800 0.894690 0.940030 -0.041315
N13   N     N_R   0.394690 0.440200 0.440030 -0.039558
N14   N     N_R   0.559800 0.394690 0.559970 -0.040159
N15   N     N_R   0.440200 0.605310 0.440030 -0.041148
N16   N     N_R   0.394690 0.440200 0.559970 -0.041929
N17   N     N_R   0.605310 0.559800 0.440030 -0.038896
N18   N     N_R   0.440200 0.394690 0.440030 -0.040168
N19   N     N_R   0.559800 0.605310 0.559970 -0.041180
N20   N     N_R   0.605310 0.440200 0.440030 -0.041700
N21   N     N_R   0.394690 0.559800 0.559970 -0.038899
N22   N     N_R   0.559800 0.605310 0.440030 -0.038814
N23   N     N_R   0.105310 0.059800 0.059970 -0.042073
N24   N     N_R   0.440200 0.394690 0.559970 -0.041677
N25   N     N_R   0.394690 0.559800 0.440030 -0.040416
N26   N     N_R   0.605310 0.440200 0.559970 -0.039973
N27   N     N_R   0.894690 0.940200 0.940030 -0.037832
N28   N     N_R   0.059800 0.894690 0.059970 -0.038711
N29   N     N_R   0.940200 0.105310 0.940030 -0.040927
N30   N     N_R   0.894690 0.940200 0.059970 -0.040503
N31   N     N_R   0.105310 0.059800 0.940030 -0.039735
N32   N     N_R   0.940200 0.894690 0.940030 -0.038744
Ni1   Ni    Ni4+2 0.000000 0.104370 0.000000 0.216414
Ni2   Ni    Ni4+2 0.000000 0.895630 0.000000 0.212772
Ni3   Ni    Ni4+2 0.104370 0.000000 0.000000 0.212971
Ni4   Ni    Ni4+2 0.895630 0.000000 0.000000 0.213214
Ni5   Ni    Ni4+2 0.500000 0.604370 0.500000 0.210456
Ni6   Ni    Ni4+2 0.500000 0.395630 0.500000 0.218018
Ni7   Ni    Ni4+2 0.604370 0.500000 0.500000 0.214491
Ni8   Ni    Ni4+2 0.395630 0.500000 0.500000 0.212490
O1    O     O_3   0.617793 0.859117 0.860678 -0.617505
O2    O     O_3   0.788187 0.546691 0.785551 -0.620798
O3    O     O_3   0.214353 0.544418 0.211453 -0.609686
O4    O     O_3   0.639390 0.118391 0.642387 -0.616009
O5    O     O_3   0.882021 0.640868 0.359941 -0.619145
O6    O     O_3   0.452269 0.208781 0.782883 -0.610201
O7    O     O_3   0.547705 0.208827 0.216916 -0.609673
O8    O     O_3   0.117830 0.641153 0.639853 -0.616955
O9    O     O_3   0.045607 0.286448 0.287985 -0.611640
O10   O     O_3   0.954386 0.286069 0.711731 -0.609341
O11   O     O_3   0.381643 0.859632 0.140917 -0.619725
O12   O     O_3   0.145971 0.384112 0.869846 -0.618805
O13   O     O_3   0.713865 0.955293 0.288123 -0.610717
O14   O     O_3   0.286335 0.955242 0.712061 -0.610098
O15   O     O_3   0.854089 0.384099 0.130112 -0.620946
O16   O     O_3   0.360067 0.118128 0.358211 -0.612405

loop_
_geom_bond_atom_site_label_1
_geom_bond_atom_site_label_2
_ccdc_geom_bond_type
C23   C58   S    
C92   H124  S    
C93   H125  S    
N14   Ni6   S    
C50   H36   S    
C87   O1    S    
C119  H108  S    
C123  C176  A    
C91   H121  S    
C34   C155  A    
N14   N26   A    
C100  H22   S    
C149  N29   A    
C13   C18   A    
C116  N23   A    
C94   H4    S    
C112  H101  S    
N6    N30   A    
C78   C129  A    
C147  C164  A    
C102  O6    S    
C42   H107  S    
C79   H91   S    
C191  O9    S    
C117  H105  S    
C16   O8    S    
C27   C90   A    
C14   O6    S    
C10   C131  A    
C36   C53   A    
C102  H25   S    
C57   H89   S    
C38   C55   A    
C107  N14   A    
C128  C180  A    
C48   C65   A    
C104  H31   S    
N3    Ni3   S    
C25   C171  A    
C114  H103  S    
C37   H52   S    
C3    O11   S    
C41   C162  A    
C98   H16   S    
C139  H57   S    
C10   C140  A    
C3    C123  A    
N23   Ni3   S    
C109  H98   S    
C26   C69   S    
C67   C85   A    
C40   C58   A    
C32   C109  A    
C24   N4    A    
C165  C183  A    
C166  C184  A    
C169  C187  A    
N2    N23   A    
C21   C55   S    
C137  H56   S    
C90   N10   A    
C9    C130  A    
C76   H45   S    
C26   C114  A    
C48   H34   S    
C131  C184  A    
C38   C158  A    
C39   C56   A    
C95   H5    S    
C84   C134  A    
C47   H24   S    
C101  H93   S    
C149  H79   S    
C73   H42   S    
N21   Ni8   S    
C141  C157  A    
C40   H85   S    
C93   H127  S    
N25   Ni8   S    
C77   H46   S    
C141  H59   S    
C94   H128  S    
C97   H12   S    
C42   C60   A    
C53   C71   A    
C112  N19   A    
C43   C61   A    
C138  H78   S    
C176  C184  A    
C2    C19   A    
C29   C111  A    
C96   H10   S    
C147  H66   S    
N1    Ni1   S    
C103  H29   S    
N11   N19   A    
C10   O3    S    
C6    C153  A    
C178  C186  A    
C8    C129  A    
C148  C167  A    
C71   H39   S    
N13   Ni8   S    
C51   C69   A    
C9    O2    S    
C98   O3    S    
C167  C185  A    
C110  H99   S    
C88   H114  S    
C86   H55   S    
C30   C107  A    
C87   H111  S    
C88   H112  S    
C32   C117  A    
C142  C161  A    
C70   H38   S    
N28   Ni2   S    
C22   C54   S    
C99   H19   S    
C82   H50   S    
C108  N15   A    
C97   O2    S    
N2    Ni1   S    
C62   C80   A    
C130  C183  A    
C81   C131  A    
C150  C166  A    
C8    O16   S    
C37   C157  A    
C89   O10   S    
C164  C181  A    
C140  C158  A    
N27   N32   A    
C4    O12   S    
C115  N22   A    
C70   C120  A    
C73   C123  A    
C145  H64   S    
C97   H14   S    
C50   C67   A    
N17   N22   A    
C103  H28   S    
C43   C164  A    
N9    Ni5   S    
C91   O11   S    
C68   H90   S    
C98   H17   S    
C29   C61   S    
C168  C186  A    
C49   C66   A    
C118  H106  S    
C31   C63   S    
C140  H58   S    
C20   C127  A    
C89   H116  S    
C144  H62   S    
C16   C145  A    
C107  H95   S    
C31   C118  A    
C171  H81   S    
C179  C189  A    
C139  C155  A    
N1    N4    A    
C138  N28   A    
C75   H44   S    
C11   C141  A    
C124  C177  A    
C27   C113  A    
C146  C165  A    
C157  C175  A    
C21   C68   A    
C7    C128  A    
C192  O10   S    
C16   C136  A    
C152  H70   S    
C96   H8    S    
C72   H40   S    
C71   C121  A    
C116  H76   S    
C132  C185  A    
C121  C191  A    
C117  N24   A    
N24   Ni6   S    
C122  C192  A    
N7    N29   A    
C105  H75   S    
C1    C17   A    
C151  C169  A    
C136  C189  A    
C100  O5    S    
N16   N24   A    
C7    C154  A    
C19   C116  A    
C87   H109  S    
C153  C172  A    
C12   O5    S    
C44   C165  A    
C153  H71   S    
C92   H123  S    
C154  H72   S    
C102  H26   S    
C17   C60   S    
C55   C73   A    
C15   O7    S    
C18   C59   S    
C127  H77   S    
C5    C125  A    
C125  C178  A    
C23   C46   A    
N20   Ni7   S    
C33   C110  A    
C95   O15   S    
C74   H43   S    
N22   Ni5   S    
C59   C76   A    
C104  H32   S    
N6    Ni2   S    
C5    O13   S    
C28   C62   S    
C148  C192  A    
C74   C124  A    
C78   H47   S    
C30   C64   S    
C51   H37   S    
C76   C126  A    
C43   H118  S    
C68   N8    A    
C11   C132  A    
C104  H33   S    
C91   H120  S    
C28   C112  A    
C92   O12   S    
C156  C174  A    
C20   C182  A    
C51   C172  A    
C101  N11   A    
N31   Ni3   S    
N12   Ni2   S    
C83   H51   S    
C88   O9    S    
C13   N3    A    
C81   H49   S    
C180  C188  A    
C2    H83   S    
C28   C101  A    
C96   O16   S    
N32   Ni2   S    
C46   H88   S    
C49   H35   S    
C182  H82   S    
C106  N13   A    
C38   H63   S    
C22   C149  A    
C190  O1    S    
C93   H126  S    
N11   Ni7   S    
C21   C138  A    
C97   H11   S    
C152  C168  A    
C100  H21   S    
C33   C115  A    
C56   C74   A    
C94   H3    S    
C142  H60   S    
C6    C126  A    
C6    O14   S    
C111  H100  S    
C8    C137  A    
C75   C125  A    
C171  N31   A    
C120  C190  A    
C175  C185  A    
C182  N32   A    
C121  C174  A    
N18   Ni6   S    
C111  N18   A    
C126  C179  A    
C50   C170  A    
C114  N21   A    
C35   N5    A    
C25   C35   A    
C34   H1    S    
C63   C81   A    
C144  C163  A    
C98   H15   S    
C148  H67   S    
C82   C132  A    
C47   C64   A    
C36   C156  A    
C32   C66   S    
N17   Ni7   S    
C14   C143  A    
C3    C150  A    
C45   H13   S    
N19   Ni5   S    
C39   C159  A    
C106  H94   S    
C134  C187  A    
N10   N20   A    
N5    N31   A    
C109  N16   A    
C1    N1    A    
C143  C159  A    
C172  C189  A    
C34   C52   A    
C26   C79   A    
C177  C187  A    
C118  N25   A    
C127  N27   A    
C40   C161  A    
C49   C169  A    
C9    C139  A    
C154  C170  A    
C93   O13   S    
N13   N18   A    
C95   H6    S    
C12   C142  A    
N15   N25   A    
C110  N17   A    
C151  H69   S    
C7    O15   S    
C173  C183  A    
C30   C119  A    
N15   Ni5   S    
C161  C178  A    
N8    Ni3   S    
C119  N26   A    
C100  H23   S    
C31   C108  A    
C25   C56   S    
C22   C57   A    
C39   H74   S    
C33   C65   S    
C96   H9    S    
C57   N7    A    
C4    C124  A    
C5    C152  A    
C35   H87   S    
N16   Ni8   S    
C89   H115  S    
C103  H30   S    
N8    N28   A    
C65   C83   A    
C15   C135  A    
C145  C162  A    
C122  C175  A    
C158  C176  A    
C13   H84   S    
C150  H68   S    
C2    N2    A    
C160  N30   A    
C41   H96   S    
N10   Ni6   S    
C155  C173  A    
C88   H113  S    
C94   O14   S    
C159  C177  A    
C133  C186  A    
C174  C181  A    
C58   C75   A    
C99   H20   S    
C92   H122  S    
C60   C77   A    
C46   N6    A    
C17   C24   A    
C80   C130  A    
C90   H92   S    
C27   C67   S    
C41   C59   A    
C147  C191  A    
C11   O4    S    
C42   C163  A    
C14   C134  A    
C44   C62   A    
C36   H41   S    
C45   C63   A    
C137  C156  A    
C84   H53   S    
C79   N9    A    
N4    Ni4   S    
C47   C167  A    
C108  H97   S    
C48   C168  A    
N30   Ni4   S    
C61   C78   A    
N9    N21   A    
C23   C160  A    
C1    H73   S    
C99   O4    S    
C64   C82   A    
C162  C179  A    
C77   C128  A    
C102  H27   S    
C85   C135  A    
C37   C54   A    
C86   C136  A    
C12   C133  A    
C143  H61   S    
C85   H54   S    
N27   Ni4   S    
C29   C106  A    
C160  H80   S    
C170  C188  A    
N29   Ni1   S    
C135  C188  A    
C103  O7    S    
C45   C166  A    
C113  H102  S    
C4    C151  A    
C129  C181  A    
C105  N12   A    
C72   C122  A    
C115  H104  S    
C89   H117  S    
N3    N12   A    
C91   H119  S    
N7    Ni4   S    
C44   H2    S    
C80   H48   S    
C18   C105  A    
C20   C52   S    
C19   C53   S    
C24   H86   S    
N26   Ni7   S    
C83   C133  A    
C52   C70   A    
C66   C84   A    
C15   C144  A    
C120  C173  A    
C54   C72   A    
C95   H7    S    
C163  C180  A    
C104  O8    S    
C87   H110  S    
C146  C190  A    
C146  H65   S    
C69   C86   A    
C113  N20   A    
C99   H18   S    
N5    Ni1   S    
