data_mof_unit_53759.cif
_audit_creation_date              2013-03-05T16:48:39-0500
_audit_creation_method            fapswitch 2.2
_symmetry_space_group_name_H-M    P1
_symmetry_Int_Tables_number       1
_space_group_crystal_system       triclinic
_cell_length_a                    27.749798
_cell_length_b                    8.987989
_cell_length_c                    8.088432
_cell_angle_alpha                 89.966197
_cell_angle_beta                  89.999972
_cell_angle_gamma                 89.999944
_cell_volume                      2017.37493891

loop_
_atom_site_label
_atom_site_type_symbol
_atom_site_description
_atom_site_fract_x
_atom_site_fract_y
_atom_site_fract_z
_atom_type_partial_charge
O1    O     O_R   0.500000 0.285350 0.636850 -0.622514
O2    O     O_R   0.500000 0.714650 0.363150 -0.622514
O3    O     O_R   0.500000 0.714650 0.636850 -0.611782
O4    O     O_R   0.500000 0.285350 0.363150 -0.611782
C1    C     C_R   0.499997 0.217828 0.500030 0.919750
C2    C     C_R   0.499997 0.782172 0.499970 0.919750
O5    O     O_R   0.428760 0.500000 0.636860 -0.567806
O6    O     O_R   0.571240 0.500000 0.363140 -0.564059
O7    O     O_R   0.571240 0.500000 0.636860 -0.564059
O8    O     O_R   0.428760 0.500000 0.363140 -0.567806
C3    C     C_R   0.405689 0.500000 0.500000 0.965170
C4    C     C_R   0.594394 0.500000 0.500000 0.954400
Zn1   Zn    Zn3+2 0.500000 0.500000 0.682780 1.102923
Zn2   Zn    Zn3+2 0.500000 0.500000 0.317220 1.102923
C5    C     C_R   0.177379 0.369580 0.528642 0.591584
C6    C     C_R   0.823236 0.630304 0.529145 0.589835
C7    C     C_R   0.177379 0.630422 0.471361 0.591583
C8    C     C_R   0.823236 0.369701 0.470855 0.589835
O9    O     O_2   0.202427 0.243389 0.557126 -0.513123
O10   O     O_2   0.798277 0.756876 0.556289 -0.516574
O11   O     O_2   0.202427 0.756612 0.442877 -0.513122
O12   O     O_2   0.798277 0.243129 0.443711 -0.516575
N1    N     N_R   0.201225 0.500001 0.500001 -0.333822
N2    N     N_R   0.799309 0.500003 0.500000 -0.331648
C9    C     C_R   0.277363 0.547232 0.640428 -0.169516
C10   C     C_R   0.722990 0.479511 0.351932 -0.168944
C11   C     C_R   0.277363 0.452769 0.359573 -0.169517
C12   C     C_R   0.722990 0.520494 0.648068 -0.168944
C13   C     C_R   0.327427 0.547193 0.641227 0.588272
C14   C     C_R   0.672933 0.479322 0.351132 0.588154
C15   C     C_R   0.327427 0.452807 0.358774 0.588271
C16   C     C_R   0.672932 0.520680 0.648867 0.588154
C17   C     C_R   0.252480 0.500000 0.500001 0.107072
C18   C     C_R   0.747958 0.500003 0.500000 0.101926
C19   C     C_R   0.101625 0.500001 0.500001 -0.068197
C20   C     C_R   0.898992 0.500002 0.500000 -0.068640
C21   C     C_R   0.127011 0.366928 0.528712 -0.110847
C22   C     C_R   0.873607 0.632874 0.529404 -0.109539
C23   C     C_R   0.127012 0.633074 0.471291 -0.110846
C24   C     C_R   0.873607 0.367131 0.470596 -0.109539
C25   C     C_R   0.101623 0.235913 0.561659 -0.236659
C26   C     C_R   0.898999 0.763802 0.562658 -0.236546
C27   C     C_R   0.101623 0.764090 0.438343 -0.236660
C28   C     C_R   0.899000 0.236203 0.437342 -0.236546
C29   C     C_R   0.352946 0.500000 0.500000 -0.356545
C30   C     C_R   0.647293 0.500001 0.500000 -0.367150
H1    H     H_    0.257756 0.416001 0.251216 0.190245
H2    H     H_    0.742545 0.536212 0.762652 0.192227
H3    H     H_    0.257756 0.584000 0.748786 0.190245
H4    H     H_    0.742545 0.463792 0.237348 0.192227
H5    H     H_    0.120346 0.134309 0.594478 0.217760
H6    H     H_    0.880281 0.865290 0.595818 0.218245
H7    H     H_    0.120346 0.865694 0.405524 0.217760
H8    H     H_    0.880281 0.134715 0.404182 0.218246
C31   C     C_R   0.975090 0.363820 0.486921 -0.056110
C32   C     C_R   0.025530 0.636226 0.487318 -0.056302
C33   C     C_R   0.975090 0.636184 0.513081 -0.056110
C34   C     C_R   0.025530 0.363778 0.512685 -0.056303
C35   C     C_R   0.949826 0.500002 0.500001 -0.066314
C36   C     C_R   0.050794 0.500002 0.500001 -0.066074
C37   C     C_R   0.949069 0.234795 0.442470 0.742571
C38   C     C_R   0.051551 0.765402 0.443244 0.743162
C39   C     C_R   0.949069 0.765210 0.557531 0.742572
C40   C     C_R   0.051550 0.234601 0.556759 0.743164
C41   C     C_1   0.499995 0.065057 0.500043 -0.135034
C42   C     C_1   0.499995 0.934943 0.499957 -0.135034
N3    N     N_1   0.500000 0.500000 0.073640 0.022488
N4    N     N_1   0.500000 0.500000 0.926360 0.022488
F1    F     F_    0.350662 0.404264 0.221206 -0.597045
F2    F     F_    0.649931 0.542312 0.795076 -0.582347
F3    F     F_    0.350663 0.595737 0.778794 -0.597045
F4    F     F_    0.649931 0.457689 0.204924 -0.582347
F5    F     F_    0.971572 0.112209 0.384099 -0.543928
F6    F     F_    0.029045 0.888050 0.384906 -0.543632
F7    F     F_    0.971572 0.887795 0.615904 -0.543927
F8    F     F_    0.029044 0.111954 0.615098 -0.543632

loop_
_geom_bond_atom_site_label_1
_geom_bond_atom_site_label_2
_geom_bond_distance
_ccdc_geom_bond_type
C31   C35   1.414570 A    
C20   C35   1.410628 A    
C11   C17   1.395598 A    
C5    O9    1.349926 S    
C7    N1    1.365766 A    
C2    C42   1.373104 S    
C8    N2    1.366871 A    
C19   C21   1.407274 A    
C22   C26   1.397871 A    
C10   H4    1.083306 S    
C33   C35   1.414571 A    
C34   C36   1.414551 A    
C32   C33   1.415152 A    
C7    C23   1.397900 A    
C8    C24   1.397964 A    
C5    C21   1.397902 A    
C20   C24   1.406892 A    
O7    Zn1   2.011482 S    
C27   H7    1.083560 S    
N1    C17   1.422310 S    
N2    C18   1.424997 S    
Zn2   N3    1.970180 S    
O3    Zn1   1.964499 S    
C6    O10   1.349979 S    
O3    C2    1.262258 A    
C5    N1    1.365765 A    
C12   C18   1.395907 A    
C6    N2    1.366870 A    
C21   C25   1.397743 A    
O2    C2    1.262458 A    
C10   C18   1.395907 A    
C33   C39   1.412804 A    
C9    C13   1.389295 A    
C11   C15   1.389295 A    
N3    N4    1.191263 T    
C12   C16   1.389104 A    
C4    C30   1.467931 S    
O8    Zn2   2.011484 S    
C16   F2    1.357949 S    
C34   C40   1.412782 A    
C37   F5    1.351826 S    
C7    O11   1.349928 S    
C32   C36   1.414552 A    
C13   C29   1.409540 A    
C19   C36   1.410567 A    
C19   C23   1.407274 A    
C15   F1    1.358228 S    
O5    C3    1.278782 A    
C24   C28   1.397871 A    
O6    C4    1.279943 A    
C40   F8    1.351769 S    
C1    C41   1.373104 S    
C10   C14   1.389104 A    
O1    C1    1.262458 A    
C3    C29   1.463621 S    
O1    Zn1   1.964930 S    
C11   H1    1.083385 S    
C12   H2    1.083306 S    
O6    Zn2   2.011482 S    
C8    O12   1.349978 S    
C16   C30   1.410989 A    
C14   C30   1.410989 A    
O4    C1    1.262258 A    
C14   F4    1.357951 S    
C28   C37   1.390084 A    
C20   C22   1.406892 A    
C39   F7    1.351826 S    
C31   C37   1.412803 A    
C32   C38   1.412782 A    
O4    Zn2   1.964499 S    
O2    Zn2   1.964929 S    
O7    C4    1.279943 A    
C9    H3    1.083386 S    
C9    C17   1.395598 A    
O8    C3    1.278782 A    
C28   H8    1.083564 S    
O5    Zn1   2.011485 S    
C23   C27   1.397742 A    
C41   C42   1.169458 T    
C15   C29   1.409539 A    
C31   C34   1.415153 A    
C26   H6    1.083565 S    
C38   F6    1.351769 S    
C25   C40   1.390106 A    
C26   C39   1.390081 A    
C25   H5    1.083560 S    
C27   C38   1.390109 A    
C6    C22   1.397964 A    
C13   F3    1.358226 S    
Zn1   N4    1.970180 S    
