data_mof_unit_61864.cif
_audit_creation_date              2013-03-05T16:45:41-0500
_audit_creation_method            fapswitch 2.2
_symmetry_space_group_name_H-M    P1
_symmetry_Int_Tables_number       1
_space_group_crystal_system       triclinic
_cell_length_a                    10.699077
_cell_length_b                    15.83899
_cell_length_c                    16.962761
_cell_angle_alpha                 96.80136
_cell_angle_beta                  90.931702
_cell_angle_gamma                 92.74997
_cell_volume                      2850.33922923

loop_
_atom_site_label
_atom_site_type_symbol
_atom_site_description
_atom_site_fract_x
_atom_site_fract_y
_atom_site_fract_z
_atom_type_partial_charge
O1    O     O_R   0.494270 0.420530 0.382500 -0.556688
O2    O     O_R   0.505730 0.579470 0.617500 -0.556685
O3    O     O_R   0.504620 0.563720 0.388950 -0.586218
O4    O     O_R   0.495380 0.436280 0.611050 -0.586220
C1    C     C_R   0.498480 0.489233 0.348366 0.881569
C2    C     C_R   0.501519 0.510767 0.651634 0.881560
O5    O     O_R   0.311680 0.428420 0.496760 -0.601599
O6    O     O_R   0.688320 0.571580 0.503240 -0.601600
O7    O     O_R   0.322030 0.571610 0.503210 -0.570991
O8    O     O_R   0.677970 0.428390 0.496790 -0.570988
C3    C     C_R   0.259584 0.500034 0.498460 0.835398
C4    C     C_R   0.740416 0.499966 0.501540 0.835410
Cu1   Cu    Cu3+1 0.493870 0.415220 0.496180 1.012523
Cu2   Cu    Cu3+1 0.506130 0.584780 0.503820 1.012525
C5    C     C_3   0.041059 0.446800 0.549032 -0.086159
C6    C     C_3   0.958941 0.553200 0.450968 -0.086157
C7    C     C_3   0.952898 0.421016 0.476521 -0.076399
C8    C     C_3   0.047102 0.578984 0.523479 -0.076405
C9    C     C_3   0.876295 0.499435 0.501602 -0.121150
C10   C     C_3   0.123705 0.500566 0.498398 -0.121154
C11   C     C_3   0.964418 0.525115 0.574095 -0.097913
C12   C     C_3   0.035582 0.474886 0.425906 -0.097909
C13   C     C_R   0.495015 0.482113 0.261209 -0.228440
C14   C     C_R   0.504988 0.517886 0.738790 -0.228442
C15   C     C_R   0.405551 0.525398 0.221478 -0.138594
C16   C     C_R   0.594452 0.474598 0.778520 -0.138588
C17   C     C_R   0.399547 0.515694 0.138080 -0.117056
C18   C     C_R   0.600456 0.484299 0.861917 -0.117061
C19   C     C_R   0.486520 0.465791 0.094383 0.190356
C20   C     C_R   0.513486 0.534203 0.905617 0.190358
C21   C     C_R   0.570255 0.418359 0.133840 0.230726
C22   C     C_R   0.429756 0.581641 0.866162 0.230718
C23   C     C_R   0.575611 0.427128 0.217397 0.218107
C24   C     C_R   0.424398 0.572873 0.782605 0.218110
N1    N     N_2   0.493538 0.463717 0.010745 -0.173695
N2    N     N_2   0.506471 0.536276 0.989254 -0.173689
N3    N     N_R   0.515330 0.712130 0.509560 -0.231710
N4    N     N_R   0.484670 0.287870 0.490440 -0.231710
C25   C     C_R   0.442403 0.748393 0.457496 -0.013514
C26   C     C_R   0.557597 0.251607 0.542504 -0.013515
C27   C     C_R   0.451130 0.836869 0.451923 0.173314
C28   C     C_R   0.548870 0.163131 0.548077 0.173314
C29   C     C_R   0.534405 0.890408 0.504002 0.201104
C30   C     C_R   0.465595 0.109592 0.495998 0.201104
C31   C     C_R   0.608730 0.851898 0.557797 0.149559
C32   C     C_R   0.391270 0.148102 0.442203 0.149559
C33   C     C_R   0.596550 0.762523 0.560154 -0.002822
C34   C     C_R   0.403450 0.237477 0.439846 -0.002826
N5    N     N_2   0.549832 0.981218 0.502613 -0.092357
N6    N     N_2   0.450167 0.018782 0.497387 -0.092358
H1    H     H_    0.619649 0.292434 0.582740 0.189258
H2    H     H_    0.380350 0.707566 0.417261 0.189258
C35   C     C_1   0.902635 0.333886 0.451054 0.374200
N7    N     N_1   0.862934 0.265323 0.431037 -0.159205
C36   C     C_1   0.097366 0.666115 0.548947 0.374195
N8    N     N_1   0.137067 0.734677 0.568963 -0.159204
N9    N     N_R   0.697310 0.903586 0.609630 0.166144
O9    O     O_R   0.774657 0.957685 0.581266 -0.234090
O10   O     O_R   0.700004 0.897624 0.685484 -0.247834
N10   N     N_R   0.302690 0.096414 0.390369 0.166145
O11   O     O_R   0.225344 0.042314 0.418734 -0.234091
O12   O     O_R   0.299995 0.102377 0.314516 -0.247838
C37   C     C_1   0.673409 0.724268 0.615077 0.448429
N11   N     N_1   0.735243 0.694468 0.659880 -0.243796
C38   C     C_1   0.326591 0.275732 0.384922 0.448423
N12   N     N_1   0.264757 0.305532 0.340120 -0.243797
C39   C     C_1   0.086846 0.388383 0.602900 0.331586
N13   N     N_1   0.123038 0.342440 0.645294 -0.185292
C40   C     C_1   0.913154 0.611618 0.397101 0.331591
N14   N     N_1   0.876962 0.657561 0.354707 -0.185289
C41   C     C_1   0.929733 0.551182 0.656447 0.327897
N15   N     N_1   0.903804 0.571480 0.721673 -0.186671
C42   C     C_1   0.070269 0.448820 0.343553 0.327897
N16   N     N_1   0.096199 0.428523 0.278328 -0.186673
C43   C     C_1   0.684018 0.422972 0.734070 0.308731
N17   N     N_1   0.755983 0.381922 0.699080 -0.246620
C44   C     C_1   0.315988 0.577029 0.265925 0.308734
N18   N     N_1   0.244024 0.618083 0.300914 -0.246606
C45   C     C_1   0.700657 0.447379 0.902654 0.417187
N19   N     N_1   0.781681 0.418268 0.934541 -0.127803
C46   C     C_1   0.299346 0.552611 0.097341 0.417189
N20   N     N_1   0.218322 0.581720 0.065451 -0.127813
N21   N     N_R   0.652965 0.363429 0.088730 0.166920
O13   O     O_R   0.609532 0.310355 0.029043 -0.264075
O14   O     O_R   0.771721 0.365837 0.107227 -0.244670
N22   N     N_R   0.347057 0.636578 0.911273 0.166915
O15   O     O_R   0.390498 0.689641 0.970966 -0.264079
O16   O     O_R   0.228305 0.634188 0.892772 -0.244657
N23   N     N_R   0.663304 0.380315 0.257688 0.166192
O17   O     O_R   0.663003 0.297794 0.242972 -0.243217
O18   O     O_R   0.744585 0.420177 0.308531 -0.375282
N24   N     N_R   0.336712 0.619692 0.742315 0.166199
O19   O     O_R   0.337046 0.702215 0.757018 -0.243226
O20   O     O_R   0.255413 0.579834 0.691481 -0.375266
N25   N     N_R   0.617570 0.130605 0.610365 0.174223
O21   O     O_R   0.562744 0.077184 0.652968 -0.238896
O22   O     O_R   0.727158 0.164776 0.633317 -0.270675
N26   N     N_R   0.382432 0.869395 0.389634 0.174226
O23   O     O_R   0.437259 0.922818 0.347034 -0.238897
O24   O     O_R   0.272849 0.835220 0.366677 -0.270677

loop_
_geom_bond_atom_site_label_1
_geom_bond_atom_site_label_2
_geom_bond_distance
_ccdc_geom_bond_type
C20   C22   1.406840 A    
C36   N8    1.157041 T    
C17   C19   1.412195 A    
C8    C11   1.540639 S    
C42   N16   1.157039 T    
N1    N2    1.248373 D    
O7    Cu2   1.970466 S    
C46   N20   1.157080 T    
C25   C27   1.414436 A    
C44   N18   1.157328 T    
O5    C3    1.285125 A    
C31   N9    1.438552 S    
C11   C41   1.467832 S    
C15   C44   1.451918 S    
C9    C11   1.540618 S    
C14   C16   1.411350 A    
C33   C37   1.438029 S    
N22   O16   1.301466 A    
N9    O10   1.301213 A    
C21   N21   1.436576 S    
N10   O12   1.301214 A    
O4    Cu1   1.937200 S    
C18   C45   1.449328 S    
N25   O21   1.301258 A    
C13   C23   1.412074 A    
O6    Cu2   1.970454 S    
C21   C23   1.407632 A    
C34   C38   1.438030 S    
N23   O18   1.301015 A    
N4    C34   1.369553 A    
C26   C28   1.414435 A    
C25   H2    1.079014 S    
C22   N22   1.436577 S    
Cu1   Cu2   2.670203 S    
C19   C21   1.406838 A    
C27   C29   1.420495 A    
O2    C2    1.291053 A    
C28   C30   1.420494 A    
C30   C32   1.411333 A    
C31   C33   1.420712 A    
C5    C10   1.539632 S    
C32   C34   1.420711 A    
C3    C10   1.454196 S    
C39   N13   1.156950 T    
C17   C46   1.449326 S    
C45   N19   1.157079 T    
O4    C2    1.291844 A    
N22   O15   1.301272 A    
C29   N5    1.442904 S    
C35   N7    1.157042 T    
C14   C24   1.412067 A    
C28   N25   1.435976 S    
N10   O11   1.301195 A    
C22   C24   1.407633 A    
C43   N17   1.157317 T    
C23   N23   1.436359 S    
O7    C3    1.281433 A    
N21   O13   1.301272 A    
C1    C13   1.469059 S    
O5    Cu1   1.970453 S    
O6    C4    1.285125 A    
C5    C39   1.469763 S    
N24   O20   1.301020 A    
C16   C43   1.451922 S    
C29   C31   1.411332 A    
Cu1   N4    2.005483 S    
O3    Cu2   1.937198 S    
O8    C4    1.281433 A    
C8    C36   1.469831 S    
N21   O14   1.301467 A    
C10   C12   1.540617 S    
N5    N6    1.252674 D    
N26   O24   1.301377 A    
O1    C1    1.291052 A    
N3    C33   1.369552 A    
C38   N12   1.156112 T    
C7    C35   1.469830 S    
C30   N6    1.442904 S    
C5    C7    1.541324 S    
C6    C12   1.541366 S    
C32   N10   1.438553 S    
C6    C40   1.469762 S    
O3    C1    1.291846 A    
O8    Cu1   1.970467 S    
N25   O22   1.301386 A    
C2    C14   1.469056 S    
C15   C17   1.404844 A    
C26   H1    1.079015 S    
C19   N1    1.418506 S    
C16   C18   1.404843 A    
C7    C12   1.540638 S    
C20   N2    1.418506 S    
C18   C20   1.412197 A    
C41   N15   1.157040 T    
N3    C25   1.363596 A    
Cu2   N3    2.005483 S    
N4    C26   1.363595 A    
N9    O9    1.301194 A    
C6    C9    1.539633 S    
C4    C9    1.454198 S    
N24   O19   1.301150 A    
C7    C9    1.542501 S    
C8    C10   1.542499 S    
C13   C15   1.411350 A    
C40   N14   1.156951 T    
O2    Cu2   1.940150 S    
C24   N24   1.436351 S    
C37   N11   1.156111 T    
C5    C11   1.541366 S    
O1    Cu1   1.940151 S    
C6    C8    1.541324 S    
N26   O23   1.301256 A    
C27   N26   1.435976 S    
C12   C42   1.467833 S    
N23   O17   1.301142 A    
