data_mof_unit_68123.cif
_audit_creation_date              2013-03-05T15:58:26-0500
_audit_creation_method            fapswitch 2.2
_symmetry_space_group_name_H-M    P1
_symmetry_Int_Tables_number       1
_space_group_crystal_system       orthorhombic
_cell_length_a                    7.186596
_cell_length_b                    14.388305
_cell_length_c                    15.819105
_cell_angle_alpha                 90.0
_cell_angle_beta                  90.0
_cell_angle_gamma                 90.0
_cell_volume                      1635.7418886

loop_
_atom_site_label
_atom_site_type_symbol
_atom_site_description
_atom_site_fract_x
_atom_site_fract_y
_atom_site_fract_z
_atom_type_partial_charge
O1    O     O_R   0.388780 0.834790 0.412340 -0.559658
O2    O     O_R   0.111220 0.165210 0.912340 -0.559658
O3    O     O_R   0.888780 0.665210 0.587660 -0.559658
O4    O     O_R   0.611220 0.334790 0.087660 -0.559658
O5    O     O_R   0.059040 0.845930 0.587040 -0.595636
O6    O     O_R   0.440960 0.154070 0.087040 -0.595636
O7    O     O_R   0.559040 0.654070 0.412960 -0.595636
O8    O     O_R   0.940960 0.345930 0.912960 -0.595636
C1    C     C_R   0.228145 0.868436 0.614999 0.863967
C2    C     C_R   0.271855 0.131564 0.114999 0.863967
C3    C     C_R   0.728145 0.631564 0.385001 0.863967
C4    C     C_R   0.771855 0.368436 0.885001 0.863967
O9    O     O_R   0.059070 0.845930 0.412970 -0.594640
O10   O     O_R   0.440930 0.154070 0.912970 -0.594640
O11   O     O_R   0.559070 0.654070 0.587030 -0.594640
O12   O     O_R   0.940930 0.345930 0.087030 -0.594640
O13   O     O_R   0.888760 0.665210 0.412340 -0.596364
O14   O     O_R   0.611240 0.334790 0.912340 -0.596364
O15   O     O_R   0.388760 0.834790 0.587660 -0.596364
O16   O     O_R   0.111240 0.165210 0.087660 -0.596364
C5    C     C_R   0.227909 0.868265 0.384799 0.849552
C6    C     C_R   0.272091 0.131735 0.884799 0.849552
C7    C     C_R   0.727909 0.631735 0.615201 0.849552
C8    C     C_R   0.772091 0.368265 0.115201 0.849552
O17   O     O_3   0.222280 0.690700 0.500000 -0.283207
O18   O     O_3   0.277720 0.309300 0.000000 -0.283207
O19   O     O_3   0.722280 0.809300 0.500000 -0.283207
O20   O     O_3   0.777720 0.190700 0.000000 -0.283207
V1    V     V_3+5 0.947430 0.761000 0.500000 1.134457
V2    V     V_3+5 0.552570 0.239000 0.000000 1.134457
V3    V     V_3+5 0.447430 0.739000 0.500000 1.134457
V4    V     V_3+5 0.052570 0.261000 0.000000 1.134457
C9    C     C_3   0.850248 0.601602 0.762927 -0.320172
C10   C     C_3   0.649752 0.398398 0.262927 -0.320172
C11   C     C_3   0.350248 0.898398 0.237073 -0.320172
C12   C     C_3   0.149752 0.101602 0.737073 -0.320172
H1    H     H_    0.993005 0.621861 0.742870 0.185297
H2    H     H_    0.506995 0.378139 0.242870 0.185297
H3    H     H_    0.493005 0.878139 0.257129 0.185297
H4    H     H_    0.006995 0.121861 0.757129 0.185298
H5    H     H_    0.780667 0.665820 0.786187 0.124471
H6    H     H_    0.719333 0.334180 0.286187 0.124471
H7    H     H_    0.280666 0.834180 0.213813 0.124471
H8    H     H_    0.219334 0.165820 0.713813 0.124471
C13   C     C_3   0.863958 0.530013 0.836127 -0.379638
C14   C     C_3   0.636042 0.469987 0.336127 -0.379638
C15   C     C_3   0.363958 0.969987 0.163873 -0.379638
C16   C     C_3   0.136042 0.030013 0.663873 -0.379638
H9    H     H_    0.804175 0.560616 0.894678 0.132469
H10   H     H_    0.695825 0.439384 0.394678 0.132469
H11   H     H_    0.304175 0.939384 0.105321 0.132469
H12   H     H_    0.195825 0.060616 0.605321 0.132469
H13   H     H_    0.013123 0.514917 0.849190 0.165004
H14   H     H_    0.486877 0.485083 0.349190 0.165004
H15   H     H_    0.513123 0.985082 0.150810 0.165004
H16   H     H_    0.986877 0.014918 0.650810 0.165004
H17   H     H_    0.996163 0.379592 0.744113 0.180073
H18   H     H_    0.503837 0.620408 0.244113 0.180073
H19   H     H_    0.496163 0.120408 0.255887 0.180073
H20   H     H_    0.003837 0.879592 0.755887 0.180073
C17   C     C_3   0.836702 0.469197 0.657025 0.552223
C18   C     C_3   0.663298 0.530803 0.157025 0.552223
C19   C     C_3   0.336702 0.030803 0.342975 0.552224
C20   C     C_3   0.163298 0.969197 0.842975 0.552224
C21   C     C_3   0.542213 0.535068 0.719695 -0.439159
C22   C     C_3   0.957786 0.464932 0.219695 -0.439159
C23   C     C_3   0.042213 0.964932 0.280305 -0.439159
C24   C     C_3   0.457787 0.035068 0.780305 -0.439159
C25   C     C_3   0.739594 0.560934 0.686758 -0.008380
C26   C     C_3   0.760406 0.439066 0.186758 -0.008380
C27   C     C_3   0.239593 0.939066 0.313242 -0.008380
C28   C     C_3   0.260406 0.060934 0.813242 -0.008380
H21   H     H_    0.457287 0.504941 0.667568 0.183367
H22   H     H_    0.042713 0.495059 0.167568 0.183367
H23   H     H_    0.957288 0.995059 0.332432 0.183367
H24   H     H_    0.542712 0.004941 0.832432 0.183367
H25   H     H_    0.468853 0.598587 0.742239 0.185231
H26   H     H_    0.031147 0.401413 0.242239 0.185231
H27   H     H_    0.968853 0.901414 0.257761 0.185231
H28   H     H_    0.531147 0.098586 0.757761 0.185231
C29   C     C_3   0.759966 0.438823 0.813287 0.078014
C30   C     C_3   0.740034 0.561177 0.313287 0.078014
C31   C     C_3   0.259966 0.061177 0.186713 0.078015
C32   C     C_3   0.240034 0.938823 0.686713 0.078015
C33   C     C_3   0.848454 0.398552 0.731676 -0.464168
C34   C     C_3   0.651545 0.601448 0.231676 -0.464168
C35   C     C_3   0.348455 0.101448 0.268324 -0.464168
C36   C     C_3   0.151545 0.898551 0.768324 -0.464169
C37   C     C_3   0.554008 0.464218 0.792711 -0.350456
C38   C     C_3   0.945992 0.535782 0.292710 -0.350456
C39   C     C_3   0.054008 0.035782 0.207289 -0.350458
C40   C     C_3   0.445992 0.964218 0.707290 -0.350458
H29   H     H_    0.485185 0.493866 0.849647 0.162088
H30   H     H_    0.014815 0.506134 0.349647 0.162088
H31   H     H_    0.985185 0.006134 0.150353 0.162089
H32   H     H_    0.514815 0.993866 0.650353 0.162089
H33   H     H_    0.475301 0.400577 0.774627 0.164000
H34   H     H_    0.024699 0.599423 0.274627 0.164000
H35   H     H_    0.975302 0.099423 0.225373 0.164001
H36   H     H_    0.524698 0.900577 0.725373 0.164001
H37   H     H_    0.745618 0.437505 0.607453 -0.060176
H38   H     H_    0.754382 0.562495 0.107453 -0.060176
H39   H     H_    0.245618 0.062495 0.392547 -0.060176
H40   H     H_    0.254382 0.937505 0.892547 -0.060176
H41   H     H_    0.775673 0.333135 0.713748 0.106138
H42   H     H_    0.724327 0.666865 0.213748 0.106138
H43   H     H_    0.275673 0.166865 0.286252 0.106138
H44   H     H_    0.224327 0.833135 0.786252 0.106138
O21   O     O_3   0.020291 0.488518 0.627963 -0.670022
C41   C     C_3   0.049997 0.456489 0.544387 0.245128
H45   H     H_    0.173160 0.493736 0.518830 0.137322
H46   H     H_    0.931844 0.474369 0.501873 0.051463
C42   C     C_3   0.091657 0.351864 0.542976 -0.346787
H47   H     H_    0.218734 0.337682 0.580940 0.204142
H48   H     H_    0.974331 0.312695 0.571451 0.200687
C43   C     C_3   0.121284 0.316979 0.452843 -1.038783
H49   H     H_    0.995298 0.330110 0.413928 0.267504
H50   H     H_    0.147761 0.240959 0.453905 0.271473
H51   H     H_    0.242692 0.352317 0.423538 0.263172
O22   O     O_3   0.479709 0.511482 0.127963 -0.670022
C44   C     C_3   0.450003 0.543511 0.044387 0.245128
H52   H     H_    0.326840 0.506264 0.018830 0.137322
H53   H     H_    0.568156 0.525631 0.001873 0.051463
C45   C     C_3   0.408343 0.648136 0.042976 -0.346788
H54   H     H_    0.281266 0.662318 0.080940 0.204142
H55   H     H_    0.525669 0.687305 0.071451 0.200687
C46   C     C_3   0.378716 0.683021 0.952843 -1.038783
H56   H     H_    0.504702 0.669889 0.913928 0.267504
H57   H     H_    0.352239 0.759041 0.953905 0.271473
H58   H     H_    0.257308 0.647683 0.923538 0.263172
O23   O     O_3   0.520291 0.011482 0.372037 -0.670022
C47   C     C_3   0.549998 0.043511 0.455613 0.245128
H59   H     H_    0.673161 0.006264 0.481169 0.137323
H60   H     H_    0.431845 0.025631 0.498127 0.051464
C48   C     C_3   0.591657 0.148135 0.457024 -0.346787
H61   H     H_    0.718734 0.162318 0.419059 0.204141
H62   H     H_    0.474331 0.187305 0.428549 0.200687
C49   C     C_3   0.621285 0.183021 0.547157 -1.038784
H63   H     H_    0.495300 0.169889 0.586072 0.267504
H64   H     H_    0.647762 0.259041 0.546094 0.271474
H65   H     H_    0.742694 0.147683 0.576462 0.263173
O24   O     O_3   0.979709 0.988518 0.872037 -0.670022
C50   C     C_3   0.950002 0.956489 0.955613 0.245128
H66   H     H_    0.826839 0.993736 0.981169 0.137323
H67   H     H_    0.068155 0.974369 0.998127 0.051464
C51   C     C_3   0.908342 0.851865 0.957024 -0.346787
H68   H     H_    0.781266 0.837682 0.919059 0.204141
H69   H     H_    0.025669 0.812695 0.928549 0.200687
C52   C     C_3   0.878715 0.816979 0.047157 -1.038784
H70   H     H_    0.004700 0.830111 0.086072 0.267504
H71   H     H_    0.852238 0.740959 0.046094 0.271474
H72   H     H_    0.757306 0.852317 0.076462 0.263173

loop_
_geom_bond_atom_site_label_1
_geom_bond_atom_site_label_2
_geom_bond_distance
_ccdc_geom_bond_type
C24   H28   1.113727 S    
C48   C49   1.526520 S    
C31   C35   1.551404 S    
O1    C5    1.326051 A    
C18   H38   1.118635 S    
O19   V1    1.760990 S    
C9    C13   1.552920 S    
C7    C25   1.525171 S    
O3    C7    1.326051 A    
C10   H6    1.113200 S    
C16   H16   1.113121 S    
O4    V2    2.000048 S    
C11   C15   1.552920 S    
H20   C36   1.113531 S    
C8    C26   1.525171 S    
C48   H61   1.111910 S    
C22   C38   1.542879 S    
O7    C3    1.333198 A    
C18   C34   1.560418 S    
C5    C27   1.525172 S    
O9    V1    2.008081 S    
C42   H47   1.111909 S    
C45   H55   1.109720 S    
C52   H71   1.110353 S    
O4    C8    1.326051 A    
C50   H66   1.110901 S    
C22   H22   1.113716 S    
C50   H67   1.113321 S    
C2    C31   1.523133 S    
O1    V3    2.000049 S    
O13   V1    2.000080 S    
C43   H49   1.111043 S    
C18   C26   1.565415 S    
O2    V4    2.000050 S    
O3    V1    2.000049 S    
C41   H45   1.110900 S    
C44   C45   1.535012 S    
C41   H46   1.113321 S    
C14   C30   1.552609 S    
C1    O15   1.324292 A    
C2    O16   1.324292 A    
C47   H59   1.110901 S    
O2    C6    1.326051 A    
O12   V4    2.008080 S    
C10   C14   1.552920 S    
C15   C31   1.552608 S    
C11   H7    1.113201 S    
O15   V3    2.000078 S    
C10   C26   1.557759 S    
C18   O22   1.424570 S    
C9    C25   1.557759 S    
C42   C43   1.526520 S    
C29   C37   1.558933 S    
O11   C7    1.331975 A    
C17   O21   1.424570 S    
O12   C8    1.331975 A    
C34   H42   1.113520 S    
O10   V2    2.008082 S    
C33   H41   1.113520 S    
H18   C34   1.113531 S    
C6    C28   1.525172 S    
C38   H30   1.112587 S    
C12   C16   1.552920 S    
C51   H69   1.109720 S    
C3    C30   1.523132 S    
C22   H26   1.113727 S    
C21   H25   1.113727 S    
O8    V4    2.008103 S    
H17   C33   1.113531 S    
C12   H4    1.112733 S    
O7    V3    2.008104 S    
C19   H39   1.118634 S    
C21   H21   1.113716 S    
O18   V4    1.760990 S    
C15   H11   1.111922 S    
C20   H40   1.118634 S    
C30   C34   1.551405 S    
C39   H31   1.112586 S    
C9    H1    1.112734 S    
C17   H37   1.118635 S    
C16   C32   1.552608 S    
C37   H33   1.113669 S    
C24   C28   1.556312 S    
C11   H3    1.112733 S    
C46   H57   1.110354 S    
O5    C1    1.333197 A    
C51   C52   1.526520 S    
C13   H9    1.111921 S    
O8    C4    1.333198 A    
C14   H14   1.113122 S    
C23   C39   1.542879 S    
O9    C5    1.331975 A    
C41   C42   1.535011 S    
C44   H52   1.110900 S    
C49   H64   1.110353 S    
C45   C46   1.526519 S    
O14   V2    2.000079 S    
O6    V2    2.008103 S    
C19   C27   1.565414 S    
C19   O23   1.424570 S    
C52   H72   1.111178 S    
C23   H23   1.113716 S    
C50   C51   1.535012 S    
C46   H56   1.111043 S    
O5    V1    2.008102 S    
O22   C44   1.416296 S    
C40   H36   1.113667 S    
C15   H15   1.113121 S    
C51   H68   1.111910 S    
O16   V4    2.000079 S    
C17   C25   1.565415 S    
C48   H62   1.109720 S    
C3    O13   1.324293 A    
C20   C36   1.560418 S    
C19   C35   1.560418 S    
C10   H2    1.112734 S    
O17   V3    1.760991 S    
C13   C29   1.552609 S    
C32   C36   1.551404 S    
C49   H65   1.111178 S    
O6    C2    1.333197 A    
O11   V3    2.008081 S    
C21   C37   1.542879 S    
C24   H24   1.113716 S    
C31   C39   1.558933 S    
C14   H10   1.111921 S    
C30   C38   1.558933 S    
C43   H51   1.111179 S    
C9    H5    1.113200 S    
O10   C6    1.331975 A    
O20   V2    1.760991 S    
C17   C33   1.560418 S    
C46   H58   1.111179 S    
C11   C27   1.557759 S    
C52   H70   1.111043 S    
C22   C26   1.556312 S    
C20   O24   1.424570 S    
C47   C48   1.535012 S    
C21   C25   1.556312 S    
C24   C40   1.542879 S    
C43   H50   1.110354 S    
C4    C29   1.523132 S    
C40   H32   1.112586 S    
C23   C27   1.556312 S    
C20   C28   1.565414 S    
C37   H29   1.112587 S    
H19   C35   1.113531 S    
C44   H53   1.113321 S    
C12   H8    1.113201 S    
C49   H63   1.111043 S    
C1    C32   1.523133 S    
C13   H13   1.113122 S    
C36   H44   1.113519 S    
C12   C28   1.557759 S    
C16   H12   1.111922 S    
C35   H43   1.113519 S    
C47   H60   1.113321 S    
C4    O14   1.324293 A    
O24   C50   1.416296 S    
C32   C40   1.558933 S    
C39   H35   1.113667 S    
O21   C41   1.416296 S    
C38   H34   1.113669 S    
C23   H27   1.113727 S    
C29   C33   1.551405 S    
O23   C47   1.416296 S    
C45   H54   1.111909 S    
C42   H48   1.109721 S    
