data_mof_unit_10293.cif
_audit_creation_date              2012-10-26T20:19:32-0400
_audit_creation_method            fapswitch 2.2
_symmetry_space_group_name_H-M    P1
_symmetry_Int_Tables_number       1
_space_group_crystal_system       triclinic
_cell_length_a                    10.84393
_cell_length_b                    10.858877
_cell_length_c                    9.672234
_cell_angle_alpha                 89.749525
_cell_angle_beta                  89.455524
_cell_angle_gamma                 95.113841
_cell_volume                      1134.33337601

loop_
_atom_site_label
_atom_site_type_symbol
_atom_type_description
_atom_site_fract_x
_atom_site_fract_y
_atom_site_fract_z
_atom_type_partial_charge
C1    C     C_R   0.504792 0.262641 0.500185 0.566027
C2    C     C_R   0.532564 0.062276 0.624895 0.001452
C3    C     C_R   0.510130 0.127718 0.500466 0.040276
C4    C     C_R   0.260514 0.493873 0.501050 0.584176
C5    C     C_R   0.474170 0.060263 0.379720 0.070471
C6    C     C_R   0.465465 0.932201 0.382592 -0.149538
C7    C     C_R   0.476026 0.869092 0.506436 -0.010312
C8    C     C_R   0.689168 0.660572 0.127283 0.175865
C9    C     C_R   0.788500 0.710452 0.045102 -0.105163
C10   C     C_R   0.781368 0.707669 0.904826 -0.199367
C11   C     C_R   0.678062 0.649740 0.845091 -0.074218
C12   C     C_3   0.879882 0.497574 0.498594 0.032387
C13   C     C_R   0.589128 0.573978 0.921266 0.123975
C14   C     C_R   0.591190 0.576196 0.070381 0.159994
C15   C     C_R   0.415504 0.427286 0.075620 0.360127
C16   C     C_R   0.489386 0.736011 0.501205 0.550641
C17   C     C_R   0.416019 0.428110 0.927337 -0.007149
C18   C     C_R   0.740444 0.499686 0.499471 0.575684
C19   C     C_3   0.066309 0.451178 0.644549 -0.290163
C20   C     C_3   0.927030 0.468427 0.646910 -0.317765
C21   C     C_3   0.090265 0.629291 0.470950 0.464996
C22   C     C_3   0.065386 0.401743 0.390799 0.098834
C23   C     C_3   0.946554 0.625687 0.445883 0.447375
C24   C     C_3   0.123403 0.494090 0.502252 0.048820
C25   C     C_3   0.920528 0.394699 0.398681 0.017244
C26   C     C_R   0.594272 0.114221 0.744342 0.105416
C27   C     C_R   0.580770 0.051939 0.871226 -0.075236
C28   C     C_R   0.509366 0.938448 0.881968 0.214432
C29   C     C_R   0.462633 0.882299 0.762623 -0.025268
C30   C     C_R   0.488979 0.936376 0.631484 -0.036382
Cu1   Cu    Cu3+1 0.499990 0.499990 0.640660 0.919757
Cu2   Cu    Cu3+1 0.500010 0.500010 0.359340 1.069813
H1    H     H_    0.111761 0.502691 0.732115 0.147560
H2    H     H_    0.347443 0.369309 0.872185 0.110496
H3    H     H_    0.876530 0.383712 0.690355 0.172881
H4    H     H_    0.909114 0.542774 0.720660 0.112516
H5    H     H_    0.093862 0.437677 0.285783 0.178538
H6    H     H_    0.233690 0.718898 0.375433 0.360692
H7    H     H_    0.957045 0.719312 0.273632 0.373551
H8    H     H_    0.359136 0.084018 0.219339 0.253781
H9    H     H_    0.512399 0.102883 0.179205 0.214711
H10   H     H_    0.658212 0.290062 0.792485 0.264236
H11   H     H_    0.707114 0.242106 0.635017 0.260015
H12   H     H_    0.886639 0.413114 0.292849 0.182793
H13   H     H_    0.542526 0.920468 0.076085 0.302293
H14   H     H_    0.273968 0.304493 0.082936 0.289730
H15   H     H_    0.667987 0.822063 0.223272 0.199299
H16   H     H_    0.748724 0.726954 0.314875 0.295284
H17   H     H_    0.073480 0.692944 0.662104 0.312315
H18   H     H_    0.871907 0.708508 0.604114 0.290642
H19   H     H_    0.186080 0.281624 0.356282 0.368670
H20   H     H_    0.875208 0.210510 0.356729 0.266389
H21   H     H_    0.907471 0.237610 0.524242 0.287328
H22   H     H_    0.627873 0.091602 0.961021 0.105508
H23   H     H_    0.405273 0.796220 0.774666 0.193163
H24   H     H_    0.445665 0.881746 0.288051 0.164961
H25   H     H_    0.080372 0.352191 0.662881 0.180298
H26   H     H_    0.860393 0.773812 0.088195 0.131632
H27   H     H_    0.850596 0.761177 0.842737 0.123103
H28   H     H_    0.671790 0.669504 0.738450 0.196718
N1    N     N_R   0.501200 0.501210 0.147910 -0.200561
N2    N     N_R   0.501250 0.501290 0.852040 -0.282856
N3    N     N_3   0.445961 0.120766 0.253339 -0.559546
N4    N     N_3   0.688159 0.215711 0.736986 -0.635396
N5    N     N_3   0.674700 0.729288 0.248991 -0.541192
N6    N     N_3   0.863497 0.271552 0.438216 -0.642840
O1    O     O_R   0.499990 0.319640 0.618810 -0.525676
O2    O     O_3   0.928501 0.633536 0.302409 -0.711522
O3    O     O_3   0.490761 0.875945 0.005536 -0.710902
O4    O     O_3   0.329009 0.351969 0.148798 -0.674838
O5    O     O_3   0.128186 0.710081 0.580624 -0.685332
O6    O     O_3   0.897103 0.728777 0.507760 -0.694483
O7    O     O_3   0.107238 0.283434 0.408598 -0.722362
O8    O     O_R   0.500000 0.319660 0.381240 -0.426294
O9    O     O_R   0.317680 0.499970 0.618790 -0.508959
O10   O     O_R   0.317700 0.499990 0.381210 -0.454457
O11   O     O_R   0.500000 0.680340 0.618760 -0.539001
O12   O     O_R   0.500010 0.680360 0.381190 -0.470325
O13   O     O_R   0.682300 0.500010 0.618790 -0.557021
O14   O     O_R   0.682320 0.500030 0.381210 -0.470813
O15   O     O_3   0.153929 0.673249 0.349422 -0.661926

loop_
_geom_bond_atom_site_label_1
_geom_bond_atom_site_label_2
_ccdc_geom_bond_type
H7    O2    S    
C28   O3    S    
C27   H22   S    
C19   H25   S    
Cu1   O1    S    
C12   C23   S    
C26   C27   A    
H8    N3    S    
C21   O5    S    
C1    O8    A    
C28   C29   A    
Cu2   N1    S    
C16   O11   A    
Cu2   O8    S    
C5    C6    A    
C4    C24   S    
C5    N3    S    
C9    H26   S    
C26   N4    S    
C4    O9    A    
H18   O6    S    
C20   H3    S    
C13   N2    A    
C19   C20   S    
C18   O13   A    
C22   C25   S    
H16   N5    S    
C9    C10   A    
C8    N5    S    
C7    C30   A    
C13   C14   A    
Cu1   N2    S    
C25   H12   S    
H11   N4    S    
Cu1   O11   S    
C4    O10   A    
H13   O3    S    
C14   N1    A    
C19   H1    S    
C8    C9    A    
C29   H23   S    
C22   H5    S    
C1    C3    S    
C23   O2    S    
C29   C30   A    
C17   N2    A    
Cu2   O14   S    
Cu1   O9    S    
Cu1   Cu2   S    
C12   C20   S    
C15   N1    A    
C2    C26   A    
H21   N6    S    
C7    C16   S    
C21   O15   S    
C21   C23   S    
H6    O15   S    
C22   C24   S    
C17   H2    S    
H9    N3    S    
C11   H28   S    
H10   N4    S    
H20   N6    S    
C15   C17   A    
C15   O4    S    
C8    C14   A    
C23   O6    S    
C25   N6    S    
H19   O7    S    
C6    H24   S    
C3    C5    A    
Cu2   O10   S    
Cu1   O13   S    
C6    C7    A    
C12   C25   S    
C2    C30   A    
C19   C24   S    
C11   C13   A    
C1    O1    A    
C2    C3    A    
C16   O12   A    
H14   O4    S    
C10   C11   A    
Cu2   O12   S    
C20   H4    S    
C18   O14   A    
H17   O5    S    
C21   C24   S    
C12   C18   S    
C27   C28   A    
C22   O7    S    
C10   H27   S    
H15   N5    S    
