data_mof_unit_42933.cif
_audit_creation_date              2012-12-11T15:17:50-0500
_audit_creation_method            fapswitch 2.2
_symmetry_space_group_name_H-M    P1
_symmetry_Int_Tables_number       1
_space_group_crystal_system       triclinic
_cell_length_a                    15.708692
_cell_length_b                    15.711512
_cell_length_c                    34.284105
_cell_angle_alpha                 89.902607
_cell_angle_beta                  90.035462
_cell_angle_gamma                 119.958064
_cell_volume                      7331.01618702

loop_
_atom_site_label
_atom_site_type_symbol
_atom_type_description
_atom_site_fract_x
_atom_site_fract_y
_atom_site_fract_z
_atom_type_partial_charge
C1    C     C_R   0.576933 0.442259 0.554600 0.566668
C2    C     C_R   0.556851 0.132749 0.553826 0.553384
C3    C     C_R   0.865912 0.423347 0.554343 0.558814
C4    C     C_R   0.441858 0.577328 0.054899 0.544833
C5    C     C_R   0.134390 0.557489 0.054498 0.558052
C6    C     C_R   0.422785 0.864878 0.054680 0.568823
C7    C     C_R   0.980990 0.516847 0.711605 0.373959
C8    C     C_R   0.487671 0.461223 0.713163 0.367397
C9    C     C_R   0.509978 0.970691 0.704808 0.322589
C10   C     C_R   0.506806 0.013667 0.208515 0.361695
C11   C     C_R   0.509596 0.499305 0.209577 0.358122
C12   C     C_R   0.995836 0.500936 0.209592 0.366731
C13   C     C_R   0.050817 0.467739 0.844318 0.083904
C14   C     C_R   0.534494 0.579120 0.845058 0.084462
C15   C     C_R   0.396662 0.917617 0.841369 0.082139
C16   C     C_R   0.438844 0.030507 0.349739 0.091006
C17   C     C_R   0.589024 0.568218 0.351381 0.087817
C18   C     C_R   0.977808 0.416400 0.350561 0.090299
C19   C     C_R   0.081124 0.472255 0.882714 -0.146549
C20   C     C_R   0.530024 0.605858 0.883376 -0.141363
C21   C     C_R   0.380913 0.904691 0.881307 -0.147994
C22   C     C_R   0.449447 0.053691 0.389297 -0.137168
C23   C     C_R   0.603234 0.554138 0.390470 -0.134895
C24   C     C_R   0.951725 0.400709 0.389857 -0.138834
C25   C     C_R   0.036424 0.596484 0.897600 -0.041280
C26   C     C_R   0.403663 0.438306 0.898906 -0.041261
C27   C     C_R   0.550473 0.944952 0.891879 -0.039539
C28   C     C_R   0.603452 0.053053 0.391752 -0.041673
C29   C     C_R   0.448508 0.400382 0.392315 -0.043395
C30   C     C_R   0.946229 0.552381 0.392862 -0.037954
C31   C     C_R   0.003842 0.591089 0.858669 -0.058703
C32   C     C_R   0.408240 0.409969 0.860134 -0.054483
C33   C     C_R   0.567919 0.960736 0.851078 -0.053053
C34   C     C_R   0.592734 0.027227 0.351765 -0.047215
C35   C     C_R   0.432922 0.413461 0.352571 -0.046036
C36   C     C_R   0.971363 0.568767 0.352789 -0.049445
C37   C     C_R   0.013987 0.528400 0.831874 0.059807
C38   C     C_R   0.472021 0.481508 0.833100 0.051902
C39   C     C_R   0.489169 0.943368 0.825884 0.058750
C40   C     C_R   0.513283 0.022166 0.330271 0.044897
C41   C     C_R   0.507055 0.494106 0.331473 0.045101
C42   C     C_R   0.982032 0.497687 0.331240 0.048808
C43   C     C_R   0.078891 0.539089 0.909038 -0.019285
C44   C     C_R   0.461854 0.538285 0.909763 -0.023119
C45   C     C_R   0.454403 0.911924 0.906535 -0.019477
C46   C     C_R   0.535470 0.075338 0.409475 -0.023588
C47   C     C_R   0.539419 0.466618 0.409983 -0.022490
C48   C     C_R   0.926474 0.462255 0.410063 -0.026054
C49   C     C_R   0.576927 0.443189 0.445817 0.543868
C50   C     C_R   0.557047 0.133943 0.445781 0.537673
C51   C     C_R   0.866174 0.423217 0.445869 0.538632
C52   C     C_R   0.442537 0.577325 0.945728 0.544945
C53   C     C_R   0.135162 0.557701 0.945564 0.544092
C54   C     C_R   0.422079 0.864234 0.945181 0.539471
C55   C     C_R   0.927040 0.463138 0.590089 -0.020046
C56   C     C_R   0.538673 0.462824 0.591023 -0.005442
C57   C     C_R   0.531314 0.062723 0.587077 -0.032771
C58   C     C_R   0.462925 0.928886 0.089706 -0.001532
C59   C     C_R   0.465897 0.537611 0.090199 -0.032597
C60   C     C_R   0.070029 0.533057 0.089578 -0.019004
C61   C     C_R   0.956204 0.405647 0.612067 -0.048881
C62   C     C_R   0.596937 0.549404 0.612932 -0.015063
C63   C     C_R   0.438647 0.021428 0.606020 -0.016128
C64   C     C_R   0.417094 0.980388 0.104722 -0.027942
C65   C     C_R   0.563861 0.583637 0.104787 -0.022786
C66   C     C_R   0.025614 0.437571 0.106424 -0.030605
C67   C     C_R   0.979649 0.427492 0.651894 0.068739
C68   C     C_R   0.577744 0.550545 0.652994 0.052835
C69   C     C_R   0.429042 0.984041 0.644190 0.063090
C70   C     C_R   0.438022 0.017708 0.143107 0.058056
C71   C     C_R   0.581236 0.565252 0.143535 0.056372
C72   C     C_R   0.992596 0.423824 0.145421 0.057502
C73   C     C_R   0.976604 0.507379 0.668905 0.053268
C74   C     C_R   0.498756 0.467154 0.670574 0.054661
C75   C     C_R   0.510474 0.985858 0.662536 0.023304
C76   C     C_R   0.504940 0.003776 0.166004 0.059797
C77   C     C_R   0.501042 0.499691 0.167000 0.050487
C78   C     C_R   0.003561 0.505234 0.166961 0.058769
C79   C     C_R   0.966009 0.574873 0.645173 0.076750
C80   C     C_R   0.430839 0.389300 0.647352 0.085602
C81   C     C_R   0.595141 0.008723 0.640738 0.093321
C82   C     C_R   0.560996 0.966519 0.149190 0.081647
C83   C     C_R   0.407723 0.442289 0.150465 0.119937
C84   C     C_R   0.030971 0.594862 0.148284 0.090515
C85   C     C_R   0.945303 0.554706 0.605202 0.121772
C86   C     C_R   0.449528 0.388208 0.607240 0.074451
C87   C     C_R   0.603640 0.042771 0.602170 0.121880
C88   C     C_R   0.540931 0.929896 0.110885 0.070553
C89   C     C_R   0.389765 0.460157 0.112209 0.066451
C90   C     C_R   0.061949 0.608515 0.108967 0.079931
C91   C     C_R   0.993021 0.528588 0.790264 0.376369
C92   C     C_R   0.471899 0.458818 0.791694 0.357162
C93   C     C_R   0.500951 0.951237 0.783274 0.366635
C94   C     C_R   0.511448 0.015894 0.287349 0.344883
C95   C     C_R   0.504282 0.495870 0.288458 0.345673
C96   C     C_R   0.990788 0.503859 0.288385 0.353662
Cr1   Cr    Cr6+3 0.522350 0.263930 0.500020 1.045664
Cr2   Cr    Cr6+3 0.736070 0.258420 0.500020 1.045817
Cr3   Cr    Cr6+3 0.741580 0.477650 0.500020 1.053760
Cr4   Cr    Cr6+3 0.263930 0.522350 0.000020 1.027167
Cr5   Cr    Cr6+3 0.258420 0.736070 0.000020 1.053950
Cr6   Cr    Cr6+3 0.477650 0.741580 0.000020 1.058528
H1    H     H_    0.113384 0.427938 0.891007 0.127715
H2    H     H_    0.575349 0.681871 0.891777 0.124281
H3    H     H_    0.307584 0.880811 0.892055 0.128441
H4    H     H_    0.392764 0.061849 0.403644 0.116292
H5    H     H_    0.668653 0.609469 0.404940 0.124500
H6    H     H_    0.944773 0.336030 0.403980 0.115623
N1    N     N_R   0.926854 0.443882 0.772655 -0.181087
N2    N     N_R   0.555906 0.473058 0.774701 -0.184306
N3    N     N_R   0.570379 0.035727 0.766479 -0.208806
N4    N     N_R   0.426312 0.957770 0.268101 -0.191851
N5    N     N_R   0.531829 0.580705 0.268775 -0.204418
N6    N     N_R   0.056395 0.485941 0.269761 -0.199292
N7    N     N_R   0.920542 0.438332 0.733989 -0.181811
N8    N     N_R   0.563303 0.473349 0.736081 -0.230456
N9    N     N_R   0.574699 0.045222 0.727862 -0.220607
N10   N     N_R   0.424124 0.956435 0.229344 -0.212797
N11   N     N_R   0.534022 0.582276 0.229992 -0.222553
N12   N     N_R   0.059059 0.484803 0.231005 -0.218909
N13   N     N_R   0.046720 0.601826 0.729216 -0.233848
N14   N     N_R   0.402906 0.445086 0.730126 -0.184392
N15   N     N_R   0.441503 0.885688 0.721574 -0.230975
N16   N     N_R   0.592099 0.071605 0.227642 -0.191436
N17   N     N_R   0.481997 0.414448 0.229159 -0.191970
N18   N     N_R   0.930385 0.519081 0.228098 -0.194606
N19   N     N_R   0.053053 0.607339 0.767921 -0.230854
N20   N     N_R   0.395536 0.444821 0.768790 -0.240212
N21   N     N_R   0.437099 0.876195 0.760182 -0.189321
N22   N     N_R   0.594102 0.073299 0.266420 -0.223484
N23   N     N_R   0.480317 0.413058 0.267933 -0.222155
N24   N     N_R   0.927422 0.519619 0.266848 -0.229262
O1    O     O_R   0.498680 0.159540 0.541860 -0.509965
O2    O     O_R   0.840460 0.339140 0.541860 -0.496729
O3    O     O_R   0.660860 0.501320 0.541860 -0.506987
O4    O     O_R   0.159540 0.498680 0.041860 -0.520220
O5    O     O_R   0.339140 0.840460 0.041860 -0.498550
O6    O     O_R   0.501320 0.660860 0.041860 -0.490102
O7    O     O_R   0.532760 0.358060 0.540030 -0.457479
O8    O     O_R   0.641940 0.174700 0.540030 -0.461898
O9    O     O_R   0.825300 0.467240 0.540030 -0.465008
O10   O     O_R   0.358060 0.532760 0.040030 -0.509723
O11   O     O_R   0.174700 0.641940 0.040030 -0.458729
O12   O     O_R   0.467240 0.825300 0.040030 -0.457245
O13   O     O_R   0.498590 0.161190 0.456930 -0.535482
O14   O     O_R   0.838810 0.337400 0.456930 -0.534527
O15   O     O_R   0.662600 0.501410 0.456930 -0.522472
O16   O     O_R   0.161190 0.498590 0.956930 -0.522069
O17   O     O_R   0.337400 0.838810 0.956930 -0.524539
O18   O     O_R   0.501410 0.662600 0.956930 -0.520925
O19   O     O_R   0.532680 0.359580 0.461300 -0.490298
O20   O     O_R   0.640420 0.173100 0.461300 -0.491962
O21   O     O_R   0.826900 0.467320 0.461300 -0.485384
O22   O     O_R   0.359580 0.532680 0.961300 -0.484339
O23   O     O_R   0.173100 0.640420 0.961300 -0.487299
O24   O     O_R   0.467320 0.826900 0.961300 -0.484706
O25   O     O_3   0.666667 0.333333 0.499990 -0.253687
O26   O     O_3   0.333333 0.666667 0.999990 -0.253144
C97   C     C_R   0.973577 0.331236 0.592686 0.056111
C98   C     C_R   0.049719 0.362300 0.565209 -0.083021
C99   C     C_R   0.071007 0.294496 0.548024 -0.115657
C100  C     C_R   0.016254 0.195119 0.557942 -0.112795
C101  C     C_R   0.940003 0.163458 0.585081 -0.106623
C102  C     C_R   0.918051 0.231040 0.602260 -0.060998
H7    H     H_    0.093583 0.439316 0.557597 0.095815
H8    H     H_    0.130777 0.319361 0.527394 0.100817
H9    H     H_    0.033212 0.142763 0.544753 0.093372
H10   H     H_    0.898475 0.086552 0.592952 0.107890
H11   H     H_    0.858346 0.205465 0.623042 0.134881
C103  C     C_R   0.673399 0.641003 0.593923 0.093787
C104  C     C_R   0.646843 0.682789 0.563359 -0.070769
C105  C     C_R   0.716758 0.771401 0.546447 -0.110029
C106  C     C_R   0.813690 0.819121 0.559815 -0.112805
C107  C     C_R   0.840855 0.778087 0.590156 -0.105696
C108  C     C_R   0.771236 0.689066 0.607073 -0.025110
H12   H     H_    0.571683 0.647346 0.553012 0.094386
H13   H     H_    0.695306 0.803470 0.523293 0.093963
H14   H     H_    0.867580 0.888075 0.546803 0.090966
H15   H     H_    0.915809 0.815620 0.600681 0.110271
H16   H     H_    0.793292 0.657941 0.630508 0.149989
C109  C     C_R   0.350603 0.011876 0.585445 0.094566
C110  C     C_R   0.323827 0.965751 0.548770 -0.065196
C111  C     C_R   0.242748 0.958236 0.528780 -0.111646
C112  C     C_R   0.186448 0.994882 0.545466 -0.107799
C113  C     C_R   0.211522 0.039612 0.582097 -0.121537
C114  C     C_R   0.293245 0.048251 0.602015 -0.061202
H17   H     H_    0.366505 0.936636 0.535489 0.088758
H18   H     H_    0.223814 0.924232 0.500289 0.094223
H19   H     H_    0.123531 0.988754 0.529995 0.090719
H20   H     H_    0.168133 0.068401 0.594936 0.101795
H21   H     H_    0.312602 0.084646 0.630052 0.116862
C115  C     C_R   0.346709 0.995230 0.080640 0.076464
C116  C     C_R   0.248655 0.956242 0.092652 -0.038021
C117  C     C_R   0.181628 0.966248 0.068979 -0.119048
C118  C     C_R   0.211950 0.015234 0.033231 -0.110387
C119  C     C_R   0.309478 0.054865 0.021184 -0.107716
C120  C     C_R   0.376850 0.045371 0.044826 -0.082495
H22   H     H_    0.223994 0.917006 0.120053 0.132659
H23   H     H_    0.105972 0.935324 0.078202 0.092949
H24   H     H_    0.159759 0.022090 0.014795 0.092234
H25   H     H_    0.332759 0.092497 0.993425 0.106420
H26   H     H_    0.452062 0.075725 0.035032 0.086202
C121  C     C_R   0.648593 0.650642 0.079639 0.076022
C122  C     C_R   0.712236 0.748581 0.090759 -0.054458
C123  C     C_R   0.787227 0.812814 0.065697 -0.119667
C124  C     C_R   0.799607 0.779816 0.029478 -0.110659
C125  C     C_R   0.737912 0.682194 0.018445 -0.106922
C126  C     C_R   0.663033 0.617596 0.043458 -0.077977
H27   H     H_    0.702794 0.775616 0.118502 0.125708
H28   H     H_    0.835162 0.888467 0.074197 0.095270
H29   H     H_    0.856773 0.830004 0.009911 0.093484
H30   H     H_    0.747631 0.656758 0.990372 0.104638
H31   H     H_    0.614955 0.542412 0.034338 0.085158
C127  C     C_R   0.011267 0.351198 0.083260 0.070272
C128  C     C_R   0.050590 0.292818 0.095993 -0.055830
C129  C     C_R   0.039148 0.213720 0.073419 -0.119614
C130  C     C_R   0.988387 0.192182 0.038038 -0.116390
C131  C     C_R   0.948806 0.249563 0.025190 -0.108064
C132  C     C_R   0.959518 0.328339 0.047772 -0.073690
H32   H     H_    0.091083 0.309292 0.123128 0.150035
H33   H     H_    0.070203 0.169493 0.083238 0.106878
H34   H     H_    0.980123 0.131308 0.020502 0.089118
H35   H     H_    0.910189 0.233311 0.997637 0.100652
H36   H     H_    0.928624 0.372339 0.037419 0.086023
N25   N     N_3   0.940767 0.625391 0.579677 -0.578368
H37   H     H_    0.990724 0.639862 0.557004 0.208220
H38   H     H_    0.966012 0.692859 0.593482 0.250352
N26   N     N_3   0.379261 0.310548 0.582932 -0.601985
H39   H     H_    0.369977 0.244047 0.593297 0.238046
H40   H     H_    0.312169 0.309223 0.584521 0.218290
N27   N     N_3   0.685425 0.058357 0.578087 -0.579980
H41   H     H_    0.656509 0.013929 0.553414 0.213877
H42   H     H_    0.728333 0.033487 0.591661 0.250257
N28   N     N_3   0.595703 0.888024 0.094373 -0.592843
H43   H     H_    0.583996 0.827832 0.111325 0.232830
H44   H     H_    0.670444 0.940594 0.094485 0.215547
N29   N     N_3   0.291689 0.401334 0.097577 -0.652510
H45   H     H_    0.259042 0.444868 0.094650 0.269538
H46   H     H_    0.293613 0.370240 0.070892 0.248897
N30   N     N_3   0.088595 0.698968 0.088702 -0.586068
H47   H     H_    0.037344 0.682214 0.066378 0.220526
H48   H     H_    0.083998 0.750691 0.106128 0.209675
N31   N     N_3   0.009175 0.370928 0.675437 -0.591378
H49   H     H_    0.950811 0.298858 0.677360 0.239564
H50   H     H_    0.069067 0.370816 0.662209 0.240303
N32   N     N_3   0.636580 0.638398 0.675158 -0.637534
H51   H     H_    0.590157 0.658210 0.689360 0.244472
H52   H     H_    0.676677 0.624550 0.695998 0.256246
N33   N     N_3   0.336765 0.945929 0.664190 -0.631547
H53   H     H_    0.310751 0.872078 0.670904 0.263897
H54   H     H_    0.347631 0.985224 0.690054 0.253377
N34   N     N_3   0.390435 0.069163 0.158172 -0.624081
H55   H     H_    0.414981 0.096715 0.186122 0.248208
H56   H     H_    0.411743 0.131098 0.140631 0.230688
N35   N     N_3   0.680569 0.613234 0.158263 -0.631320
H57   H     H_    0.684038 0.591304 0.186682 0.247397
H58   H     H_    0.720238 0.589680 0.141336 0.230473
N36   N     N_3   0.947611 0.326716 0.162364 -0.629347
H59   H     H_    0.923638 0.325300 0.190850 0.247835
H60   H     H_    0.883915 0.281902 0.146399 0.232912
N37   N     N_3   0.969947 0.660820 0.661556 -0.655617
H61   H     H_    0.918249 0.639613 0.684018 0.244871
H62   H     H_    0.040219 0.706229 0.672856 0.259630
N38   N     N_3   0.345672 0.309256 0.665155 -0.605193
H63   H     H_    0.282744 0.302367 0.651779 0.231915
H64   H     H_    0.347785 0.244533 0.660830 0.224961
N39   N     N_3   0.673302 0.998425 0.657584 -0.651458
H65   H     H_    0.704725 0.048341 0.680498 0.258317
H66   H     H_    0.644012 0.927110 0.668592 0.242444
N40   N     N_3   0.633593 0.959590 0.172359 -0.602468
H67   H     H_    0.701759 0.998534 0.158503 0.228863
H68   H     H_    0.614520 0.885842 0.174771 0.238814
N41   N     N_3   0.328488 0.370386 0.173902 -0.586005
H69   H     H_    0.299607 0.302096 0.160189 0.250084
H70   H     H_    0.273407 0.389184 0.175381 0.254271
N42   N     N_3   0.032470 0.673007 0.170540 -0.603895
H71   H     H_    0.984030 0.692523 0.157904 0.227364
H72   H     H_    0.103791 0.733362 0.170537 0.245086
N43   N     N_3   0.063847 0.405904 0.817119 -0.588652
H73   H     H_    0.026016 0.333970 0.827706 0.217155
H74   H     H_    0.138563 0.427762 0.816282 0.233742
N44   N     N_3   0.598467 0.652294 0.817412 -0.615399
H75   H     H_    0.643161 0.719388 0.831302 0.203367
H76   H     H_    0.554288 0.664240 0.797905 0.240218
N45   N     N_3   0.316685 0.900381 0.816171 -0.599896
H77   H     H_    0.289390 0.945833 0.824871 0.214101
H78   H     H_    0.260798 0.827595 0.820053 0.235931
N46   N     N_3   0.356245 0.023133 0.328664 -0.625960
H79   H     H_    0.306310 0.027190 0.347656 0.203830
H80   H     H_    0.382481 0.084218 0.310247 0.237644
N47   N     N_3   0.661749 0.654199 0.331143 -0.628925
H81   H     H_    0.714434 0.704100 0.350518 0.213562
H82   H     H_    0.698644 0.631936 0.312040 0.229389
N48   N     N_3   0.992541 0.345678 0.329494 -0.628472
H83   H     H_    0.992828 0.293599 0.348455 0.213521
H84   H     H_    0.932487 0.307586 0.310865 0.232520
C133  C     C_R   0.027888 0.663216 0.925995 0.058963
C134  C     C_R   0.082856 0.765555 0.920882 -0.057181
C135  C     C_R   0.078741 0.828217 0.948770 -0.103532
C136  C     C_R   0.019618 0.789161 0.981822 -0.105589
C137  C     C_R   0.963966 0.687420 0.986900 -0.122144
C138  C     C_R   0.968147 0.624507 0.959162 -0.091504
H85   H     H_    0.129752 0.796595 0.895624 0.086839
H86   H     H_    0.121889 0.907032 0.944890 0.098335
H87   H     H_    0.017138 0.837710 0.003548 0.096620
H88   H     H_    0.918063 0.657271 0.012466 0.098553
H89   H     H_    0.925640 0.545808 0.963630 0.086592
C139  C     C_R   0.337689 0.364227 0.927943 0.058296
C140  C     C_R   0.235138 0.316693 0.923450 -0.055440
C141  C     C_R   0.173491 0.251749 0.952113 -0.103328
C142  C     C_R   0.213718 0.234205 0.985450 -0.110003
C143  C     C_R   0.315603 0.281170 0.990119 -0.124145
C144  C     C_R   0.377518 0.345852 0.961473 -0.091113
H90   H     H_    0.203107 0.331307 0.898161 0.089650
H91   H     H_    0.094531 0.215762 0.948669 0.098042
H92   H     H_    0.166001 0.184606 0.007762 0.100054
H93   H     H_    0.346603 0.267963 0.016070 0.105517
H94   H     H_    0.456364 0.382669 0.965605 0.086275
C145  C     C_R   0.630374 0.958353 0.919043 0.051184
C146  C     C_R   0.677578 0.902919 0.914594 -0.059523
C147  C     C_R   0.748038 0.911365 0.941637 -0.105422
C148  C     C_R   0.771597 0.974754 0.973434 -0.103221
C149  C     C_R   0.725155 0.030211 0.978106 -0.111481
C150  C     C_R   0.655157 0.022499 0.950973 -0.090809
H95   H     H_    0.659147 0.852627 0.890425 0.092008
H96   H     H_    0.783754 0.868125 0.938117 0.099041
H97   H     H_    0.825489 0.980577 0.994537 0.095231
H98   H     H_    0.742759 0.078584 0.002936 0.104714
H99   H     H_    0.619073 0.065239 0.955137 0.087563
C151  C     C_R   0.681136 0.049514 0.414985 0.047715
C152  C     C_R   0.662658 0.960813 0.432171 -0.096999
C153  C     C_R   0.737498 0.955382 0.452092 -0.121336
C154  C     C_R   0.830686 0.038592 0.455379 -0.107434
C155  C     C_R   0.849547 0.127049 0.438189 -0.099087
C156  C     C_R   0.775170 0.132204 0.417716 -0.052754
H100  H     H_    0.590932 0.895696 0.429550 0.102804
H101  H     H_    0.723518 0.886412 0.464567 0.094937
H102  H     H_    0.888433 0.034290 0.470928 0.096983
H103  H     H_    0.921966 0.191169 0.440468 0.099609
H104  H     H_    0.790012 0.199921 0.403749 0.116242
C157  C     C_R   0.367187 0.322500 0.415439 0.046162
C158  C     C_R   0.295984 0.340339 0.432055 -0.091219
C159  C     C_R   0.215876 0.265386 0.451993 -0.114561
C160  C     C_R   0.206967 0.172681 0.455795 -0.103942
C161  C     C_R   0.277481 0.154428 0.439152 -0.099605
C162  C     C_R   0.356835 0.228924 0.418683 -0.055611
H105  H     H_    0.301829 0.411707 0.429042 0.103629
H106  H     H_    0.160239 0.278894 0.464144 0.096161
H107  H     H_    0.145044 0.114845 0.471329 0.094770
H108  H     H_    0.270086 0.082409 0.441861 0.099384
H109  H     H_    0.410472 0.214653 0.405134 0.117402
C163  C     C_R   0.945678 0.630386 0.417214 0.059489
C164  C     C_R   0.012829 0.671845 0.448136 -0.088673
C165  C     C_R   0.010372 0.742094 0.472367 -0.118712
C166  C     C_R   0.941508 0.772077 0.465769 -0.098674
C167  C     C_R   0.874397 0.731156 0.435128 -0.099421
C168  C     C_R   0.875846 0.659938 0.411132 -0.056120
H110  H     H_    0.066367 0.648992 0.453659 0.091880
H111  H     H_    0.061474 0.772845 0.496396 0.096511
H112  H     H_    0.939800 0.826566 0.484520 0.097423
H113  H     H_    0.820671 0.754001 0.430238 0.092794
H114  H     H_    0.821647 0.626567 0.388324 0.094539
C169  C     C_R   0.955560 0.647664 0.846926 0.029245
C170  C     C_R   0.006407 0.734136 0.824812 -0.086088
C171  C     C_R   0.962677 0.790794 0.816454 -0.110124
C172  C     C_R   0.868552 0.762054 0.830471 -0.091225
C173  C     C_R   0.817920 0.676429 0.852734 -0.088950
C174  C     C_R   0.860992 0.619166 0.860828 -0.076792
H115  H     H_    0.080418 0.758693 0.814805 0.121570
H116  H     H_    0.002259 0.857653 0.799559 0.105045
H117  H     H_    0.835265 0.806555 0.824386 0.108946
H118  H     H_    0.745809 0.654878 0.864164 0.130132
H119  H     H_    0.821575 0.553673 0.878551 0.106359
C175  C     C_R   0.348741 0.305401 0.848620 0.031581
C176  C     C_R   0.262493 0.272656 0.826643 -0.079854
C177  C     C_R   0.202998 0.172666 0.818404 -0.100638
C178  C     C_R   0.228753 0.104878 0.832354 -0.099373
C179  C     C_R   0.314277 0.137078 0.854439 -0.103472
C180  C     C_R   0.374282 0.236994 0.862462 -0.074428
H120  H     H_    0.240307 0.324134 0.816688 0.122075
H121  H     H_    0.136288 0.147587 0.801634 0.105871
H122  H     H_    0.182035 0.027405 0.826307 0.097747
H123  H     H_    0.333733 0.084727 0.865748 0.104145
H124  H     H_    0.439655 0.260973 0.880044 0.106389
C181  C     C_R   0.666228 0.989119 0.834681 0.036181
C182  C     C_R   0.677613 0.925308 0.809292 -0.096860
C183  C     C_R   0.770613 0.949993 0.795169 -0.115964
C184  C     C_R   0.852986 0.038000 0.806530 -0.098094
C185  C     C_R   0.842296 0.101762 0.831793 -0.091487
C186  C     C_R   0.749289 0.077917 0.845647 -0.062582
H125  H     H_    0.614617 0.856090 0.800812 0.108453
H126  H     H_    0.778899 0.900479 0.775681 0.115060
H127  H     H_    0.925110 0.056634 0.795874 0.103849
H128  H     H_    0.906145 0.169330 0.840885 0.097710
H129  H     H_    0.742080 0.127870 0.865294 0.110701
C187  C     C_R   0.663905 0.004751 0.332444 0.046892
C188  C     C_R   0.633659 0.908774 0.319878 -0.072720
C189  C     C_R   0.700084 0.887873 0.301073 -0.091008
C190  C     C_R   0.797040 0.962388 0.294879 -0.097470
C191  C     C_R   0.827455 0.058226 0.307078 -0.099339
C192  C     C_R   0.761012 0.079572 0.325571 -0.062853
H130  H     H_    0.558757 0.850441 0.324580 0.121846
H131  H     H_    0.676330 0.814006 0.291172 0.163402
H132  H     H_    0.848409 0.945971 0.280431 0.104334
H133  H     H_    0.902319 0.116081 0.301987 0.103533
H134  H     H_    0.784766 0.154355 0.334200 0.097583
C193  C     C_R   0.339157 0.343525 0.333010 0.046565
C194  C     C_R   0.275689 0.375858 0.319454 -0.073688
C195  C     C_R   0.188592 0.310749 0.300238 -0.091278
C196  C     C_R   0.164040 0.212995 0.294630 -0.098767
C197  C     C_R   0.227153 0.180461 0.307823 -0.099433
C198  C     C_R   0.314753 0.245605 0.326706 -0.062545
H135  H     H_    0.293893 0.451407 0.323672 0.122456
H136  H     H_    0.140330 0.336164 0.289545 0.165324
H137  H     H_    0.096454 0.162653 0.279846 0.105218
H138  H     H_    0.208555 0.104974 0.303165 0.104679
H139  H     H_    0.364118 0.220275 0.336028 0.096429
C199  C     C_R   0.988954 0.660791 0.333560 0.039492
C200  C     C_R   0.084720 0.740954 0.330513 -0.074786
C201  C     C_R   0.101389 0.826834 0.311544 -0.098520
C202  C     C_R   0.022777 0.833405 0.295788 -0.097213
C203  C     C_R   0.927291 0.753620 0.298587 -0.099552
C204  C     C_R   0.910401 0.667311 0.317211 -0.070638
H140  H     H_    0.146203 0.736649 0.342593 0.120284
H141  H     H_    0.175220 0.888130 0.308815 0.152573
H142  H     H_    0.035957 0.900079 0.281206 0.104612
H143  H     H_    0.866584 0.758496 0.286079 0.110737
H144  H     H_    0.836488 0.605128 0.318664 0.109799

loop_
_geom_bond_atom_site_label_1
_geom_bond_atom_site_label_2
_ccdc_geom_bond_type
C105  H13   S    
C5    O4    A    
N35   H58   S    
C6    C58   S    
C36   C42   A    
N47   H81   S    
C113  H20   S    
C7    C73   S    
Cr2   O20   S    
C154  C155  A    
N44   H75   S    
C27   C145  S    
C201  C202  A    
C1    C56   S    
C181  C182  A    
C10   N16   A    
C158  H105  S    
C4    O10   A    
C5    O11   A    
C12   N18   A    
Cr5   O23   S    
C38   C92   S    
C33   C181  S    
C110  C111  A    
C80   C86   A    
C105  C106  A    
C141  C142  A    
C155  H103  S    
C66   C72   A    
C182  H125  S    
C16   C22   A    
C133  C138  A    
C173  H118  S    
C116  C117  A    
C69   N33   S    
C185  H128  S    
C96   N6    A    
N28   H44   S    
N26   H39   S    
C64   C115  S    
C99   C100  A    
C62   C103  S    
C151  C152  A    
C49   O19   A    
C149  C150  A    
C144  H94   S    
C11   N11   A    
Cr5   O5    S    
C124  C125  A    
C17   N47   S    
C68   N32   S    
C137  C138  A    
C31   C37   A    
C111  C112  A    
C111  H18   S    
C191  H133  S    
C14   C38   A    
C56   C86   A    
C166  C167  A    
C65   C121  S    
Cr2   O25   S    
C140  H90   S    
C23   H5    S    
C163  C164  A    
C8    C74   S    
N16   N22   A    
C15   C39   A    
C91   N19   A    
C188  H130  S    
C16   C40   A    
C50   O13   A    
Cr5   O26   S    
C84   N42   S    
C185  C186  A    
C56   C62   A    
C134  C135  A    
C183  C184  A    
N2    N8    A    
C79   C85   A    
C136  C137  A    
C146  H95   S    
C202  H142  S    
Cr3   O15   S    
C160  H107  S    
Cr1   O13   S    
Cr3   O9    S    
C75   C81   A    
C119  C120  A    
C58   C88   A    
C176  C177  A    
C60   C90   A    
C194  H135  S    
C30   C36   A    
C130  C131  A    
C101  H10   S    
C178  H122  S    
N45   H78   S    
C22   H4    S    
C128  H32   S    
C54   O24   A    
N42   H71   S    
C180  H124  S    
C156  H104  S    
C9    N15   A    
C15   N45   S    
C175  C180  A    
N43   H74   S    
C139  C144  A    
C8    N8    A    
C118  C119  A    
C147  C148  A    
C179  H123  S    
C195  C196  A    
C171  C172  A    
N42   H72   S    
C172  H117  S    
C116  H22   S    
N34   H55   S    
C136  H87   S    
C25   C31   A    
C26   C32   A    
C126  H31   S    
C63   C109  S    
C26   C139  S    
C169  C174  A    
C200  C201  A    
C3    O9    A    
Cr1   O1    S    
Cr6   O26   S    
C2    C57   S    
C26   C44   A    
C131  H35   S    
C176  H120  S    
C27   C33   A    
C28   C46   A    
N33   H53   S    
C94   N22   A    
C29   C47   A    
C18   C24   A    
C154  H102  S    
C30   C48   A    
N47   H82   S    
C18   C42   A    
N37   H61   S    
C103  C104  A    
C68   C74   A    
C190  C191  A    
C195  H136  S    
C170  C171  A    
C59   C89   A    
C161  H108  S    
C61   C67   A    
C107  C108  A    
C72   C78   A    
C11   C77   S    
C132  H36   S    
C172  C173  A    
C3    C55   S    
C63   C69   A    
C32   C175  S    
C184  C185  A    
C135  H86   S    
C44   C52   S    
C203  H143  S    
C106  C107  A    
N29   H45   S    
C163  C168  A    
C201  H141  S    
C84   C90   A    
C7    N13   A    
C20   C44   A    
C57   C63   A    
C21   C45   A    
C58   C64   A    
C83   C89   A    
C23   C47   A    
C24   C48   A    
C153  C154  A    
C76   C82   A    
C155  C156  A    
C150  H99   S    
C143  H93   S    
C53   O16   A    
C57   C87   A    
N46   H80   S    
C170  H115  S    
C50   O20   A    
N17   N23   A    
N18   N24   A    
N43   H73   S    
C62   C68   A    
C73   C79   A    
C120  H26   S    
C71   N35   S    
C196  C197  A    
C67   C73   A    
C53   O23   A    
C151  C156  A    
Cr3   O25   S    
C203  C204  A    
C85   N25   S    
C6    O12   A    
Cr6   O24   S    
C71   C77   A    
Cr4   O22   S    
N32   H51   S    
C51   O21   A    
C5    C60   S    
C197  H138  S    
C40   C94   S    
C191  C192  A    
C153  H101  S    
C198  H139  S    
C109  C114  A    
C108  H16   S    
C104  H12   S    
N44   H76   S    
N3    N9    A    
C3    O2    A    
C6    O5    A    
N36   H59   S    
C179  C180  A    
C188  C189  A    
C59   C65   A    
C8    N14   A    
C31   C169  S    
C123  H28   S    
C82   C88   A    
C55   C61   A    
C94   N4    A    
N30   H47   S    
N25   H38   S    
C148  C149  A    
C134  H85   S    
C35   C41   A    
N6    N12   A    
C60   C66   A    
C160  C161  A    
C52   O18   A    
C165  C166  A    
C25   C133  S    
C81   N39   S    
C97   C102  A    
C119  H25   S    
C1    O3    A    
Cr1   O7    S    
Cr4   O4    S    
C199  C200  A    
C70   N34   S    
C80   N38   S    
C142  C143  A    
N26   H40   S    
C164  C165  A    
C109  C110  A    
C139  C140  A    
C72   N36   S    
C202  C203  A    
C42   C96   S    
C11   N17   A    
N25   H37   S    
N13   N19   A    
N48   H83   S    
N31   H49   S    
C86   N26   S    
C114  H21   S    
C129  H33   S    
C39   C93   S    
N5    N11   A    
C43   C53   S    
C101  C102  A    
C122  H27   S    
C169  C170  A    
C24   H6    S    
C192  H134  S    
C1    O7    A    
C141  H91   S    
C27   C45   A    
C117  C118  A    
C18   N48   S    
C28   C34   A    
C74   C80   A    
C95   N23   A    
C25   C43   A    
C93   N21   A    
C34   C187  S    
C19   C43   A    
C103  C108  A    
C190  H132  S    
N46   H79   S    
C2    O1    A    
C13   C19   A    
C125  C126  A    
C89   N29   S    
C162  H109  S    
C187  C188  A    
C186  H129  S    
C67   N31   S    
C177  H121  S    
C51   O14   A    
C184  H127  S    
C123  C124  A    
C138  H89   S    
C14   N44   S    
C55   C85   A    
C135  C136  A    
C167  H113  S    
N45   H77   S    
C14   C20   A    
N4    N10   A    
C97   C98   A    
N39   H65   S    
C143  C144  A    
Cr1   O19   S    
Cr3   O3    S    
N27   H42   S    
C17   C23   A    
C115  C120  A    
C81   C87   A    
Cr6   O18   S    
C22   C46   A    
C79   N37   S    
N28   H43   S    
N34   H56   S    
C100  C101  A    
C121  C126  A    
C130  H34   S    
C46   C50   S    
C145  C150  A    
C30   C163  S    
C158  C159  A    
C189  H131  S    
C187  C192  A    
C157  C162  A    
C88   N28   S    
C182  C183  A    
C196  H137  S    
C146  C147  A    
N39   H66   S    
C159  C160  A    
C113  C114  A    
C41   C95   S    
C137  H88   S    
Cr3   O21   S    
C69   C75   A    
C128  C129  A    
N14   N20   A    
C4    O6    A    
C145  C146  A    
Cr4   O26   S    
C194  C195  A    
N38   H64   S    
C197  C198  A    
N40   H67   S    
Cr4   O10   S    
C21   H3    S    
N48   H84   S    
C104  C105  A    
C66   C127  S    
C9    N9    A    
C133  C134  A    
C173  C174  A    
C152  C153  A    
C92   N2    A    
C47   C49   S    
C140  C141  A    
C112  C113  A    
C199  C204  A    
C33   C39   A    
C34   C40   A    
C106  H14   S    
Cr4   O16   S    
C127  C132  A    
C61   C97   S    
C174  H119  S    
C77   C83   A    
C52   O22   A    
C165  H111  S    
C49   O15   A    
C149  H98   S    
Cr6   O6    S    
C7    N7    A    
N41   H70   S    
C175  C176  A    
C19   H1    S    
C124  H29   S    
C48   C51   S    
C65   C71   A    
N31   H50   S    
C12   C78   S    
C193  C194  A    
C64   C70   A    
C16   N46   S    
C13   C37   A    
C164  H110  S    
C96   N24   A    
C166  H112  S    
C12   N12   A    
C142  H92   S    
N15   N21   A    
C102  H11   S    
C10   C76   S    
C92   N20   A    
C54   O17   A    
N32   H52   S    
N33   H54   S    
C37   C91   S    
C129  C130  A    
C183  H126  S    
N37   H62   S    
C127  C128  A    
N38   H63   S    
Cr2   O14   S    
C98   H7    S    
C181  C186  A    
Cr2   O8    S    
Cr1   O25   S    
N36   H60   S    
C10   N10   A    
C148  H97   S    
Cr6   O12   S    
C28   C151  S    
N30   H48   S    
N41   H69   S    
C193  C198  A    
C122  C123  A    
C178  C179  A    
C171  H116  S    
C93   N3    A    
C45   C54   S    
C32   C38   A    
N29   H46   S    
C70   C76   A    
C125  H30   S    
N35   H57   S    
C177  C178  A    
C13   N43   S    
C118  H24   S    
C152  H100  S    
C168  H114  S    
C112  H19   S    
C99   H8    S    
C204  H144  S    
C20   H2    S    
C29   C35   A    
Cr2   O2    S    
C29   C157  S    
C90   N30   S    
C82   N40   S    
C2    O8    A    
C115  C116  A    
C91   N1    A    
C200  H140  S    
C83   N41   S    
C36   C199  S    
Cr5   O11   S    
C131  C132  A    
C35   C193  S    
C95   N5    A    
C87   N27   S    
C4    C59   S    
Cr5   O17   S    
C167  C168  A    
C147  H96   S    
N40   H68   S    
C110  H17   S    
C98   C99   A    
C17   C41   A    
N1    N7    A    
C100  H9    S    
C117  H23   S    
C78   C84   A    
C15   C21   A    
N27   H41   S    
C157  C158  A    
C189  C190  A    
C9    C75   S    
C121  C122  A    
C161  C162  A    
C159  H106  S    
C107  H15   S    
