data_mof_unit_44838.cif
_audit_creation_date              2013-03-05T16:33:11-0500
_audit_creation_method            fapswitch 2.2
_symmetry_space_group_name_H-M    P1
_symmetry_Int_Tables_number       1
_space_group_crystal_system       triclinic
_cell_length_a                    27.763067
_cell_length_b                    10.865968
_cell_length_c                    9.597283
_cell_angle_alpha                 89.770316
_cell_angle_beta                  87.334523
_cell_angle_gamma                 91.03985
_cell_volume                      2891.59445061

loop_
_atom_site_label
_atom_site_type_symbol
_atom_site_description
_atom_site_fract_x
_atom_site_fract_y
_atom_site_fract_z
_atom_type_partial_charge
O1    O     O_R   0.500000 0.319640 0.618810 -0.545487
O2    O     O_R   0.500010 0.319680 0.381230 -0.597264
C1    C     C_R   0.501990 0.262708 0.499655 0.792899
O3    O     O_R   0.430260 0.500000 0.618780 -0.460252
O4    O     O_R   0.430270 0.500040 0.381190 -0.586676
C2    C     C_R   0.407451 0.497838 0.502278 0.932760
Cu1   Cu    Cu3+1 0.500000 0.499980 0.640670 1.031500
Cu2   Cu    Cu3+1 0.500000 0.500020 0.359330 0.980020
O5    O     O_R   0.499990 0.680320 0.618770 -0.582807
O6    O     O_R   0.500000 0.680360 0.381190 -0.562223
O7    O     O_R   0.569730 0.499960 0.618810 -0.593335
O8    O     O_R   0.569740 0.500000 0.381220 -0.591969
C3    C     C_R   0.501374 0.737687 0.499623 0.876461
C4    C     C_R   0.592559 0.499644 0.497062 0.774326
C5    C     C_R   0.179486 0.446734 0.403137 0.531540
O9    O     O_2   0.206242 0.370361 0.321783 -0.555104
N1    N     N_R   0.201458 0.523497 0.494116 -0.446135
C6    C     C_R   0.175723 0.605834 0.573901 0.531705
C7    C     C_R   0.281849 0.617467 0.467067 -0.211809
C8    C     C_R   0.331772 0.613914 0.474264 0.354362
C9    C     C_R   0.324975 0.393381 0.529820 0.038144
C10   C     C_R   0.274250 0.407031 0.551486 0.135512
C11   C     C_R   0.252916 0.516190 0.506284 0.236309
C12   C     C_R   0.101886 0.530999 0.473547 -0.070015
C13   C     C_R   0.129356 0.445243 0.395583 -0.016560
C14   C     C_R   0.106301 0.358901 0.312236 -0.140295
C15   C     C_R   0.125012 0.615459 0.562488 -0.056622
C16   C     C_R   0.354104 0.501777 0.505793 -0.170410
H1    H     H_    0.126791 0.293234 0.250185 0.185462
C17   C     C_R   0.645749 0.499755 0.489226 -0.057235
C18   C     C_R   0.976702 0.426877 0.397795 0.048517
C19   C     C_R   0.973876 0.633461 0.502294 -0.063194
C20   C     C_R   0.949915 0.527121 0.452505 0.031457
C21   C     C_R   0.951499 0.319779 0.357019 -0.166975
C22   C     C_R   0.901368 0.312756 0.367439 -0.114108
C23   C     C_R   0.874659 0.412979 0.416399 -0.020135
C24   C     C_R   0.898895 0.521097 0.457065 -0.047639
C25   C     C_R   0.872073 0.623000 0.502791 -0.076704
C26   C     C_R   0.821499 0.614527 0.508749 0.550263
N2    N     N_R   0.798669 0.508295 0.470088 -0.471370
C27   C     C_R   0.824050 0.408017 0.425476 0.524003
C28   C     C_R   0.721688 0.480097 0.600817 -0.129710
C29   C     C_R   0.671503 0.479095 0.609060 -0.227961
C30   C     C_R   0.671068 0.521180 0.360988 -0.209571
C31   C     C_R   0.721822 0.525167 0.351349 0.132038
C32   C     C_R   0.746945 0.503335 0.473525 0.328262
O10   O     O_2   0.800337 0.304247 0.389523 -0.534446
C33   C     C_R   0.027763 0.436202 0.388689 0.054054
C34   C     C_R   0.051111 0.531337 0.462185 0.072422
C35   C     C_R   0.023778 0.625100 0.526608 0.036559
C36   C     C_R   0.056325 0.352679 0.310924 -0.187129
H2    H     H_    0.652920 0.461363 0.709024 0.156608
H3    H     H_    0.741205 0.463421 0.693887 0.142167
H4    H     H_    0.883615 0.228230 0.336550 0.206709
H5    H     H_    0.969815 0.238027 0.321829 0.182097
H6    H     H_    0.040861 0.283768 0.244825 0.151512
O11   O     O_2   0.199487 0.675472 0.664906 -0.553525
C37   C     C_R   0.096037 0.701913 0.638622 0.075288
H7    H     H_    0.264685 0.700601 0.434079 0.191343
C38   C     C_R   0.946446 0.741950 0.526198 0.333269
C39   C     C_R   0.896090 0.733119 0.533599 -0.216066
O12   O     O_2   0.795274 0.711838 0.551713 -0.536867
C40   C     C_R   0.046163 0.701838 0.621957 -0.126454
H8    H     H_    0.650807 0.535649 0.269558 0.143822
H9    H     H_    0.875585 0.815006 0.556964 0.216665
H10   H     H_    0.024330 0.761517 0.687078 0.192196
C41   C     C_R   0.519096 0.064237 0.615817 0.120121
C42   C     C_R   0.508181 0.130143 0.496469 -0.111025
C43   C     C_R   0.503555 0.065090 0.371036 -0.215857
H11   H     H_    0.497583 0.112657 0.274140 0.178544
C44   C     C_R   0.502659 0.936590 0.371505 -0.163395
H12   H     H_    0.496424 0.889108 0.274803 0.179287
C45   C     C_R   0.506275 0.871311 0.497389 -0.061773
C46   C     C_R   0.517917 0.937336 0.616585 0.096805
C47   C     C_3   0.497674 0.932437 0.763807 -0.454962
C48   C     C_3   0.500151 0.071915 0.763606 -0.439260
H13   H     H_    0.460235 0.894068 0.772493 0.237498
H14   H     H_    0.522783 0.894195 0.838019 0.188360
H15   H     H_    0.464200 0.113281 0.777409 0.250506
H16   H     H_    0.527611 0.110057 0.833130 0.197739
C49   C     C_R   0.541006 0.528457 0.067478 0.232867
N3    N     N_R   0.500300 0.500930 0.147930 -0.216206
C50   C     C_R   0.461621 0.457981 0.082834 -0.114767
H17   H     H_    0.430774 0.425689 0.145901 0.201491
C51   C     C_R   0.461058 0.455122 0.935962 0.435640
N4    N     N_R   0.500310 0.500890 0.852020 -0.240272
C52   C     C_R   0.541312 0.526134 0.920682 0.179851
C53   C     C_3   0.571684 0.639908 0.907892 -0.472679
C54   C     C_3   0.569625 0.646015 0.066243 -0.483729
H18   H     H_    0.608396 0.621270 0.862648 0.194608
H19   H     H_    0.553057 0.715013 0.856501 0.209565
H20   H     H_    0.605464 0.635498 0.110582 0.179387
H21   H     H_    0.548446 0.724577 0.108355 0.209378
C55   C     C_3   0.345081 0.267998 0.486783 -0.367144
C56   C     C_3   0.342132 0.164785 0.597772 -0.332297
C57   C     C_3   0.384236 0.077758 0.579139 -0.629075
H22   H     H_    0.385400 0.037066 0.473342 0.297361
H23   H     H_    0.418218 0.129023 0.590783 0.234123
H24   H     H_    0.381081 0.003876 0.659354 0.270276
H25   H     H_    0.341452 0.202344 0.704608 0.278988
H26   H     H_    0.309301 0.106928 0.586585 0.224308
H27   H     H_    0.325144 0.235551 0.395636 0.209301
H28   H     H_    0.382956 0.279046 0.445732 0.186401
C58   C     C_3   0.115721 0.801765 0.731729 -0.335076
C59   C     C_3   0.138720 0.907230 0.643248 -0.260604
C60   C     C_3   0.161488 0.004463 0.734493 -0.834497
H29   H     H_    0.133924 0.043351 0.808627 0.258863
H30   H     H_    0.190718 0.963574 0.793770 0.272345
H31   H     H_    0.177063 0.080022 0.667488 0.243598
H32   H     H_    0.166803 0.872426 0.568030 0.243177
H33   H     H_    0.110509 0.951030 0.582226 0.250729
H34   H     H_    0.086190 0.841483 0.798759 0.189764
H35   H     H_    0.140514 0.763836 0.807526 0.238463
S1    S     S_3+6 0.971396 0.894057 0.513675 -0.014473
O13   O     O_2   0.019567 0.895031 0.435383 -0.269929
O14   O     O_2   0.938070 0.975129 0.437003 -0.288328
O15   O     O_3   0.977739 0.952477 0.673932 -0.535934
H36   H     H_    0.944953 0.948324 0.719226 0.345318
C61   C     C_3   0.750344 0.553441 0.215040 -0.383564
C62   C     C_3   0.720325 0.587295 0.090196 -0.404833
C63   C     C_3   0.752682 0.619114 0.961668 -0.778054
H37   H     H_    0.776619 0.699149 0.983198 0.266187
H38   H     H_    0.775111 0.539188 0.930854 0.249500
H39   H     H_    0.730018 0.643294 0.873581 0.251026
H40   H     H_    0.696405 0.508392 0.063941 0.221087
H41   H     H_    0.697929 0.668467 0.116627 0.228270
H42   H     H_    0.775588 0.631654 0.233682 0.213694
H43   H     H_    0.772237 0.471995 0.186320 0.222282
C64   C     C_3   0.243626 0.316608 0.640068 -0.396890
C65   C     C_3   0.253058 0.336197 0.795063 -0.322786
C66   C     C_3   0.228085 0.237689 0.887414 -0.813330
H44   H     H_    0.188537 0.238098 0.874739 0.254165
H45   H     H_    0.242452 0.145722 0.860233 0.257070
H46   H     H_    0.235043 0.256646 0.998374 0.280697
H47   H     H_    0.292201 0.335921 0.812866 0.278326
H48   H     H_    0.239431 0.427826 0.827606 0.246836
H49   H     H_    0.204542 0.330063 0.628643 0.201455
H50   H     H_    0.249246 0.221213 0.606410 0.196867
S2    S     S_3+6 0.407175 0.387023 0.877059 -0.024929
O16   O     O_2   0.417871 0.304597 0.756037 -0.310238
O17   O     O_2   0.382342 0.309431 0.990037 -0.348469
O18   O     O_3   0.369021 0.497824 0.833407 -0.525266
H51   H     H_    0.360662 0.540749 0.921921 0.350432
S3    S     S_3+6 0.365020 0.751392 0.437996 -0.024040
O19   O     O_2   0.394703 0.781308 0.560622 -0.314266
O20   O     O_2   0.397993 0.735568 0.310891 -0.308780
O21   O     O_3   0.327546 0.868138 0.410494 -0.554336
H52   H     H_    0.319774 0.861892 0.311046 0.354304

loop_
_geom_bond_atom_site_label_1
_geom_bond_atom_site_label_2
_geom_bond_distance
_ccdc_geom_bond_type
C59   H32   1.110223 S    
C45   C46   1.400136 A    
C8    S3    1.766538 S    
C38   S1    1.781877 S    
C56   C57   1.521403 S    
C12   C15   1.420898 A    
C52   C53   1.485177 S    
C66   H46   1.110516 S    
S1    O13   1.503058 D    
Cu1   Cu2   2.700097 S    
C31   C32   1.413337 A    
C30   H8    1.076626 S    
N2    C32   1.434881 S    
N1    C11   1.442407 S    
Cu2   N3    2.028480 S    
C23   C24   1.408764 A    
C1    C42   1.454039 S    
C21   C22   1.391420 A    
O3    Cu1   1.957256 S    
C28   H3    1.082391 S    
O4    C2    1.297378 A    
O7    C4    1.303162 A    
C62   H41   1.111714 S    
C29   H2    1.082856 S    
C5    C13   1.396825 A    
Cu1   N4    2.028868 S    
C60   H29   1.110816 S    
C5    O9    1.350429 S    
C57   H24   1.109529 S    
C37   C40   1.401200 A    
Cu1   O5    1.969976 S    
C36   H6    1.079300 S    
C28   C32   1.399772 A    
C43   C44   1.396032 A    
O5    C3    1.298821 A    
C63   H39   1.110556 S    
O21   H52   0.990577 S    
C33   C36   1.409235 A    
C2    C16   1.481282 S    
C64   H50   1.098645 S    
C7    C8    1.392169 A    
C42   C43   1.408274 A    
C57   H23   1.097308 S    
C18   C20   1.418759 A    
C51   S2    1.773926 S    
C25   C39   1.398563 A    
C49   C54   1.491742 S    
C61   H43   1.111080 S    
C31   C61   1.524612 S    
C59   H33   1.112149 S    
C40   H10   1.077416 S    
C21   H5    1.079152 S    
O1    Cu1   1.971603 S    
C9    C10   1.424446 A    
C22   H4    1.083379 S    
C35   C40   1.399688 A    
C17   C30   1.405110 A    
C23   C27   1.403775 A    
C55   C56   1.542110 S    
C4    C17   1.475090 S    
S3    O21   1.682865 S    
C58   C59   1.535341 S    
C49   N3    1.366577 A    
C10   C11   1.411080 A    
O2    Cu2   1.969978 S    
C46   C47   1.496491 S    
C41   C42   1.396506 A    
C12   C13   1.410008 A    
S3    O20   1.503055 D    
C61   C62   1.538189 S    
C26   N2    1.367692 A    
C44   C45   1.407062 A    
C56   H25   1.104562 S    
C8    C16   1.415129 A    
C7    H7    1.081977 S    
C13   C14   1.400569 A    
C51   N4    1.406903 A    
O6    C3    1.300104 A    
C20   C24   1.415453 A    
C38   C39   1.398062 A    
O1    C1    1.301736 A    
C22   C23   1.399153 A    
Cu1   O7    1.937533 S    
C47   C48   1.515864 S    
C24   C25   1.405900 A    
C6    O11   1.345904 S    
C50   H17   1.078008 S    
C53   H19   1.101122 S    
Cu2   O8    1.957250 S    
C57   H22   1.108403 S    
N1    C6    1.369330 A    
C27   O10   1.349502 S    
C18   C21   1.412999 A    
C41   C46   1.378678 A    
C54   H20   1.107830 S    
C47   H13   1.112255 S    
C19   C35   1.420057 A    
C63   H37   1.110797 S    
C49   C52   1.408806 A    
O3    C2    1.310435 A    
N2    C27   1.367720 A    
C50   C51   1.410843 A    
C65   H47   1.107977 S    
C3    C45   1.455824 S    
C55   H28   1.109892 S    
N3    C50   1.344543 A    
C18   C33   1.418005 A    
C10   C64   1.518805 S    
C17   C29   1.401631 A    
C37   C58   1.518560 S    
C28   C29   1.391698 A    
C19   C38   1.428546 A    
C66   H44   1.110407 S    
C30   C31   1.407664 A    
C7    C11   1.390822 A    
C58   H34   1.112800 S    
C64   C65   1.537326 S    
C12   C34   1.418989 A    
C5    N1    1.366426 A    
C26   O12   1.349697 S    
C33   C34   1.417869 A    
N4    C52   1.365726 A    
C9    C16   1.428414 A    
C65   H48   1.112264 S    
C6    C15   1.422920 A    
C48   H16   1.111859 S    
C53   H18   1.111499 S    
S3    O19   1.501131 D    
C66   H45   1.110246 S    
C15   C37   1.428906 A    
O4    Cu2   1.937536 S    
S1    O14   1.503742 D    
S2    O16   1.491740 D    
C59   C60   1.522283 S    
C19   C20   1.418487 A    
C65   C66   1.523237 S    
O8    C4    1.304986 A    
C44   H12   1.083069 S    
C14   C36   1.388574 A    
S2    O17   1.504621 D    
C25   C26   1.403938 A    
C60   H30   1.110673 S    
S2    O18   1.682426 S    
O2    C1    1.295921 A    
C62   H40   1.111849 S    
C54   H21   1.112063 S    
C43   H11   1.083051 S    
C47   H14   1.104640 S    
C63   H38   1.110843 S    
S1    O15   1.681808 S    
C58   H35   1.107817 S    
C39   H9    1.083601 S    
C48   H15   1.104670 S    
C64   H49   1.107914 S    
C53   C54   1.519919 S    
C55   H27   1.111890 S    
C14   H1    1.083506 S    
Cu2   O6    1.971602 S    
C34   C35   1.409125 A    
C9    C55   1.532658 S    
O18   H51   0.990866 S    
C62   C63   1.526557 S    
C41   C48   1.492821 S    
O15   H36   0.990505 S    
C56   H26   1.107426 S    
C60   H31   1.109779 S    
C61   H42   1.112074 S    
