data_mof_unit_19634.cif
_audit_creation_date              2012-12-11T14:41:02-0500
_audit_creation_method            fapswitch 2.2
_symmetry_space_group_name_H-M    P1
_symmetry_Int_Tables_number       1
_space_group_crystal_system       triclinic
_cell_length_a                    6.916715
_cell_length_b                    17.746839
_cell_length_c                    19.184022
_cell_angle_alpha                 89.999987
_cell_angle_beta                  90.0
_cell_angle_gamma                 92.343111
_cell_volume                      2352.86655121

loop_
_atom_site_label
_atom_site_type_symbol
_atom_type_description
_atom_site_fract_x
_atom_site_fract_y
_atom_site_fract_z
_atom_type_partial_charge
O1    O     O_R   0.377350 0.828520 0.186660 -0.537163
O2    O     O_R   0.622650 0.171480 0.813340 -0.537163
O3    O     O_R   0.122650 0.171480 0.686660 -0.537163
O4    O     O_R   0.877350 0.828520 0.313340 -0.537163
O5    O     O_R   0.877350 0.671480 0.313340 -0.535320
O6    O     O_R   0.122650 0.328520 0.686660 -0.535320
O7    O     O_R   0.622650 0.328520 0.813340 -0.535320
O8    O     O_R   0.377350 0.671480 0.186660 -0.535321
O9    O     O_R   0.707090 0.671930 0.178410 -0.539723
O10   O     O_R   0.292910 0.328070 0.821590 -0.539723
O11   O     O_R   0.792910 0.328070 0.678410 -0.539722
O12   O     O_R   0.207090 0.671930 0.321590 -0.539722
O13   O     O_R   0.207090 0.828070 0.321590 -0.537559
O14   O     O_R   0.792910 0.171930 0.678410 -0.537559
O15   O     O_R   0.292910 0.171930 0.821590 -0.537559
O16   O     O_R   0.707090 0.828070 0.178410 -0.537558
C1    C     C_R   0.534365 0.645475 0.162014 0.736497
C2    C     C_R   0.465635 0.354525 0.837986 0.736496
C3    C     C_R   0.965635 0.354525 0.662014 0.736496
C4    C     C_R   0.034365 0.645475 0.337986 0.736496
C5    C     C_R   0.041706 0.854128 0.338697 0.736648
C6    C     C_R   0.958294 0.145872 0.661303 0.736648
C7    C     C_R   0.458294 0.145872 0.838697 0.736648
C8    C     C_R   0.541706 0.854128 0.161303 0.736648
O17   O     O_3   0.543850 0.750000 0.294270 -0.367646
O18   O     O_3   0.456150 0.250000 0.705730 -0.367646
O19   O     O_3   0.956150 0.250000 0.794270 -0.367646
O20   O     O_3   0.043850 0.750000 0.205730 -0.367646
V1    V     V_3+5 0.818700 0.750000 0.241790 1.394740
V2    V     V_3+5 0.181300 0.250000 0.758210 1.394740
V3    V     V_3+5 0.681300 0.250000 0.741790 1.394740
V4    V     V_3+5 0.318700 0.750000 0.258210 1.394740
C9    C     C_R   0.992235 0.415796 0.609078 -0.132586
C10   C     C_R   0.007765 0.584204 0.390922 -0.132586
C11   C     C_R   0.507764 0.584204 0.109078 -0.132586
C12   C     C_R   0.492236 0.415796 0.890922 -0.132586
C13   C     C_R   0.454642 0.085010 0.892807 -0.132190
C14   C     C_R   0.545358 0.914990 0.107192 -0.132190
C15   C     C_R   0.045358 0.914990 0.392807 -0.132190
C16   C     C_R   0.954642 0.085010 0.607192 -0.132190
C17   C     C_R   0.807940 0.476837 0.434115 0.376208
C18   C     C_R   0.192060 0.523162 0.565885 0.376207
C19   C     C_R   0.692062 0.523162 0.934115 0.376208
C20   C     C_R   0.307938 0.476838 0.065884 0.376208
C21   C     C_R   0.715645 0.025183 0.055359 0.374935
C22   C     C_R   0.284355 0.974817 0.944641 0.374936
C23   C     C_R   0.784354 0.974817 0.555359 0.374936
C24   C     C_R   0.215646 0.025183 0.444641 0.374935
C25   C     C_R   0.864171 0.526302 0.379398 0.030829
C26   C     C_R   0.135829 0.473698 0.620602 0.030829
C27   C     C_R   0.635830 0.473698 0.879398 0.030829
C28   C     C_R   0.364169 0.526302 0.120602 0.030829
C29   C     C_R   0.687324 0.974492 0.111718 0.036921
C30   C     C_R   0.312676 0.025508 0.888282 0.036921
C31   C     C_R   0.812675 0.025508 0.611718 0.036922
C32   C     C_R   0.187324 0.974492 0.388282 0.036921
C33   C     C_R   0.104086 0.588187 0.456110 0.067976
C34   C     C_R   0.895914 0.411812 0.543890 0.067976
C35   C     C_R   0.395913 0.411813 0.956110 0.067975
C36   C     C_R   0.604087 0.588187 0.043890 0.067975
C37   C     C_R   0.422310 0.910450 0.047961 0.064640
C38   C     C_R   0.577690 0.089550 0.952039 0.064640
C39   C     C_R   0.077690 0.089550 0.547961 0.064640
C40   C     C_R   0.922310 0.910450 0.452039 0.064640
C41   C     C_R   0.075079 0.528132 0.505535 -0.027364
C42   C     C_R   0.924922 0.471868 0.494464 -0.027364
C43   C     C_R   0.424921 0.471869 0.005535 -0.027363
C44   C     C_R   0.575079 0.528131 0.994465 -0.027363
C45   C     C_R   0.425584 0.971013 0.998178 -0.034212
C46   C     C_R   0.574416 0.028987 0.001822 -0.034212
C47   C     C_R   0.074417 0.028987 0.498178 -0.034212
C48   C     C_R   0.925583 0.971013 0.501822 -0.034212
C49   C     C_3   0.781683 0.339775 0.524477 -0.613817
H1    H     H_    0.831316 0.289710 0.552821 0.155510
H2    H     H_    0.625527 0.345985 0.535469 0.230958
H3    H     H_    0.804220 0.325537 0.468799 0.222758
C50   C     C_3   0.218317 0.660225 0.475523 -0.613818
H4    H     H_    0.168684 0.710289 0.447179 0.155510
H5    H     H_    0.195780 0.674463 0.531201 0.222758
H6    H     H_    0.374473 0.654015 0.464531 0.230958
C51   C     C_3   0.718320 0.660224 0.024477 -0.613818
H7    H     H_    0.668687 0.710289 0.052821 0.155511
H8    H     H_    0.874475 0.654014 0.035470 0.230958
H9    H     H_    0.695784 0.674462 0.968799 0.222758
C52   C     C_3   0.281680 0.339776 0.975523 -0.613819
H10   H     H_    0.331313 0.289711 0.947179 0.155511
H11   H     H_    0.304215 0.325538 0.031201 0.222758
H12   H     H_    0.125525 0.345986 0.964530 0.230958
C53   C     C_3   0.695696 0.162312 0.965431 -0.612941
H13   H     H_    0.846713 0.156671 0.947113 0.231095
H14   H     H_    0.634795 0.211778 0.939402 0.156789
H15   H     H_    0.693240 0.177060 0.021651 0.222100
C54   C     C_3   0.304304 0.837688 0.034569 -0.612942
H16   H     H_    0.365204 0.788222 0.060598 0.156788
H17   H     H_    0.153287 0.843329 0.052887 0.231095
H18   H     H_    0.306760 0.822940 0.978349 0.222100
C55   C     C_3   0.804303 0.837688 0.465430 -0.612942
H19   H     H_    0.653285 0.843330 0.447112 0.231095
H20   H     H_    0.865203 0.788222 0.439402 0.156789
H21   H     H_    0.806757 0.822940 0.521651 0.222100
C56   C     C_3   0.195698 0.162312 0.534570 -0.612942
H22   H     H_    0.134797 0.211778 0.560598 0.156789
H23   H     H_    0.346715 0.156670 0.552887 0.231095
H24   H     H_    0.193243 0.177060 0.478349 0.222100
C57   C     C_3   0.232260 0.483354 0.691153 -0.754447
H25   H     H_    0.281209 0.542922 0.700286 0.216000
H26   H     H_    0.130160 0.468697 0.733996 0.195284
H27   H     H_    0.358382 0.446869 0.694178 0.205290
C58   C     C_3   0.767740 0.516646 0.308847 -0.754447
H28   H     H_    0.718792 0.457078 0.299714 0.216000
H29   H     H_    0.641618 0.553130 0.305822 0.205289
H30   H     H_    0.869840 0.531303 0.266004 0.195284
C59   C     C_3   0.267737 0.516647 0.191153 -0.754447
H31   H     H_    0.218783 0.457080 0.200285 0.216000
H32   H     H_    0.369838 0.531301 0.233995 0.195284
H33   H     H_    0.141619 0.553133 0.194178 0.205291
C60   C     C_3   0.732263 0.483353 0.808847 -0.754448
H34   H     H_    0.781216 0.542921 0.799715 0.216000
H35   H     H_    0.858381 0.446867 0.805822 0.205291
H36   H     H_    0.630161 0.468699 0.766004 0.195284
C61   C     C_3   0.191738 0.014459 0.822801 -0.755832
H37   H     H_    0.143099 0.954481 0.816113 0.215364
H38   H     H_    0.062927 0.049723 0.825279 0.210416
H39   H     H_    0.277730 0.029280 0.775505 0.197200
C62   C     C_3   0.808262 0.985541 0.177198 -0.755831
H40   H     H_    0.856899 0.045519 0.183887 0.215364
H41   H     H_    0.722271 0.970719 0.224494 0.197200
H42   H     H_    0.937075 0.950278 0.174720 0.210416
C63   C     C_3   0.308263 0.985540 0.322802 -0.755832
H43   H     H_    0.356903 0.045518 0.316114 0.215364
H44   H     H_    0.437074 0.950277 0.325279 0.210416
H45   H     H_    0.222271 0.970719 0.275506 0.197200
C64   C     C_3   0.691737 0.014460 0.677198 -0.755833
H46   H     H_    0.643097 0.954482 0.683886 0.215364
H47   H     H_    0.777729 0.029280 0.724494 0.197200
H48   H     H_    0.562926 0.049723 0.674720 0.210416
O21   O     O_3   0.634471 0.435336 0.430753 -0.650448
H49   H     H_    0.542008 0.462100 0.401179 0.301815
O22   O     O_3   0.365530 0.564664 0.569246 -0.650448
H50   H     H_    0.457992 0.537899 0.598820 0.301815
O23   O     O_3   0.865532 0.564663 0.930755 -0.650448
H51   H     H_    0.957995 0.537897 0.901181 0.301815
O24   O     O_3   0.134468 0.435338 0.069245 -0.650448
H52   H     H_    0.042005 0.462103 0.098819 0.301815
O25   O     O_3   0.884718 0.069226 0.050387 -0.653810
H53   H     H_    0.990637 0.043682 0.074403 0.305086
O26   O     O_3   0.115282 0.930774 0.949613 -0.653810
H54   H     H_    0.009363 0.956318 0.925597 0.305086
O27   O     O_3   0.615281 0.930775 0.550386 -0.653810
H55   H     H_    0.509361 0.956319 0.574403 0.305086
O28   O     O_3   0.384719 0.069225 0.449614 -0.653810
H56   H     H_    0.490639 0.043681 0.425597 0.305086

loop_
_geom_bond_atom_site_label_1
_geom_bond_atom_site_label_2
_ccdc_geom_bond_type
C56   H22   S    
C49   H1    S    
O13   V4    S    
O26   H54   S    
O14   V3    S    
C39   C56   S    
C12   C35   A    
C19   C27   A    
C51   H9    S    
C13   C38   A    
O27   H55   S    
O5    C4    A    
C50   H4    S    
O6    C3    A    
C57   H26   S    
O11   C3    A    
C9    C34   A    
C16   C39   A    
C21   O25   S    
C25   C58   S    
O20   V1    S    
C63   H43   S    
C60   H35   S    
C52   H10   S    
C37   C54   S    
C52   H12   S    
O24   H52   S    
C38   C53   S    
C38   C46   A    
C54   H17   S    
C61   H39   S    
C35   C43   A    
C34   C42   A    
C23   O27   S    
C19   C44   A    
C22   C45   A    
C10   C33   A    
C8    C14   S    
O28   H56   S    
C53   H14   S    
C17   O21   S    
O4    V1    S    
O9    V1    S    
C14   C37   A    
C4    C10   S    
C20   C28   A    
O17   V4    S    
O15   C7    A    
C18   O22   S    
O11   V3    S    
O18   V3    S    
O16   C8    A    
O12   V4    S    
O19   V2    S    
C64   H47   S    
C49   H2    S    
O12   C4    A    
C17   C25   A    
C51   H8    S    
C55   H19   S    
O5    V1    S    
C52   H11   S    
O17   V1    S    
C57   H27   S    
O7    V3    S    
O19   V3    S    
C43   C44   A    
O8    V4    S    
C33   C50   S    
O20   V4    S    
C3    C9    S    
C60   H36   S    
O16   V1    S    
C7    C13   S    
O1    V4    S    
C51   H7    S    
O2    V3    S    
O3    V2    S    
C35   C52   S    
C22   O26   S    
C15   C40   A    
C62   H42   S    
C36   C51   S    
O10   V2    S    
C15   C32   A    
C5    C15   S    
C26   C57   S    
O7    C2    A    
C6    C16   S    
C22   C30   A    
C50   H5    S    
O13   C5    A    
C54   H16   S    
C53   H15   S    
C61   H37   S    
C12   C27   A    
C29   C62   S    
C18   C26   A    
C64   H48   S    
C13   C30   A    
O9    C1    A    
C40   C55   S    
O6    V2    S    
C30   C61   S    
C39   C47   A    
O18   V2    S    
C54   H18   S    
C62   H40   S    
C49   H3    S    
C58   H30   S    
C24   C47   A    
O25   H53   S    
O2    C7    A    
C55   H21   S    
O15   V2    S    
C23   C31   A    
C59   H31   S    
C57   H25   S    
C50   H6    S    
C37   C45   A    
C24   C32   A    
C18   C41   A    
C10   C25   A    
C55   H20   S    
C21   C46   A    
C32   C63   S    
C33   C41   A    
C20   C43   A    
C16   C31   A    
O22   H50   S    
C59   H33   S    
C17   C42   A    
C56   H24   S    
O21   H49   S    
O8    C1    A    
C63   H45   S    
C58   H29   S    
C9    C26   A    
C47   C48   A    
C31   C64   S    
O23   H51   S    
O4    C5    A    
O14   C6    A    
C64   H46   S    
C14   C29   A    
O10   C2    A    
C20   O24   S    
C28   C59   S    
C27   C60   S    
C40   C48   A    
C45   C46   A    
C23   C48   A    
C61   H38   S    
C19   O23   S    
C21   C29   A    
C36   C44   A    
O1    C8    A    
C56   H23   S    
C41   C42   A    
C24   O28   S    
C58   H28   S    
C11   C28   A    
C62   H41   S    
C11   C36   A    
O3    C6    A    
C1    C11   S    
C63   H44   S    
C53   H13   S    
C60   H34   S    
C2    C12   S    
C34   C49   S    
C59   H32   S    
