data_mof_unit_40348.cif
_audit_creation_date              2012-12-10T19:29:31-0500
_audit_creation_method            fapswitch 2.2
_symmetry_space_group_name_H-M    P1
_symmetry_Int_Tables_number       1
_space_group_crystal_system       triclinic
_cell_length_a                    22.106275
_cell_length_b                    22.395551
_cell_length_c                    14.956944
_cell_angle_alpha                 89.964845
_cell_angle_beta                  90.175212
_cell_angle_gamma                 90.005077
_cell_volume                      7404.88083283

loop_
_atom_site_label
_atom_site_type_symbol
_atom_type_description
_atom_site_fract_x
_atom_site_fract_y
_atom_site_fract_z
_atom_type_partial_charge
C1    C     C_R   0.418732 0.918888 0.499898 0.900197
C2    C     C_R   0.581270 0.081109 0.500103 0.900113
C3    C     C_R   0.581291 0.918910 0.500151 0.899991
C4    C     C_R   0.418707 0.081088 0.499850 0.900049
C5    C     C_R   0.918732 0.418889 0.499897 0.900126
C6    C     C_R   0.081267 0.581112 0.500102 0.900216
C7    C     C_R   0.081292 0.418911 0.500150 0.900062
C8    C     C_R   0.918709 0.581090 0.499849 0.899985
C9    C     C_1   0.338151 0.164245 0.498707 -0.002043
C10   C     C_1   0.661861 0.835766 0.501300 -0.002135
C11   C     C_1   0.661702 0.164383 0.501135 -0.001665
C12   C     C_1   0.338327 0.835589 0.498882 -0.001569
C13   C     C_1   0.838142 0.664238 0.498700 -0.002168
C14   C     C_1   0.161848 0.335754 0.501304 -0.002177
C15   C     C_1   0.161675 0.664407 0.501117 -0.001554
C16   C     C_1   0.838334 0.335584 0.498886 -0.001594
C17   C     C_1   0.500214 0.999975 0.189799 0.130902
C18   C     C_1   0.499786 0.000024 0.810201 0.130930
C19   C     C_1   0.000217 0.499987 0.189800 0.130907
C20   C     C_1   0.999784 0.500014 0.810200 0.130856
C21   C     C_3   0.465298 0.954280 0.969899 -0.312540
C22   C     C_3   0.534702 0.045718 0.030101 -0.312540
C23   C     C_3   0.522514 0.947376 0.030139 -0.312913
C24   C     C_3   0.477485 0.052622 0.969861 -0.312904
C25   C     C_3   0.967978 0.452416 0.969913 -0.312553
C26   C     C_3   0.032023 0.547585 0.030087 -0.312552
C27   C     C_3   0.025500 0.448722 0.030150 -0.312949
C28   C     C_3   0.974501 0.551279 0.969850 -0.312959
C29   C     C_3   0.696859 0.721853 0.513520 -0.095467
C30   C     C_3   0.303065 0.278106 0.485636 -0.095408
C31   C     C_3   0.300121 0.724402 0.465946 -0.094526
C32   C     C_3   0.699762 0.275701 0.533394 -0.094545
C33   C     C_3   0.196937 0.221897 0.514393 -0.095432
C34   C     C_3   0.803146 0.778152 0.486483 -0.095515
C35   C     C_3   0.800289 0.224254 0.466649 -0.094505
C36   C     C_3   0.199884 0.775592 0.534057 -0.094472
C37   C     C_3   0.239488 0.211638 0.434694 0.592062
C38   C     C_3   0.760225 0.788037 0.565858 0.591720
C39   C     C_3   0.766459 0.204848 0.551494 0.596069
C40   C     C_3   0.233381 0.795347 0.449106 0.596224
C41   C     C_3   0.739779 0.711969 0.434144 0.591714
C42   C     C_3   0.260513 0.288366 0.565332 0.591994
C43   C     C_3   0.266624 0.704645 0.550897 0.596255
C44   C     C_3   0.733591 0.295105 0.448548 0.596082
C45   C     C_1   0.374932 0.125938 0.499370 -0.184520
C46   C     C_1   0.625072 0.874066 0.500633 -0.184517
C47   C     C_1   0.624967 0.126030 0.500454 -0.185204
C48   C     C_1   0.375050 0.873953 0.499554 -0.185104
C49   C     C_1   0.874930 0.625936 0.499367 -0.184634
C50   C     C_1   0.125065 0.374060 0.500632 -0.184624
C51   C     C_1   0.124951 0.626045 0.500445 -0.185022
C52   C     C_1   0.875052 0.373952 0.499552 -0.185073
C53   C     C_3   0.251539 0.220484 0.579436 -0.376997
C54   C     C_3   0.748854 0.779914 0.420901 -0.376554
C55   C     C_3   0.739488 0.229886 0.415603 -0.380939
C56   C     C_3   0.260884 0.769725 0.584521 -0.381135
C57   C     C_3   0.751151 0.720091 0.579102 -0.376405
C58   C     C_3   0.248463 0.279518 0.420592 -0.376825
C59   C     C_3   0.239120 0.730269 0.415483 -0.381319
C60   C     C_3   0.760564 0.270069 0.584439 -0.381135
C61   C     C_3   0.293700 0.210374 0.498530 0.005142
C62   C     C_3   0.706318 0.789643 0.501482 0.005221
C63   C     C_3   0.706178 0.210484 0.501608 0.002998
C64   C     C_3   0.293858 0.789482 0.498412 0.002903
C65   C     C_3   0.793687 0.710362 0.498520 0.005187
C66   C     C_3   0.206303 0.289629 0.501497 0.005062
C67   C     C_3   0.206147 0.710512 0.501591 0.002963
C68   C     C_3   0.793873 0.289470 0.498433 0.003024
C69   C     C_3   0.444427 0.006705 0.029536 0.660493
C70   C     C_3   0.555573 0.993293 0.970464 0.660508
C71   C     C_3   0.944131 0.503588 0.029539 0.660545
C72   C     C_3   0.055870 0.496413 0.970461 0.660523
C73   C     C_3   0.500566 0.999931 0.089510 -0.028606
C74   C     C_3   0.499434 0.000067 0.910490 -0.028616
C75   C     C_3   0.000569 0.499964 0.089510 -0.028596
C76   C     C_3   0.999431 0.500037 0.910490 -0.028584
H1    H     H_    0.746811 0.804796 0.356738 0.163523
H2    H     H_    0.253898 0.195936 0.643863 0.163546
H3    H     H_    0.270843 0.786246 0.652969 0.164362
H4    H     H_    0.729808 0.213064 0.347232 0.164343
H5    H     H_    0.246105 0.304067 0.356165 0.163632
H6    H     H_    0.753193 0.695210 0.643267 0.163644
H7    H     H_    0.770244 0.286890 0.652810 0.164228
H8    H     H_    0.229162 0.713748 0.347035 0.164211
H9    H     H_    0.541536 0.904485 0.054593 0.156441
H10   H     H_    0.458463 0.095513 0.945407 0.156463
H11   H     H_    0.436359 0.917177 0.945480 0.157226
H12   H     H_    0.563641 0.082821 0.054519 0.157212
H13   H     H_    0.046952 0.406965 0.054616 0.156439
H14   H     H_    0.953049 0.593036 0.945384 0.156411
H15   H     H_    0.941217 0.413754 0.945501 0.157139
H16   H     H_    0.058784 0.586247 0.054499 0.157155
N1    N     N_1   0.500020 1.000000 0.268010 -0.092089
N2    N     N_1   0.499980 1.000000 0.731990 -0.092084
N3    N     N_1   0.000020 0.500000 0.268010 -0.092082
N4    N     N_1   0.999980 0.500000 0.731990 -0.092093
O1    O     O_R   0.438390 0.938390 0.574460 -0.620560
O2    O     O_R   0.561610 0.061610 0.425540 -0.620564
O3    O     O_R   0.561610 0.938390 0.425540 -0.622436
O4    O     O_R   0.438390 0.061610 0.574460 -0.622442
O5    O     O_R   0.938390 0.438390 0.574460 -0.620870
O6    O     O_R   0.061610 0.561610 0.425540 -0.620848
O7    O     O_R   0.061610 0.438390 0.425540 -0.622200
O8    O     O_R   0.938390 0.561610 0.574460 -0.622207
O9    O     O_R   0.438400 0.938390 0.425520 -0.598532
O10   O     O_R   0.561600 0.061610 0.574480 -0.598518
O11   O     O_R   0.561600 0.938390 0.574480 -0.595207
O12   O     O_R   0.438400 0.061610 0.425520 -0.595190
O13   O     O_R   0.938400 0.438390 0.425520 -0.598039
O14   O     O_R   0.061600 0.561610 0.574480 -0.598084
O15   O     O_R   0.061600 0.438390 0.574480 -0.595627
O16   O     O_R   0.938400 0.561610 0.425520 -0.595610
Zn1   Zn    Zn3+2 0.500000 0.000000 0.599450 0.990232
Zn2   Zn    Zn3+2 0.500000 1.000000 0.400550 0.990228
Zn3   Zn    Zn3+2 0.000000 0.500000 0.599450 0.990197
Zn4   Zn    Zn3+2 0.000000 0.500000 0.400550 0.990243
O17   O     O_3   0.613863 0.986270 0.933788 -0.595522
C77   C     C_3   0.656582 0.981034 0.003406 -0.306985
H17   H     H_    0.647788 0.940916 0.045233 0.152916
H18   H     H_    0.657778 0.021927 0.045505 0.154233
H19   H     H_    0.702083 0.975619 0.973432 0.199806
O18   O     O_3   0.386137 0.013730 0.066211 -0.595539
C78   C     C_3   0.343417 0.018958 0.996592 -0.306933
H20   H     H_    0.342219 0.978060 0.954506 0.154237
H21   H     H_    0.352213 0.059070 0.954752 0.152936
H22   H     H_    0.297917 0.024379 0.026566 0.199832
O19   O     O_3   0.114471 0.492658 0.933788 -0.595580
C79   C     C_3   0.157420 0.489846 0.003410 -0.306781
H23   H     H_    0.150934 0.449325 0.045298 0.153073
H24   H     H_    0.156274 0.530761 0.045450 0.154144
H25   H     H_    0.203161 0.486960 0.973447 0.199829
O20   O     O_3   0.885529 0.507342 0.066213 -0.595566
C80   C     C_3   0.842581 0.510161 0.996591 -0.306809
H26   H     H_    0.843728 0.469251 0.954540 0.154143
H27   H     H_    0.849066 0.550687 0.954715 0.153057
H28   H     H_    0.796839 0.513041 0.026555 0.199804
O21   O     O_3   0.232058 0.167994 0.367493 -0.597822
C81   C     C_3   0.185506 0.185643 0.308640 -0.308100
H29   H     H_    0.199954 0.224369 0.267424 0.162896
H30   H     H_    0.142815 0.196143 0.344562 0.154200
H31   H     H_    0.175776 0.148131 0.262403 0.195812
O22   O     O_3   0.767345 0.831334 0.633630 -0.597987
C82   C     C_3   0.813605 0.813367 0.692769 -0.308366
H32   H     H_    0.856472 0.803068 0.657176 0.154413
H33   H     H_    0.798959 0.774416 0.733348 0.162886
H34   H     H_    0.823101 0.850625 0.739571 0.195842
O23   O     O_3   0.780044 0.154148 0.603984 -0.597221
C83   C     C_3   0.832602 0.165074 0.654891 -0.308882
H35   H     H_    0.823603 0.198519 0.708056 0.164243
H36   H     H_    0.871193 0.179653 0.612618 0.151204
H37   H     H_    0.846208 0.122905 0.688268 0.194891
O24   O     O_3   0.219604 0.846276 0.397225 -0.597170
C84   C     C_3   0.166848 0.835583 0.346658 -0.308808
H38   H     H_    0.128424 0.820807 0.389108 0.151071
H39   H     H_    0.175638 0.802385 0.293070 0.164271
H40   H     H_    0.153112 0.877904 0.313836 0.194910
O25   O     O_3   0.732659 0.668674 0.366369 -0.598129
C85   C     C_3   0.686394 0.686640 0.307238 -0.308738
H41   H     H_    0.701028 0.725603 0.266674 0.162789
H42   H     H_    0.643524 0.696921 0.342836 0.154457
H43   H     H_    0.676907 0.649389 0.260420 0.195945
O26   O     O_3   0.267949 0.332014 0.632526 -0.597859
C86   C     C_3   0.314490 0.314359 0.691393 -0.308256
H44   H     H_    0.357182 0.303851 0.655483 0.154234
H45   H     H_    0.300029 0.275637 0.732607 0.162724
H46   H     H_    0.324220 0.351870 0.737632 0.195902
O27   O     O_3   0.280399 0.653716 0.602776 -0.597028
C87   C     C_3   0.333165 0.664401 0.653325 -0.308468
H47   H     H_    0.324395 0.697615 0.706898 0.164307
H48   H     H_    0.371590 0.679152 0.610856 0.151037
H49   H     H_    0.346889 0.622083 0.686166 0.194865
O28   O     O_3   0.720005 0.345803 0.396054 -0.597180
C88   C     C_3   0.667447 0.334876 0.345150 -0.308567
H50   H     H_    0.628858 0.320288 0.387423 0.151152
H51   H     H_    0.676449 0.301436 0.291978 0.164348
H52   H     H_    0.653834 0.377045 0.311781 0.194834
C89   C     C_R   0.640098 0.685929 0.529606 0.134812
C90   C     C_R   0.642548 0.623363 0.523131 -0.115506
C91   C     C_R   0.590654 0.588945 0.537182 -0.173328
C92   C     C_R   0.536080 0.616564 0.559292 -0.101260
C93   C     C_R   0.533402 0.678619 0.567559 -0.135054
C94   C     C_R   0.585062 0.713246 0.552684 -0.167723
H53   H     H_    0.684612 0.601222 0.506662 0.162379
H54   H     H_    0.592782 0.540850 0.530995 0.131396
H55   H     H_    0.495903 0.589920 0.570137 0.129983
H56   H     H_    0.491165 0.699970 0.585202 0.128764
H57   H     H_    0.581632 0.760957 0.560536 0.140487
C95   C     C_R   0.359690 0.314058 0.468676 0.135189
C96   C     C_R   0.356980 0.376674 0.473682 -0.114648
C97   C     C_R   0.408738 0.411148 0.458878 -0.172908
C98   C     C_R   0.463443 0.383518 0.437510 -0.101639
C99   C     C_R   0.466388 0.321393 0.430746 -0.134392
C100  C     C_R   0.414865 0.286718 0.446390 -0.168345
H58   H     H_    0.314813 0.398810 0.489602 0.161565
H59   H     H_    0.406408 0.459294 0.463919 0.131320
H60   H     H_    0.503518 0.410204 0.426090 0.129699
H61   H     H_    0.508736 0.300030 0.413712 0.129070
H62   H     H_    0.418525 0.238941 0.439801 0.140267
C101  C     C_R   0.353092 0.690686 0.427379 0.141828
C102  C     C_R   0.346456 0.629570 0.408476 -0.111150
C103  C     C_R   0.394737 0.596821 0.373516 -0.173861
C104  C     C_R   0.449972 0.624834 0.356603 -0.103977
C105  C     C_R   0.456903 0.685663 0.374391 -0.125658
C106  C     C_R   0.408809 0.718519 0.409810 -0.174409
H63   H     H_    0.303879 0.607224 0.421188 0.150849
H64   H     H_    0.389282 0.549738 0.359408 0.129360
H65   H     H_    0.487395 0.599438 0.329754 0.128593
H66   H     H_    0.499759 0.707323 0.361297 0.133454
H67   H     H_    0.415700 0.765323 0.422900 0.138585
C107  C     C_R   0.646626 0.309547 0.571207 0.141640
C108  C     C_R   0.653055 0.370812 0.589166 -0.111379
C109  C     C_R   0.604615 0.403676 0.623400 -0.173912
C110  C     C_R   0.549435 0.375629 0.640564 -0.103430
C111  C     C_R   0.542720 0.314650 0.623765 -0.126248
C112  C     C_R   0.590969 0.281679 0.589053 -0.174438
H68   H     H_    0.695589 0.393186 0.576265 0.151242
H69   H     H_    0.609907 0.450875 0.636752 0.129642
H70   H     H_    0.511891 0.401113 0.666853 0.128691
H71   H     H_    0.499913 0.292957 0.637081 0.133200
H72   H     H_    0.584253 0.234753 0.576761 0.138721
C113  C     C_R   0.140296 0.185976 0.531382 0.135072
C114  C     C_R   0.142914 0.123367 0.526088 -0.115001
C115  C     C_R   0.091133 0.088931 0.540922 -0.173023
C116  C     C_R   0.036503 0.116591 0.562619 -0.101448
C117  C     C_R   0.033656 0.178705 0.569687 -0.134726
C118  C     C_R   0.085201 0.213342 0.554021 -0.168320
H73   H     H_    0.185022 0.101205 0.509921 0.161840
H74   H     H_    0.093389 0.040793 0.535653 0.131311
H75   H     H_    0.996411 0.089934 0.574061 0.129710
H76   H     H_    0.991369 0.200089 0.586985 0.128883
H77   H     H_    0.081626 0.261109 0.560883 0.140302
C119  C     C_R   0.859901 0.814085 0.470402 0.134892
C120  C     C_R   0.857426 0.876653 0.476804 -0.115461
C121  C     C_R   0.909312 0.911083 0.462754 -0.173334
C122  C     C_R   0.963905 0.883471 0.440720 -0.101308
C123  C     C_R   0.966609 0.821413 0.432531 -0.135089
C124  C     C_R   0.914956 0.786774 0.447407 -0.167900
H78   H     H_    0.815348 0.898787 0.493215 0.162315
H79   H     H_    0.907165 0.959180 0.468884 0.131430
H80   H     H_    0.004075 0.910125 0.429875 0.129954
H81   H     H_    0.008861 0.800067 0.414950 0.128723
H82   H     H_    0.918409 0.739060 0.439624 0.140363
C125  C     C_R   0.853428 0.190403 0.428854 0.141659
C126  C     C_R   0.846962 0.129162 0.410747 -0.111207
C127  C     C_R   0.895403 0.096291 0.376534 -0.173828
C128  C     C_R   0.950627 0.124306 0.359553 -0.103595
C129  C     C_R   0.957384 0.185260 0.376516 -0.125833
C130  C     C_R   0.909132 0.218238 0.411204 -0.174205
H83   H     H_    0.804396 0.106812 0.423513 0.151123
H84   H     H_    0.890081 0.049110 0.363059 0.129644
H85   H     H_    0.988172 0.098815 0.333283 0.128692
H86   H     H_    0.000226 0.206927 0.363351 0.133338
H87   H     H_    0.915884 0.265141 0.423644 0.138694
C131  C     C_R   0.146908 0.809308 0.572612 0.141717
C132  C     C_R   0.153512 0.870444 0.591392 -0.111061
C133  C     C_R   0.105219 0.903196 0.626310 -0.173830
C134  C     C_R   0.050008 0.875165 0.643316 -0.103939
C135  C     C_R   0.043112 0.814313 0.625665 -0.125538
C136  C     C_R   0.091216 0.781455 0.590282 -0.174214
H88   H     H_    0.196070 0.892805 0.578608 0.150970
H89   H     H_    0.110647 0.950297 0.640307 0.129434
H90   H     H_    0.012576 0.900564 0.670130 0.128633
H91   H     H_    0.000275 0.792637 0.638834 0.133518
H92   H     H_    0.084354 0.734633 0.577306 0.138700

loop_
_geom_bond_atom_site_label_1
_geom_bond_atom_site_label_2
_ccdc_geom_bond_type
C82   H34   S    
C17   C73   S    
C105  C106  A    
C21   H11   S    
C9    C45   T    
C97   C98   A    
O17   C77   S    
C26   C72   S    
C103  C104  A    
C132  H88   S    
C37   C58   S    
C11   C47   T    
C86   H44   S    
C83   H37   S    
O23   C83   S    
C72   C76   S    
C116  C117  A    
O3    Zn2   S    
C31   C101  S    
C90   C91   A    
C36   C67   S    
C32   C44   S    
C78   H20   S    
C13   C65   S    
C110  C111  A    
C126  C127  A    
C35   C125  S    
C118  H77   S    
C4    O12   A    
C20   C76   S    
C102  H63   S    
C56   H3    S    
C31   C43   S    
C124  H82   S    
C9    C61   S    
C35   C68   S    
C86   H45   S    
C83   H36   S    
C91   H54   S    
C11   C63   S    
C111  H71   S    
C8    O16   A    
C42   C53   S    
C16   C68   S    
C12   C64   S    
C60   H7    S    
C78   H21   S    
C109  H69   S    
C70   O17   S    
O12   Zn2   S    
C125  C126  A    
O8    Zn3   S    
C30   C58   S    
C123  C124  A    
C40   O24   S    
C134  C135  A    
C122  H80   S    
O22   C82   S    
C31   C59   S    
C77   H17   S    
O11   Zn1   S    
O13   Zn4   S    
C59   C67   S    
C71   O20   S    
C98   H60   S    
C53   C61   S    
C96   H58   S    
C58   C66   S    
C87   H49   S    
C135  H91   S    
O20   C80   S    
C27   C72   S    
C55   C63   S    
C106  H67   S    
C70   C74   S    
C80   H28   S    
C103  H64   S    
C56   C64   S    
N4    Zn3   S    
C69   C73   S    
C25   C71   S    
C15   C51   T    
C6    C51   S    
C84   H39   S    
C120  C121  A    
C128  C129  A    
C90   H53   S    
C85   H43   S    
C12   C48   T    
C4    C45   S    
C54   H1    S    
C29   C89   S    
C87   H48   S    
C108  H68   S    
C20   N4    T    
C34   C119  S    
C101  C102  A    
C18   C74   S    
C40   C59   S    
C7    O7    A    
C133  H89   S    
C79   H23   S    
C85   H42   S    
C38   O22   S    
C23   C70   S    
C81   H29   S    
C10   C62   S    
C26   H16   S    
C8    C49   S    
C23   C73   S    
C107  C108  A    
C27   C75   S    
C34   C65   S    
C69   O18   S    
C34   C38   S    
N2    Zn1   S    
C24   C69   S    
C117  C118  A    
C116  H75   S    
C128  H85   S    
C88   H51   S    
C33   C53   S    
C5    O5    A    
C25   H15   S    
C36   C131  S    
C126  H83   S    
C14   C50   T    
C72   O19   S    
C35   C55   S    
C134  H90   S    
O9    Zn2   S    
C36   C40   S    
C86   H46   S    
C83   H35   S    
C7    C50   S    
C115  C116  A    
C136  H92   S    
C104  C105  A    
C58   H5    S    
C1    O1    A    
O27   C87   S    
C130  H87   S    
C102  C103  A    
C78   H22   S    
C41   C65   S    
C54   C62   S    
C3    O11   A    
C93   C94   A    
C113  C118  A    
C2    O10   A    
C33   C37   S    
C135  C136  A    
C98   C99   A    
O25   C85   S    
C21   C69   S    
C95   C96   A    
C77   H19   S    
C30   C95   S    
C123  H81   S    
C6    O14   A    
C35   C39   S    
C120  H78   S    
C44   O28   S    
C10   C46   T    
C113  C114  A    
C36   C56   S    
C38   C57   S    
C32   C107  S    
C37   C61   S    
C108  C109  A    
N3    Zn4   S    
C93   H56   S    
C125  C130  A    
C15   C67   S    
C133  C134  A    
C26   C75   S    
C14   C66   S    
C5    C52   S    
C99   H61   S    
C59   H8    S    
C84   H40   S    
C131  C136  A    
C8    O8    A    
C2    O2    A    
C81   H30   S    
C97   H59   S    
C13   C49   T    
O10   Zn1   S    
C121  H79   S    
C43   C67   S    
C87   H47   S    
C29   C57   S    
C95   C100  A    
C34   C54   S    
C22   H12   S    
C104  H65   S    
C21   C23   S    
C85   H41   S    
C80   H26   S    
C18   N2    T    
C41   O25   S    
C44   C68   S    
C28   C71   S    
C17   N1    T    
C121  C122  A    
C32   C60   S    
O1    Zn1   S    
C132  C133  A    
C28   C76   S    
C79   H25   S    
O16   Zn4   S    
C19   N3    T    
O28   C88   S    
C94   H57   S    
C89   C94   A    
O21   C81   S    
C88   H52   S    
C96   C97   A    
C82   H33   S    
C29   C62   S    
C122  C123  A    
C29   C41   S    
C111  C112  A    
C31   C64   S    
C129  H86   S    
O4    Zn1   S    
C16   C52   T    
C32   C63   S    
C57   C65   S    
C81   H31   S    
C79   H24   S    
C28   H14   S    
C129  C130  A    
C42   O26   S    
C1    C48   S    
O19   C79   S    
C43   O27   S    
C2    C47   S    
O26   C86   S    
O2    Zn2   S    
C39   C63   S    
C105  H66   S    
C3    C46   S    
C26   C28   S    
C117  H76   S    
C40   C64   S    
C110  H70   S    
C99   C100  A    
C25   C76   S    
C131  C132  A    
C4    O4    A    
O7    Zn4   S    
O18   C78   S    
C119  C124  A    
C112  H72   S    
C71   C75   S    
C55   H4    S    
C115  H74   S    
C44   C55   S    
C24   C74   S    
C101  C106  A    
C5    O13   A    
C114  H73   S    
O5    Zn3   S    
C39   C60   S    
C21   C74   S    
C19   C75   S    
C119  C120  A    
C7    O15   A    
C27   H13   S    
C22   C24   S    
N1    Zn2   S    
C6    O6    A    
C114  C115  A    
C77   H18   S    
C41   C54   S    
O6    Zn4   S    
C92   H55   S    
C33   C66   S    
C53   H2    S    
C91   C92   A    
C3    O3    A    
C43   C56   S    
C127  H84   S    
C109  C110  A    
C60   C68   S    
O15   Zn3   S    
C89   C90   A    
C23   H9    S    
C30   C61   S    
C39   O23   S    
C42   C66   S    
C80   H27   S    
C57   H6    S    
C30   C42   S    
C37   O21   S    
O24   C84   S    
C22   C73   S    
C38   C62   S    
C107  C112  A    
C127  C128  A    
C88   H50   S    
C24   H10   S    
O14   Zn3   S    
C22   C70   S    
C100  H62   S    
C92   C93   A    
C82   H32   S    
C1    O9    A    
C84   H38   S    
C25   C27   S    
C33   C113  S    
