data_mof_unit_10107.cif
_audit_creation_date              2012-12-10T20:04:59-0500
_audit_creation_method            fapswitch 2.2
_symmetry_space_group_name_H-M    P1
_symmetry_Int_Tables_number       1
_space_group_crystal_system       triclinic
_cell_length_a                    15.85394
_cell_length_b                    15.863512
_cell_length_c                    26.090827
_cell_angle_alpha                 90.004516
_cell_angle_beta                  89.985862
_cell_angle_gamma                 89.971351
_cell_volume                      6561.82022774

loop_
_atom_site_label
_atom_site_type_symbol
_atom_type_description
_atom_site_fract_x
_atom_site_fract_y
_atom_site_fract_z
_atom_type_partial_charge
C1    C     C_R   0.999875 0.500002 0.445414 -0.062775
C2    C     C_R   0.000024 0.499904 0.552292 -0.104130
C3    C     C_R   0.499827 0.000054 0.445407 -0.042174
C4    C     C_R   0.499476 0.000047 0.552308 -0.089534
C5    C     C_R   0.499867 0.000079 0.945416 -0.058911
C6    C     C_R   0.500056 0.999992 0.052293 -0.101849
C7    C     C_R   0.999859 0.500020 0.945407 -0.054398
C8    C     C_R   0.999513 0.500026 0.052307 -0.086851
C9    C     C_R   0.500041 0.000009 0.389905 0.719123
C10   C     C_R   0.499793 0.999997 0.609236 0.791456
C11   C     C_R   0.999975 0.500036 0.389921 0.724680
C12   C     C_R   0.000018 0.499940 0.609221 0.774049
C13   C     C_R   0.000060 0.500003 0.889905 0.721021
C14   C     C_R   0.999804 0.499994 0.109236 0.792045
C15   C     C_R   0.499971 0.000068 0.889921 0.723882
C16   C     C_R   0.500024 0.999960 0.109221 0.773773
C17   C     C_R   0.339958 0.159993 0.250011 0.856638
C18   C     C_R   0.659998 0.839964 0.750015 0.858274
C19   C     C_R   0.839991 0.339955 0.250025 0.857583
C20   C     C_R   0.160055 0.659997 0.750008 0.852407
C21   C     C_R   0.660048 0.840009 0.250007 0.853612
C22   C     C_R   0.340001 0.160038 0.750025 0.858867
C23   C     C_R   0.160006 0.660042 0.250020 0.858889
C24   C     C_R   0.839954 0.340000 0.750006 0.854676
C25   C     C_R   0.339992 0.839955 0.750025 0.856802
C26   C     C_R   0.660055 0.159997 0.250008 0.852421
C27   C     C_R   0.839958 0.659993 0.750011 0.856355
C28   C     C_R   0.159998 0.339964 0.250016 0.858177
C29   C     C_R   0.660006 0.160042 0.750021 0.858912
C30   C     C_R   0.339954 0.840000 0.250006 0.852791
C31   C     C_R   0.160049 0.340011 0.750009 0.852930
C32   C     C_R   0.839999 0.660036 0.250023 0.859537
C33   C     C_1   0.276641 0.776716 0.249995 -0.050104
C34   C     C_1   0.723297 0.223351 0.750022 -0.042792
C35   C     C_1   0.223289 0.276653 0.250002 -0.047172
C36   C     C_1   0.776643 0.723281 0.750006 -0.045957
C37   C     C_1   0.723371 0.223274 0.250003 -0.047302
C38   C     C_1   0.276707 0.776644 0.750033 -0.043811
C39   C     C_1   0.776709 0.723346 0.250013 -0.041570
C40   C     C_1   0.223370 0.276731 0.750009 -0.047924
C41   C     C_1   0.276714 0.223350 0.750019 -0.039942
C42   C     C_1   0.723366 0.776727 0.250004 -0.044998
C43   C     C_1   0.223371 0.723274 0.750003 -0.046753
C44   C     C_1   0.776707 0.276644 0.250034 -0.045169
C45   C     C_1   0.723289 0.776652 0.750002 -0.047010
C46   C     C_1   0.276643 0.223281 0.250007 -0.045809
C47   C     C_1   0.776640 0.276716 0.749995 -0.050219
C48   C     C_1   0.223297 0.723351 0.250021 -0.043440
C49   C     C_R   0.352774 0.060809 0.043990 -0.219481
C50   C     C_R   0.590306 0.870130 0.950664 -0.178280
C51   C     C_R   0.930676 0.356633 0.044175 -0.197832
C52   C     C_R   0.133165 0.585610 0.950699 -0.204700
C53   C     C_R   0.647429 0.939037 0.043617 -0.181468
C54   C     C_R   0.408507 0.129568 0.950710 -0.203006
C55   C     C_R   0.066940 0.644014 0.044109 -0.237350
C56   C     C_R   0.866252 0.414938 0.950299 -0.191845
C57   C     C_R   0.852485 0.560210 0.543961 -0.203483
C58   C     C_R   0.090604 0.370263 0.450653 -0.178152
C59   C     C_R   0.430676 0.856638 0.544169 -0.197596
C60   C     C_R   0.633008 0.085867 0.450692 -0.207169
C61   C     C_R   0.147532 0.439244 0.543629 -0.181148
C62   C     C_R   0.908015 0.629060 0.450668 -0.187418
C63   C     C_R   0.566734 0.144109 0.544125 -0.237022
C64   C     C_R   0.366224 0.914960 0.450303 -0.192260
C65   C     C_R   0.309287 0.130544 0.022777 0.353453
C66   C     C_R   0.664824 0.837433 0.973626 0.328001
C67   C     C_R   0.858633 0.317344 0.022916 0.334757
C68   C     C_R   0.169518 0.657819 0.974461 0.379006
C69   C     C_R   0.691011 0.869522 0.021964 0.217481
C70   C     C_R   0.334308 0.162254 0.974173 0.366858
C71   C     C_R   0.138998 0.683739 0.023171 0.352028
C72   C     C_R   0.829297 0.343011 0.973933 0.314982
C73   C     C_R   0.808606 0.629600 0.522611 0.330656
C74   C     C_R   0.165173 0.337708 0.473625 0.327961
C75   C     C_R   0.358624 0.817357 0.522917 0.333190
C76   C     C_R   0.669265 0.158108 0.474474 0.379623
C77   C     C_R   0.191258 0.369820 0.521977 0.217362
C78   C     C_R   0.833556 0.661263 0.473994 0.305359
C79   C     C_R   0.638739 0.183927 0.523198 0.352523
C80   C     C_R   0.329267 0.843036 0.473941 0.319719
C81   C     C_R   0.947760 0.557175 0.472599 -0.051296
C82   C     C_R   0.067410 0.461484 0.523892 -0.050225
C83   C     C_R   0.440006 0.950822 0.472467 -0.042868
C84   C     C_R   0.540836 0.065582 0.524025 -0.065206
C85   C     C_R   0.051809 0.442638 0.472531 -0.050113
C86   C     C_R   0.932493 0.538212 0.524007 -0.073783
C87   C     C_R   0.559226 0.049537 0.472616 -0.040194
C88   C     C_R   0.457836 0.934714 0.523968 -0.066401
C89   C     C_R   0.447940 0.057445 0.972603 -0.050582
C90   C     C_R   0.567342 0.961423 0.023891 -0.050550
C91   C     C_R   0.940026 0.450804 0.972468 -0.052641
C92   C     C_R   0.040944 0.565509 0.024021 -0.063772
C93   C     C_R   0.551675 0.942598 0.972536 -0.050845
C94   C     C_R   0.432659 0.038529 0.024015 -0.077907
C95   C     C_R   0.059316 0.549425 0.972616 -0.043327
C96   C     C_R   0.957851 0.434700 0.023970 -0.072820
O1    O     O_3   0.500000 1.000000 0.250000 -0.523466
O2    O     O_3   0.500000 0.000000 0.750000 -0.523427
O3    O     O_3   0.000000 0.500000 0.250000 -0.522392
O4    O     O_3   1.000000 0.500000 0.750000 -0.521735
O5    O     O_R   0.500000 0.930770 0.365860 -0.625553
O6    O     O_R   0.500000 0.069230 0.634140 -0.657436
O7    O     O_R   0.069230 0.500000 0.365860 -0.623894
O8    O     O_R   0.930770 0.500000 0.634140 -0.655724
O9    O     O_R   0.500000 0.069230 0.365860 -0.622728
O10   O     O_R   0.500000 0.930770 0.634140 -0.654151
O11   O     O_R   0.930770 0.500000 0.365860 -0.641576
O12   O     O_R   0.069230 0.500000 0.634140 -0.655493
O13   O     O_R   1.000000 0.430770 0.865860 -0.640812
O14   O     O_R   1.000000 0.569230 0.134140 -0.658076
O15   O     O_R   0.569230 0.000000 0.865860 -0.624779
O16   O     O_R   0.430770 0.000000 0.134140 -0.656458
O17   O     O_R   1.000000 0.569230 0.865860 -0.618014
O18   O     O_R   1.000000 0.430770 0.134140 -0.652056
O19   O     O_R   0.430770 0.000000 0.865860 -0.637746
O20   O     O_R   0.569230 0.000000 0.134140 -0.655753
O21   O     O_R   0.402550 0.166630 0.280410 -0.631056
O22   O     O_R   0.597450 0.833370 0.719590 -0.621896
O23   O     O_R   0.833370 0.402550 0.280410 -0.638890
O24   O     O_R   0.166630 0.597450 0.719590 -0.620311
O25   O     O_R   0.597450 0.833370 0.280410 -0.631410
O26   O     O_R   0.402550 0.166630 0.719590 -0.616948
O27   O     O_R   0.166630 0.597450 0.280410 -0.634322
O28   O     O_R   0.833370 0.402550 0.719590 -0.622388
O29   O     O_R   0.402550 0.833370 0.719590 -0.591348
O30   O     O_R   0.597450 0.166630 0.280410 -0.619289
O31   O     O_R   0.833370 0.597450 0.719590 -0.593749
O32   O     O_R   0.166630 0.402550 0.280410 -0.623514
O33   O     O_R   0.597450 0.166630 0.719590 -0.591752
O34   O     O_R   0.402550 0.833370 0.280410 -0.621474
O35   O     O_R   0.166630 0.402550 0.719590 -0.590649
O36   O     O_R   0.833370 0.597450 0.280410 -0.622557
O37   O     O_R   0.902550 0.666630 0.780410 -0.630608
O38   O     O_R   0.097450 0.333370 0.219590 -0.621524
O39   O     O_R   0.333370 0.902550 0.780410 -0.636674
O40   O     O_R   0.666630 0.097450 0.219590 -0.620122
O41   O     O_R   0.097450 0.333370 0.780410 -0.637860
O42   O     O_R   0.902550 0.666630 0.219590 -0.616188
O43   O     O_R   0.666630 0.097450 0.780410 -0.633925
O44   O     O_R   0.333370 0.902550 0.219590 -0.622931
O45   O     O_R   0.902550 0.333370 0.219590 -0.590388
O46   O     O_R   0.097450 0.666630 0.780410 -0.618491
O47   O     O_R   0.333370 0.097450 0.219590 -0.593827
O48   O     O_R   0.666630 0.902550 0.780410 -0.623127
O49   O     O_R   0.097450 0.666630 0.219590 -0.591705
O50   O     O_R   0.902550 0.333370 0.780410 -0.620936
O51   O     O_R   0.666630 0.902550 0.219590 -0.592249
O52   O     O_R   0.333370 0.097450 0.780410 -0.618831
Zn1   Zn    Zn3+2 0.401050 1.000000 0.206670 1.038716
Zn2   Zn    Zn3+2 0.598950 0.000000 0.793330 1.024899
Zn3   Zn    Zn3+2 1.000000 0.401050 0.206670 1.050161
Zn4   Zn    Zn3+2 0.000000 0.598950 0.793330 1.035208
Zn5   Zn    Zn3+2 0.598950 1.000000 0.206670 1.043997
Zn6   Zn    Zn3+2 0.401050 0.000000 0.793330 1.022180
Zn7   Zn    Zn3+2 1.000000 0.598950 0.206670 1.054295
Zn8   Zn    Zn3+2 0.000000 0.401050 0.793330 1.014245
Zn9   Zn    Zn3+2 0.901050 0.500000 0.706670 1.040447
Zn10  Zn    Zn3+2 0.098950 0.500000 0.293330 1.024522
Zn11  Zn    Zn3+2 0.500000 0.901050 0.706670 1.048856
Zn12  Zn    Zn3+2 0.500000 0.098950 0.293330 1.033029
Zn13  Zn    Zn3+2 0.098950 0.500000 0.706670 1.044656
Zn14  Zn    Zn3+2 0.901050 0.500000 0.293330 1.014555
Zn15  Zn    Zn3+2 0.500000 0.098950 0.706670 1.054165
Zn16  Zn    Zn3+2 0.500000 0.901050 0.293330 1.027906
C97   C     C_2   0.303914 0.993165 0.070421 0.674335
H1    H     H_    0.330722 0.930384 0.073341 0.053811
O53   O     O_2   0.233626 0.004836 0.088026 -0.457150
C98   C     C_2   0.541000 0.819137 0.912672 0.566395
H2    H     H_    0.484456 0.843911 0.895100 0.022743
O54   O     O_2   0.557652 0.745468 0.903848 -0.449553
C99   C     C_2   0.995134 0.303558 0.070584 0.621924
H3    H     H_    0.059962 0.325405 0.072635 0.097328
O55   O     O_2   0.978401 0.235098 0.089231 -0.465394
C100  C     C_2   0.181052 0.535302 0.911621 0.561360
H4    H     H_    0.155892 0.476696 0.896988 0.035228
O56   O     O_2   0.252492 0.553568 0.898361 -0.453256
C101  C     C_2   0.695941 0.006485 0.070494 0.635036
H5    H     H_    0.669501 0.069494 0.072820 0.070907
O57   O     O_2   0.765200 0.994384 0.089423 -0.453710
C102  C     C_2   0.456729 0.180214 0.912013 0.575851
H6    H     H_    0.514521 0.156432 0.895421 0.045431
O58   O     O_2   0.437654 0.252626 0.901388 -0.454895
C103  C     C_2   0.001509 0.696499 0.070157 0.683535
H7    H     H_    0.937429 0.672876 0.073238 0.099732
O59   O     O_2   0.016422 0.766617 0.087040 -0.419332
C104  C     C_2   0.818830 0.465339 0.911081 0.573149
H8    H     H_    0.844267 0.523827 0.896461 0.051991
O60   O     O_2   0.747407 0.447263 0.897699 -0.456057
C105  C     C_2   0.803981 0.492491 0.570554 0.662352
H9    H     H_    0.830890 0.429738 0.573316 0.055433
O61   O     O_2   0.733967 0.504113 0.588568 -0.457262
C106  C     C_2   0.041429 0.319190 0.412637 0.566652
H10   H     H_    0.984831 0.343846 0.395069 0.022939
O62   O     O_2   0.058260 0.245570 0.403786 -0.449854
C107  C     C_2   0.495143 0.803560 0.570572 0.640378
H11   H     H_    0.559934 0.825481 0.572706 0.101369
O63   O     O_2   0.478467 0.735000 0.589102 -0.469137
C108  C     C_2   0.680952 0.035704 0.411570 0.564304
H12   H     H_    0.655888 0.977081 0.396908 0.051953
O64   O     O_2   0.752348 0.054116 0.398298 -0.454790
C109  C     C_2   0.195910 0.506772 0.570519 0.634566
H13   H     H_    0.169386 0.569749 0.572806 0.071199
O65   O     O_2   0.265130 0.494759 0.589520 -0.454116
C110  C     C_2   0.956023 0.680100 0.412081 0.579792
H14   H     H_    0.013685 0.656503 0.395230 0.043296
O66   O     O_2   0.936874 0.752656 0.401857 -0.455399
C111  C     C_2   0.501248 0.196509 0.570184 0.682458
H15   H     H_    0.437199 0.172808 0.573272 0.099571
O67   O     O_2   0.516089 0.266634 0.587080 -0.419681
C112  C     C_2   0.318796 0.965363 0.411089 0.567829
H16   H     H_    0.344256 0.023821 0.396439 0.051249
O68   O     O_2   0.247344 0.947328 0.397743 -0.455424
S1    S     S_3+6 0.768829 0.816606 0.059637 0.125104
O69   O     O_2   0.748957 0.827854 0.115563 -0.236445
O70   O     O_2   0.769525 0.723810 0.048175 -0.228417
O71   O     O_3   0.865319 0.856571 0.048003 -0.419633
H17   H     H_    0.856455 0.904590 0.024369 0.360986
S2    S     S_3+6 0.265904 0.230157 0.938529 0.119685
O72   O     O_2   0.289174 0.320373 0.949093 -0.213713
O73   O     O_2   0.274919 0.212967 0.882119 -0.281973
O74   O     O_3   0.164227 0.214747 0.954272 -0.471662
H18   H     H_    0.133397 0.262613 0.938640 0.371769
S3    S     S_3+6 0.197082 0.754598 0.062603 0.108171
O75   O     O_2   0.167358 0.843145 0.053090 -0.165400
O76   O     O_2   0.182566 0.732879 0.118015 -0.295242
O77   O     O_3   0.301072 0.747937 0.050456 -0.511171
H19   H     H_    0.328935 0.774022 0.080493 0.357104
S4    S     S_3+6 0.759292 0.277155 0.938054 0.126084
O78   O     O_2   0.670027 0.306182 0.946142 -0.144816
O79   O     O_2   0.779689 0.282513 0.881854 -0.294406
O80   O     O_3   0.766713 0.175450 0.955545 -0.486625
H20   H     H_    0.824024 0.157851 0.944821 0.362788
S5    S     S_3+6 0.233444 0.184099 0.061371 0.106669
O81   O     O_2   0.255383 0.172544 0.117032 -0.298758
O82   O     O_2   0.232398 0.276951 0.050055 -0.252396
O83   O     O_3   0.137113 0.143593 0.050036 -0.442269
H21   H     H_    0.113036 0.131008 0.084212 0.419068
S6    S     S_3+6 0.731657 0.768556 0.937479 0.112360
O84   O     O_2   0.709117 0.678609 0.949260 -0.160051
O85   O     O_2   0.719963 0.783529 0.881006 -0.296653
O86   O     O_3   0.834160 0.783535 0.951141 -0.494229
H22   H     H_    0.848528 0.838384 0.935243 0.353851
S7    S     S_3+6 0.799094 0.247301 0.062126 0.101731
O87   O     O_2   0.829035 0.158527 0.053685 -0.208260
O88   O     O_2   0.811692 0.270201 0.117533 -0.285194
O89   O     O_3   0.695547 0.253708 0.048675 -0.489046
H23   H     H_    0.666792 0.226338 0.077977 0.357407
S8    S     S_3+6 0.240845 0.723216 0.939199 0.124734
O90   O     O_2   0.329604 0.693034 0.947924 -0.193615
O91   O     O_2   0.220915 0.718299 0.882937 -0.280237
O92   O     O_3   0.233479 0.824899 0.956828 -0.482105
H24   H     H_    0.282998 0.852833 0.941083 0.372127
S9    S     S_3+6 0.269134 0.317024 0.559663 0.125197
O93   O     O_2   0.249186 0.328188 0.615586 -0.235811
O94   O     O_2   0.270012 0.224239 0.548172 -0.228820
O95   O     O_3   0.365559 0.357184 0.548075 -0.420522
H25   H     H_    0.356624 0.405217 0.524462 0.359710
S10   S     S_3+6 0.764534 0.727967 0.437971 0.123465
O96   O     O_2   0.785756 0.818609 0.448636 -0.166108
O97   O     O_2   0.774646 0.711610 0.381528 -0.294140
O98   O     O_3   0.662847 0.711290 0.453110 -0.467935
H26   H     H_    0.651065 0.652968 0.441588 0.369733
S11   S     S_3+6 0.696776 0.254764 0.562663 0.107856
O99   O     O_2   0.666976 0.343300 0.553205 -0.169098
O100  O     O_2   0.682285 0.232946 0.618064 -0.294654
O101  O     O_3   0.800767 0.248192 0.550496 -0.510812
H27   H     H_    0.828650 0.273762 0.580689 0.357119
S12   S     S_3+6 0.259225 0.777201 0.438074 0.127132
O102  O     O_2   0.169970 0.806240 0.446191 -0.145430
O103  O     O_2   0.279578 0.782575 0.381868 -0.293824
O104  O     O_3   0.266643 0.675489 0.455548 -0.487170
H28   H     H_    0.323937 0.657880 0.444798 0.361672
S13   S     S_3+6 0.732342 0.682913 0.561034 0.099619
O105  O     O_2   0.754683 0.672353 0.616709 -0.293935
O106  O     O_2   0.730264 0.775584 0.549251 -0.233611
O107  O     O_3   0.636362 0.641286 0.550118 -0.474235
H29   H     H_    0.612285 0.629683 0.584423 0.423552
S14   S     S_3+6 0.232180 0.269000 0.437479 0.111758
O108  O     O_2   0.209814 0.178996 0.449222 -0.160406
O109  O     O_2   0.220508 0.284001 0.381007 -0.296824
O110  O     O_3   0.334639 0.284176 0.451182 -0.495227
H30   H     H_    0.348908 0.339073 0.435311 0.352466
S15   S     S_3+6 0.299112 0.747303 0.562129 0.100445
O111  O     O_2   0.329030 0.658531 0.553650 -0.209557
O112  O     O_2   0.311773 0.770154 0.617538 -0.286180
O113  O     O_3   0.195555 0.753748 0.548714 -0.489008
H31   H     H_    0.166807 0.726511 0.578063 0.357656
S16   S     S_3+6 0.740466 0.223668 0.439226 0.122676
O114  O     O_2   0.829277 0.193601 0.447904 -0.192922
O115  O     O_2   0.720491 0.218814 0.382969 -0.281447
O116  O     O_3   0.732970 0.325311 0.456919 -0.489163
H32   H     H_    0.782435 0.353344 0.441177 0.370229

loop_
_geom_bond_atom_site_label_1
_geom_bond_atom_site_label_2
_ccdc_geom_bond_type
O42   Zn7   S    
S11   O101  S    
C99   H3    S    
O2    Zn6   S    
C97   H1    S    
C52   C100  S    
S15   O112  D    
O49   Zn7   S    
C79   S11   S    
C109  H13   S    
C5    C89   A    
O116  H32   S    
C8    C96   A    
C84   C87   A    
C20   O24   A    
O8    Zn9   S    
C111  O67   D    
C2    C12   S    
S4    O79   D    
O2    Zn15  S    
C109  O65   D    
S3    O77   S    
O32   Zn10  S    
S11   O99   D    
C63   C79   A    
S1    O69   D    
C68   S8    S    
C57   C105  S    
C99   O55   D    
S6    O86   S    
C16   O16   A    
C70   S2    S    
O39   Zn6   S    
C49   C65   A    
S2    O74   S    
C28   O38   A    
C21   O51   A    
C58   C106  S    
C65   S5    S    
C12   O8    A    
C61   C82   A    
C103  O59   D    
S14   O108  D    
O113  H31   S    
C25   C38   S    
C66   C69   A    
O35   Zn13  S    
C1    C81   A    
O10   Zn11  S    
C75   S15   S    
C24   O28   A    
S13   O107  S    
C57   C86   A    
O33   Zn15  S    
C52   C95   A    
C14   O14   A    
O86   H22   S    
C26   O30   A    
C32   C39   S    
O46   Zn4   S    
C89   C94   A    
C105  O61   D    
O13   Zn8   S    
C25   O29   A    
C100  H4    S    
O48   Zn2   S    
O14   Zn7   S    
O7    Zn10  S    
C61   C109  S    
C91   C96   A    
C59   C88   A    
C98   H2    S    
C27   O31   A    
O4    Zn9   S    
C56   C91   A    
C29   O33   A    
S3    O75   D    
C28   C35   S    
C61   C77   A    
O6    Zn15  S    
C6    C94   A    
S14   O110  S    
C1    C11   S    
O47   Zn1   S    
C31   O35   A    
C73   C78   A    
C76   C79   A    
C58   C74   A    
C108  H12   S    
C8    C92   A    
O1    Zn5   S    
C49   C94   A    
C31   O41   A    
C75   C80   A    
O31   Zn9   S    
C81   C86   A    
C52   C68   A    
S8    O92   S    
C60   C108  S    
C51   C96   A    
O4    Zn8   S    
C98   O54   D    
C83   C88   A    
C14   O18   A    
C19   O23   A    
C19   O45   A    
C63   C111  S    
C66   S6    S    
S15   O113  S    
C110  H14   S    
C64   C80   A    
O17   Zn4   S    
C64   C112  S    
O22   Zn11  S    
O37   Zn4   S    
O52   Zn6   S    
O18   Zn3   S    
C25   O39   A    
S8    O90   D    
C16   O20   A    
O23   Zn14  S    
S4    O78   D    
C60   C87   A    
C102  O58   D    
C22   O26   A    
C39   C42   T    
C100  O56   D    
O15   Zn2   S    
S1    O70   D    
O95   H25   S    
C1    C85   A    
C62   C78   A    
C29   O43   A    
S6    O85   D    
C30   O44   A    
S8    O91   D    
C3    C87   A    
C111  H15   S    
C27   O37   A    
O1    Zn12  S    
C20   O46   A    
C67   C72   A    
C77   S9    S    
C17   C46   S    
C54   C89   A    
O92   H24   S    
O83   H21   S    
C73   S13   S    
S9    O94   D    
C67   S7    S    
O89   H23   S    
S4    O80   S    
C23   O27   A    
C17   O21   A    
C101  O57   D    
C53   C69   A    
C30   O34   A    
O25   Zn16  S    
O3    Zn3   S    
C29   C34   S    
C60   C76   A    
C92   C95   A    
O4    Zn4   S    
O26   Zn15  S    
C21   C42   S    
O41   Zn8   S    
O3    Zn7   S    
S16   O115  D    
S10   O97   D    
C103  H7    S    
S16   O116  S    
C64   C83   A    
C32   O42   A    
O74   H18   S    
C3    C9    S    
C15   O15   A    
C22   C41   S    
O3    Zn14  S    
C23   O49   A    
S12   O104  S    
S2    O73   D    
C54   C70   A    
O11   Zn14  S    
C10   O6    A    
O1    Zn16  S    
C7    C91   A    
O28   Zn9   S    
C74   C77   A    
O29   Zn11  S    
S13   O105  D    
C78   S10   S    
C69   S1    S    
C36   C45   T    
C50   C93   A    
C51   C67   A    
O71   H17   S    
C50   C66   A    
C62   C110  S    
O20   Zn5   S    
O4    Zn13  S    
O24   Zn13  S    
C104  H8    S    
C31   C40   S    
C9    O5    A    
C40   C41   T    
O80   H20   S    
C55   C92   A    
C110  O66   D    
C49   C97   S    
C101  H5    S    
C112  O68   D    
C24   O50   A    
O19   Zn6   S    
C11   O11   A    
C27   C36   S    
C15   O19   A    
O2    Zn11  S    
C2    C82   A    
S10   O98   S    
C56   C104  S    
C104  O60   D    
C18   C45   S    
C59   C75   A    
C32   O36   A    
C20   C43   S    
C19   C44   S    
O45   Zn3   S    
C90   C93   A    
C12   O12   A    
O2    Zn2   S    
S1    O71   S    
O34   Zn16  S    
S11   O100  D    
O1    Zn1   S    
O104  H28   S    
S6    O84   D    
C74   S14   S    
S7    O89   S    
C8    C14   S    
C23   C48   S    
C30   C33   S    
C56   C72   A    
C80   S12   S    
C24   C47   S    
C57   C73   A    
C62   C81   A    
O5    Zn16  S    
C26   O40   A    
C4    C10   S    
S12   O103  D    
C108  O64   D    
C53   C101  S    
S9    O95   S    
C5    C93   A    
S3    O76   D    
C26   C37   S    
C18   O22   A    
C4    C88   A    
O27   Zn10  S    
O30   Zn12  S    
C13   O13   A    
C82   C85   A    
C7    C95   A    
O12   Zn13  S    
O43   Zn2   S    
C58   C85   A    
C63   C84   A    
C17   O47   A    
C59   C107  S    
S16   O114  D    
S15   O111  D    
C37   C44   T    
C18   O48   A    
S10   O96   D    
O110  H30   S    
C4    C84   A    
C38   C43   T    
C6    C90   A    
C106  H10   S    
C50   C98   S    
O40   Zn5   S    
O21   Zn12  S    
C13   O17   A    
S2    O72   D    
S9    O93   D    
C68   C71   A    
O38   Zn3   S    
C51   C99   S    
S13   O106  D    
C71   S3    S    
C54   C102  S    
C2    C86   A    
S14   O109  D    
C112  H16   S    
C21   O25   A    
C105  H9    S    
O51   Zn5   S    
S5    O83   S    
O36   Zn14  S    
C5    C15   S    
C10   O10   A    
O101  H27   S    
C6    C16   S    
C107  H11   S    
O9    Zn12  S    
C28   O32   A    
C7    C13   S    
C3    C83   A    
O107  H29   S    
C97   O53   D    
O77   H19   S    
C72   S4    S    
O3    Zn10  S    
S5    O82   D    
C53   C90   A    
O98   H26   S    
C33   C48   T    
C55   C103  S    
O16   Zn1   S    
C76   S16   S    
C11   O7    A    
C34   C47   T    
S7    O88   D    
O50   Zn8   S    
C65   C70   A    
C35   C46   T    
C9    O9    A    
O44   Zn1   S    
C22   O52   A    
C55   C71   A    
C102  H6    S    
S7    O87   D    
S5    O81   D    
C106  O62   D    
S12   O102  D    
C107  O63   D    
