data_mof_unit_5204.cif
_audit_creation_date              2013-03-05T15:56:44-0500
_audit_creation_method            fapswitch 2.2
_symmetry_space_group_name_H-M    P1
_symmetry_Int_Tables_number       1
_space_group_crystal_system       triclinic
_cell_length_a                    21.351208
_cell_length_b                    21.385266
_cell_length_c                    13.690172
_cell_angle_alpha                 89.842131
_cell_angle_beta                  88.551978
_cell_angle_gamma                 89.961756
_cell_volume                      6248.92880898

loop_
_atom_site_label
_atom_site_type_symbol
_atom_site_description
_atom_site_fract_x
_atom_site_fract_y
_atom_site_fract_z
_atom_type_partial_charge
O1    O     O_R   0.064880 0.435140 0.582280 -0.599406
O2    O     O_R   0.935120 0.564860 0.417720 -0.606522
O3    O     O_R   0.935120 0.564860 0.582280 -0.557193
O4    O     O_R   0.064880 0.435140 0.417720 -0.547940
O5    O     O_R   0.935120 0.435140 0.417720 -0.599798
O6    O     O_R   0.064880 0.564860 0.582280 -0.606051
O7    O     O_R   0.064880 0.564860 0.417720 -0.556161
O8    O     O_R   0.935120 0.435140 0.582280 -0.542728
O9    O     O_R   0.564880 0.935140 0.582280 -0.597028
O10   O     O_R   0.435120 0.064860 0.417720 -0.604720
O11   O     O_R   0.435120 0.064860 0.582280 -0.554897
O12   O     O_R   0.564880 0.935140 0.417720 -0.543559
O13   O     O_R   0.435120 0.935140 0.417720 -0.600961
O14   O     O_R   0.564880 0.064860 0.582280 -0.608384
O15   O     O_R   0.564880 0.064860 0.417720 -0.555513
O16   O     O_R   0.435120 0.935140 0.582280 -0.549851
C1    C     C_R   0.086455 0.415131 0.499244 0.833554
C2    C     C_R   0.913973 0.585519 0.500988 0.829847
C3    C     C_R   0.913898 0.414683 0.500920 0.837906
C4    C     C_R   0.085861 0.585674 0.498790 0.821562
C5    C     C_R   0.586411 0.915106 0.499231 0.836449
C6    C     C_R   0.414082 0.085602 0.501052 0.822763
C7    C     C_R   0.413595 0.915037 0.500879 0.833478
C8    C     C_R   0.585909 0.085685 0.498838 0.821557
Cu1   Cu    Cu3+1 0.000000 0.500000 0.597420 0.952413
Cu2   Cu    Cu3+1 0.000000 0.500000 0.402580 0.951574
Cu3   Cu    Cu3+1 0.500000 0.000000 0.597420 0.951633
Cu4   Cu    Cu3+1 0.500000 1.000000 0.402580 0.954073
C9    C     C_R   0.139664 0.672788 0.577611 -0.297201
C10   C     C_R   0.859336 0.328589 0.420410 -0.286243
C11   C     C_R   0.859338 0.672115 0.421012 -0.298495
C12   C     C_R   0.137613 0.325269 0.574474 -0.284585
C13   C     C_R   0.646904 0.165852 0.582647 -0.293133
C14   C     C_R   0.361920 0.825909 0.424900 -0.281679
C15   C     C_R   0.360930 0.173621 0.422671 -0.297445
C16   C     C_R   0.637765 0.825453 0.574689 -0.285489
C17   C     C_R   0.134008 0.634452 0.495948 -0.181137
C18   C     C_R   0.865614 0.366208 0.502808 -0.187877
C19   C     C_R   0.865430 0.633941 0.503184 -0.179247
C20   C     C_R   0.136361 0.368437 0.498063 -0.180796
C21   C     C_R   0.634907 0.133728 0.496373 -0.185827
C22   C     C_R   0.363796 0.868171 0.502199 -0.182458
C23   C     C_R   0.365853 0.134288 0.503650 -0.180378
C24   C     C_R   0.636178 0.868293 0.497879 -0.183555
C25   C     C_R   0.173387 0.643768 0.412576 0.421454
C26   C     C_R   0.825946 0.357431 0.585763 0.456872
C27   C     C_R   0.825926 0.642912 0.586364 0.424307
C28   C     C_R   0.182646 0.367186 0.422572 0.453966
C29   C     C_R   0.669684 0.147661 0.409639 0.423210
C30   C     C_R   0.318040 0.866016 0.578417 0.450670
C31   C     C_R   0.325721 0.142540 0.586341 0.420786
C32   C     C_R   0.681878 0.866520 0.421530 0.463698
C33   C     C_R   0.223270 0.687008 0.416765 -0.090785
C34   C     C_R   0.783532 0.306829 0.588568 -0.090413
C35   C     C_R   0.775865 0.685968 0.581879 -0.094106
C36   C     C_R   0.228276 0.319112 0.421048 -0.081909
C37   C     C_R   0.720484 0.189843 0.412979 -0.091628
C38   C     C_R   0.272423 0.817968 0.579744 -0.081084
C39   C     C_R   0.275904 0.185892 0.582029 -0.090459
C40   C     C_R   0.726829 0.817803 0.419129 -0.084001
C41   C     C_R   0.226222 0.727554 0.498332 -0.040495
C42   C     C_R   0.776175 0.270638 0.502879 -0.048956
C43   C     C_R   0.772798 0.726729 0.500201 -0.038457
C44   C     C_R   0.228228 0.275117 0.499104 -0.052057
C45   C     C_R   0.730028 0.223807 0.500190 -0.039721
C46   C     C_R   0.271800 0.774995 0.500748 -0.052274
C47   C     C_R   0.273718 0.227534 0.501348 -0.040437
C48   C     C_R   0.727420 0.774412 0.498044 -0.051694
C49   C     C_R   0.183579 0.720689 0.577655 0.069787
C50   C     C_R   0.814251 0.281879 0.419142 0.067592
C51   C     C_R   0.815173 0.719885 0.420634 0.071601
C52   C     C_R   0.183122 0.278986 0.575839 0.068459
C53   C     C_R   0.692809 0.211705 0.584468 0.068174
C54   C     C_R   0.316296 0.779771 0.423279 0.068160
C55   C     C_R   0.317009 0.221590 0.422728 0.070334
C56   C     C_R   0.683116 0.779040 0.575817 0.066863
C57   C     C_R   0.270271 0.690818 0.342104 0.487787
C58   C     C_R   0.748036 0.291465 0.674050 0.507406
C59   C     C_R   0.728894 0.689561 0.656597 0.483814
C60   C     C_R   0.274529 0.314318 0.345122 0.522698
C61   C     C_R   0.761949 0.199198 0.331777 0.485478
C62   C     C_R   0.226788 0.812268 0.656421 0.522812
C63   C     C_R   0.228196 0.188740 0.655670 0.489440
C64   C     C_R   0.771721 0.811761 0.341449 0.522380
C65   C     C_R   0.807499 0.245842 0.335172 -0.290530
C66   C     C_R   0.184916 0.761809 0.656389 -0.309366
C67   C     C_R   0.183149 0.235914 0.652681 -0.288149
C68   C     C_R   0.813342 0.760890 0.341373 -0.312240
C69   C     C_R   0.315484 0.737792 0.345357 -0.286969
C70   C     C_R   0.702239 0.244993 0.670393 -0.306452
C71   C     C_R   0.683786 0.736599 0.653507 -0.284460
C72   C     C_R   0.316335 0.263717 0.344866 -0.308060
H1    H     H_    0.108060 0.666794 0.640257 0.166592
H2    H     H_    0.889626 0.335834 0.356561 0.178127
H3    H     H_    0.890867 0.666188 0.358303 0.166078
H4    H     H_    0.102178 0.327153 0.632646 0.173023
H5    H     H_    0.619437 0.156048 0.648666 0.168880
H6    H     H_    0.396873 0.828454 0.366078 0.175158
H7    H     H_    0.393135 0.168355 0.360639 0.166260
H8    H     H_    0.602811 0.827797 0.633519 0.174903
H9    H     H_    0.837559 0.253895 0.271352 0.156815
H10   H     H_    0.152471 0.755301 0.717708 0.146047
H11   H     H_    0.147858 0.238536 0.710900 0.157363
H12   H     H_    0.845266 0.753875 0.279616 0.144672
H13   H     H_    0.350229 0.741167 0.286428 0.158881
H14   H     H_    0.674029 0.234953 0.735539 0.149584
H15   H     H_    0.649027 0.739702 0.712440 0.160473
H16   H     H_    0.349297 0.257914 0.284086 0.146892
C73   C     C_R   0.055495 0.500555 0.790915 0.057346
C74   C     C_R   0.944525 0.502533 0.209135 0.055128
C75   C     C_R   0.944437 0.500875 0.795302 0.075227
C76   C     C_R   0.055526 0.499022 0.204710 0.071246
C77   C     C_R   0.555088 0.007073 0.790914 0.056413
C78   C     C_R   0.444640 0.996203 0.209121 0.058027
C79   C     C_R   0.444724 0.994641 0.795364 0.070473
C80   C     C_R   0.555262 0.005828 0.204737 0.081921
N1    N     N_R   0.000000 0.500000 0.743810 -0.211746
N2    N     N_R   0.000000 0.500000 0.256190 -0.212356
N3    N     N_R   0.500000 1.000000 0.743810 -0.212275
N4    N     N_R   0.500000 1.000000 0.256190 -0.212986
C81   C     C_R   0.942823 0.502231 0.898611 -0.145197
C82   C     C_R   0.057081 0.500115 0.101417 -0.142944
C83   C     C_R   0.056994 0.501580 0.894002 -0.125681
C84   C     C_R   0.943007 0.503746 0.106043 -0.126280
C85   C     C_R   0.443105 0.995505 0.898657 -0.141064
C86   C     C_R   0.556698 0.007599 0.101448 -0.142186
C87   C     C_R   0.556464 0.008816 0.894013 -0.125387
C88   C     C_R   0.443078 0.997083 0.106064 -0.124381
C89   C     C_R   0.999931 0.501816 0.948206 -0.054548
C90   C     C_R   0.000004 0.501822 0.051819 -0.054374
C91   C     C_R   0.499831 0.002073 0.948227 -0.054501
C92   C     C_R   0.499891 0.002118 0.051840 -0.055600
C93   C     C_R   0.885750 0.504155 0.953131 0.361856
C94   C     C_R   0.114129 0.499705 0.046966 0.361801
C95   C     C_R   0.114072 0.503003 0.943728 0.385949
C96   C     C_R   0.886010 0.507476 0.056359 0.384628
C97   C     C_R   0.386336 0.990159 0.953209 0.363809
C98   C     C_R   0.613302 0.015062 0.047057 0.368286
C99   C     C_R   0.612856 0.018001 0.943761 0.389664
C100  C     C_R   0.386117 0.993674 0.056413 0.384459
H17   H     H_    0.098608 0.500224 0.747654 0.171575
H18   H     H_    0.901443 0.503656 0.252436 0.171993
H19   H     H_    0.901404 0.500932 0.755381 0.204508
H20   H     H_    0.098588 0.497758 0.244629 0.209472
H21   H     H_    0.597993 0.011489 0.747714 0.171723
H22   H     H_    0.401681 0.992530 0.252375 0.171705
H23   H     H_    0.401860 0.990135 0.755558 0.209819
H24   H     H_    0.598173 0.009387 0.244665 0.207556
O17   O     O_3   0.164174 0.609187 0.328846 -0.555660
C101  C     C_3   0.129366 0.645827 0.263411 -0.191569
H25   H     H_    0.154099 0.689897 0.242887 0.156410
H26   H     H_    0.081970 0.656919 0.294317 0.131685
H27   H     H_    0.123192 0.618816 0.195326 0.187349
O18   O     O_3   0.827836 0.399224 0.662621 -0.554270
C102  C     C_3   0.787471 0.449650 0.641926 -0.260728
H28   H     H_    0.737920 0.433827 0.638773 0.151417
H29   H     H_    0.801564 0.474011 0.572845 0.137134
H30   H     H_    0.790253 0.484487 0.701361 0.225421
O19   O     O_3   0.835289 0.608268 0.670324 -0.554302
C103  C     C_3   0.869469 0.645230 0.735819 -0.195289
H31   H     H_    0.844594 0.689416 0.755037 0.156320
H32   H     H_    0.917090 0.656160 0.705646 0.131577
H33   H     H_    0.875061 0.618597 0.804615 0.191027
O20   O     O_3   0.181743 0.411597 0.348921 -0.553932
C104  C     C_3   0.213362 0.465523 0.380555 -0.226824
H34   H     H_    0.260845 0.454535 0.407741 0.128834
H35   H     H_    0.185596 0.490554 0.437951 0.141516
H36   H     H_    0.219565 0.497514 0.317249 0.233578
O21   O     O_3   0.655071 0.118707 0.322831 -0.545717
C105  C     C_3   0.615180 0.158711 0.270469 -0.184444
H37   H     H_    0.638003 0.204268 0.252892 0.155870
H38   H     H_    0.570172 0.166940 0.311181 0.126089
H39   H     H_    0.604119 0.136072 0.200203 0.184134
O22   O     O_3   0.319296 0.909658 0.652748 -0.554230
C106  C     C_3   0.286866 0.963656 0.622813 -0.215554
H40   H     H_    0.239344 0.952587 0.595978 0.124865
H41   H     H_    0.314063 0.989659 0.565637 0.141664
H42   H     H_    0.280618 0.994741 0.686954 0.237723
O23   O     O_3   0.334014 0.106608 0.669280 -0.559343
C107  C     C_3   0.367948 0.142107 0.736937 -0.190333
H43   H     H_    0.342549 0.185459 0.758987 0.158506
H44   H     H_    0.415410 0.154360 0.707413 0.135471
H45   H     H_    0.373985 0.113625 0.803854 0.183787
O24   O     O_3   0.681078 0.911213 0.348201 -0.545711
C108  C     C_3   0.713207 0.964794 0.380127 -0.256650
H46   H     H_    0.762396 0.953701 0.398937 0.140310
H47   H     H_    0.688603 0.987161 0.443480 0.133931
H48   H     H_    0.714761 0.999426 0.319756 0.216241
O25   O     O_3   0.271729 0.649777 0.264206 -0.540769
C109  C     C_3   0.315748 0.602354 0.283155 -0.275787
H49   H     H_    0.305260 0.578374 0.354034 0.138048
H50   H     H_    0.364258 0.621332 0.282035 0.143144
H51   H     H_    0.313246 0.566679 0.224697 0.190893
O26   O     O_3   0.756744 0.322306 0.761285 -0.559207
C110  C     C_3   0.792749 0.283615 0.821927 -0.317305
H52   H     H_    0.840246 0.275455 0.788973 0.169698
H53   H     H_    0.769038 0.238249 0.837913 0.147042
H54   H     H_    0.798671 0.307387 0.892935 0.173815
O27   O     O_3   0.727260 0.648393 0.734652 -0.542189
C111  C     C_3   0.687805 0.597999 0.711506 -0.254269
H55   H     H_    0.704419 0.573595 0.643902 0.145676
H56   H     H_    0.638509 0.613847 0.703863 0.137637
H57   H     H_    0.688629 0.563527 0.772173 0.192977
O28   O     O_3   0.276354 0.356999 0.268593 -0.551255
C112  C     C_3   0.336267 0.385058 0.260432 -0.371469
H58   H     H_    0.368639 0.355513 0.215657 0.169058
H59   H     H_    0.356781 0.395067 0.332849 0.148196
H60   H     H_    0.331890 0.430578 0.222280 0.176466
O29   O     O_3   0.757110 0.164574 0.247168 -0.540322
C113  C     C_3   0.801316 0.115612 0.249378 -0.258845
H61   H     H_    0.794919 0.086080 0.316025 0.137191
H62   H     H_    0.849998 0.134072 0.244379 0.133340
H63   H     H_    0.794398 0.085146 0.185102 0.199507
O30   O     O_3   0.225890 0.853734 0.734134 -0.553956
C114  C     C_3   0.166147 0.881875 0.745009 -0.377788
H64   H     H_    0.134465 0.851961 0.790588 0.167657
H65   H     H_    0.144447 0.892663 0.673654 0.147856
H66   H     H_    0.171333 0.927002 0.783698 0.182316
O31   O     O_3   0.225788 0.146491 0.732306 -0.542739
C115  C     C_3   0.182436 0.099193 0.710185 -0.285247
H67   H     H_    0.194622 0.075985 0.639469 0.140857
H68   H     H_    0.133884 0.118043 0.708971 0.142180
H69   H     H_    0.183764 0.062923 0.768197 0.188904
O32   O     O_3   0.771864 0.853210 0.263118 -0.539339
C116  C     C_3   0.832402 0.878651 0.246910 -0.358396
H70   H     H_    0.861479 0.847087 0.200128 0.164555
H71   H     H_    0.856574 0.889171 0.316225 0.143724
H72   H     H_    0.828128 0.923479 0.207029 0.171624
O33   O     O_3   0.829364 0.506683 0.905797 -0.583557
C117  C     C_3   0.804201 0.445828 0.903653 -0.227661
H73   H     H_    0.794953 0.427000 0.978477 0.178081
H74   H     H_    0.835753 0.413772 0.861599 0.193593
H75   H     H_    0.758679 0.447499 0.866479 0.202806
O34   O     O_3   0.170472 0.500044 0.094394 -0.585981
C118  C     C_3   0.192828 0.438134 0.098659 -0.194003
H76   H     H_    0.200004 0.417643 0.024573 0.171643
H77   H     H_    0.160889 0.408071 0.143892 0.184485
H78   H     H_    0.238942 0.438753 0.133524 0.216863
O35   O     O_3   0.170433 0.504305 0.891712 -0.580193
C119  C     C_3   0.189206 0.567200 0.880802 -0.290379
H79   H     H_    0.197590 0.589268 0.952843 0.195713
H80   H     H_    0.154262 0.594832 0.839755 0.135696
H81   H     H_    0.233999 0.568506 0.838005 0.189317
O36   O     O_3   0.829791 0.511202 0.108452 -0.580899
C120  C     C_3   0.813733 0.574852 0.118874 -0.285020
H82   H     H_    0.806302 0.597341 0.046657 0.195035
H83   H     H_    0.849826 0.600881 0.159713 0.133803
H84   H     H_    0.769040 0.578084 0.161663 0.190759
O37   O     O_3   0.330164 0.984944 0.906029 -0.587189
C121  C     C_3   0.313082 0.921317 0.904819 -0.187802
H85   H     H_    0.312979 0.899577 0.978842 0.162786
H86   H     H_    0.344350 0.894592 0.853842 0.186397
H87   H     H_    0.264666 0.918017 0.878702 0.224856
O38   O     O_3   0.668765 0.024572 0.094699 -0.577957
C122  C     C_3   0.700639 0.967041 0.100043 -0.219776
H88   H     H_    0.713122 0.948596 0.026176 0.181499
H89   H     H_    0.672824 0.931857 0.142632 0.197262
H90   H     H_    0.744872 0.974911 0.138506 0.178533
O39   O     O_3   0.668492 0.027190 0.891756 -0.578257
C123  C     C_3   0.677782 0.092092 0.879818 -0.308364
H91   H     H_    0.683007 0.115724 0.951486 0.197047
H92   H     H_    0.639069 0.113998 0.838756 0.132767
H93   H     H_    0.721778 0.099653 0.836566 0.184875
O40   O     O_3   0.329879 0.990166 0.108519 -0.580679
C124  C     C_3   0.305386 0.051148 0.118180 -0.294110
H94   H     H_    0.294888 0.071862 0.045726 0.196366
H95   H     H_    0.337701 0.082122 0.158443 0.138579
H96   H     H_    0.260719 0.048653 0.161176 0.186860

loop_
_geom_bond_atom_site_label_1
_geom_bond_atom_site_label_2
_geom_bond_distance
_ccdc_geom_bond_type
C68   H12   1.083215 S    
C63   C67   1.394624 A    
C122  H89   1.113311 S    
C104  H34   1.113479 S    
C8    C21   1.466497 S    
O5    Cu2   1.967816 S    
C75   C81   1.414242 A    
O21   C105  1.413383 S    
C61   O29   1.382568 S    
O35   C119  1.410192 S    
C14   C22   1.394911 A    
C2    C19   1.464451 S    
C44   C52   1.409669 A    
C23   C31   1.413782 A    
O32   C116  1.414825 S    
C74   N2    1.363494 A    
C115  H68   1.112528 S    
C108  H46   1.112915 S    
C45   C53   1.407827 A    
C106  H41   1.110938 S    
C27   O19   1.384471 S    
C112  H58   1.110321 S    
O10   C6    1.294857 A    
C57   C69   1.395244 A    
O37   C121  1.409186 S    
C109  H49   1.114061 S    
C7    C22   1.461414 S    
C32   C40   1.415930 A    
O12   Cu4   1.973876 S    
C54   C69   1.396579 A    
C27   C35   1.412712 A    
O20   C104  1.411314 S    
C39   C63   1.416349 A    
C53   C70   1.395651 A    
C35   C59   1.416515 A    
C38   C62   1.419126 A    
C15   H7    1.085165 S    
C108  H47   1.111721 S    
O6    Cu1   1.967813 S    
C102  H29   1.113299 S    
C105  H37   1.112626 S    
O14   C8    1.294762 A    
C46   C54   1.409416 A    
C77   C87   1.413086 A    
C79   H23   1.081408 S    
C122  H88   1.112523 S    
C116  H72   1.106781 S    
C29   C37   1.412920 A    
O24   C108  1.411930 S    
O13   C7    1.289670 A    
C117  H75   1.108970 S    
C20   C28   1.412056 A    
C58   O26   1.382582 S    
C77   H21   1.081819 S    
C74   H18   1.081952 S    
O22   C106  1.411215 S    
C82   C94   1.411920 A    
C16   C56   1.386516 A    
C109  H51   1.109480 S    
C74   C84   1.412702 A    
C77   N3    1.364278 A    
C33   C41   1.418358 A    
C41   C46   1.407294 A    
C38   C46   1.421446 A    
O19   C103  1.413886 S    
C107  H44   1.112652 S    
C111  H55   1.113823 S    
C101  H27   1.108657 S    
C99   O39   1.383255 S    
C93   C96   1.415330 A    
C118  H76   1.112977 S    
C36   C44   1.421804 A    
O13   Cu4   1.967816 S    
O11   Cu3   1.973876 S    
O14   Cu3   1.967813 S    
C15   C23   1.395788 A    
C124  H94   1.113101 S    
C59   C71   1.393494 A    
C107  H45   1.108889 S    
C75   H19   1.080855 S    
C110  H54   1.108355 S    
C39   C47   1.418568 A    
C24   C32   1.412313 A    
O16   Cu3   1.975979 S    
C11   C51   1.389891 A    
O26   C110  1.411556 S    
C122  H90   1.106048 S    
C25   C33   1.413291 A    
O27   C111  1.409987 S    
C104  H35   1.110744 S    
C62   O30   1.386633 S    
C120  H82   1.113155 S    
C83   C89   1.410462 A    
C102  H30   1.107458 S    
O1    Cu1   1.967316 S    
O8    Cu1   1.975979 S    
C118  H77   1.113067 S    
C42   C50   1.408730 A    
O25   C109  1.410219 S    
C87   C99   1.412312 A    
C123  H93   1.109372 S    
C31   O23   1.384291 S    
C88   C92   1.410076 A    
C21   C29   1.415570 A    
O3    C2    1.288410 A    
C10   C50   1.388143 A    
O33   C117  1.408926 S    
C72   H16   1.083487 S    
C61   C65   1.395292 A    
O29   C113  1.409972 S    
C106  H42   1.108129 S    
C9    C49   1.389165 A    
C112  H59   1.115240 S    
O36   C120  1.410208 S    
C26   O18   1.383799 S    
C97   C100  1.414965 A    
O8    C3    1.290652 A    
C59   O27   1.382431 S    
C78   C88   1.412184 A    
C84   C96   1.411169 A    
C73   N1    1.363309 A    
C30   C38   1.416010 A    
C103  H33   1.108293 S    
C32   O24   1.384609 S    
O3    Cu1   1.973876 S    
C13   C21   1.397347 A    
C78   H22   1.081899 S    
C12   C52   1.386959 A    
Cu4   N4    2.004104 S    
C114  H66   1.109076 S    
C37   C45   1.418380 A    
O31   C115  1.410205 S    
C80   H24   1.081505 S    
C96   O36   1.383007 S    
O30   C114  1.414666 S    
O40   C124  1.410055 S    
C108  H48   1.108143 S    
C34   C42   1.419276 A    
C85   C97   1.412071 A    
C121  H85   1.113740 S    
C62   C66   1.401781 A    
O12   C5    1.289627 A    
C119  H81   1.109216 S    
C58   C70   1.396551 A    
O23   C107  1.413400 S    
C35   C43   1.418697 A    
C1    C20   1.459669 S    
C103  H32   1.112492 S    
C60   C72   1.402248 A    
C33   C57   1.416436 A    
C114  H64   1.110512 S    
C44   C47   1.407034 A    
C76   C82   1.413775 A    
O38   C122  1.408221 S    
C106  H40   1.113614 S    
C3    C18   1.462189 S    
C71   H15   1.084472 S    
C76   N2    1.364004 A    
C5    C24   1.459233 S    
C63   O31   1.382679 S    
C85   C91   1.410488 A    
C97   O37   1.381220 S    
C6    C23   1.463758 S    
C86   C92   1.410087 A    
C22   C30   1.411946 A    
C15   C55   1.389408 A    
C26   C34   1.411353 A    
C123  H92   1.113652 S    
C119  H80   1.113722 S    
C116  H70   1.110395 S    
C94   O34   1.381434 S    
C84   C90   1.410031 A    
C101  H26   1.112626 S    
O2    Cu2   1.967316 S    
C117  H74   1.112302 S    
C51   C68   1.394548 A    
O7    Cu2   1.975976 S    
C70   H14   1.084559 S    
O18   C102  1.412573 S    
C55   C72   1.394094 A    
C14   C54   1.387583 A    
O5    C3    1.290547 A    
O4    C1    1.289970 A    
C13   C53   1.387616 A    
O15   C8    1.288948 A    
C12   H4    1.085333 S    
C43   C51   1.406225 A    
O7    C4    1.287901 A    
O16   C7    1.291001 A    
C79   N3    1.364484 A    
C120  H83   1.113722 S    
C64   O32   1.389339 S    
C9    C17   1.395915 A    
C118  H78   1.105073 S    
C67   H11   1.084428 S    
C16   C24   1.393791 A    
C31   C39   1.412768 A    
O34   C118  1.408626 S    
C17   C25   1.414153 A    
O39   C123  1.410636 S    
C66   H10   1.083538 S    
C29   O21   1.384246 S    
Cu3   Cu4   2.667392 S    
C52   C67   1.396355 A    
C65   H9    1.084405 S    
C107  H43   1.112354 S    
O9    Cu3   1.967316 S    
C19   C27   1.413295 A    
C89   C90   1.418526 A    
C112  H60   1.108470 S    
O10   Cu4   1.967316 S    
C28   C36   1.415723 A    
C43   C48   1.406900 A    
C86   C98   1.412331 A    
C109  H50   1.112423 S    
C42   C45   1.406591 A    
C73   H17   1.081963 S    
C124  H96   1.109223 S    
O1    C1    1.289761 A    
C73   C83   1.412690 A    
Cu2   N2    2.004104 S    
C14   H6    1.085273 S    
C81   C89   1.410545 A    
O2    C2    1.294238 A    
C10   C18   1.396595 A    
Cu1   N1    2.004104 S    
O4    Cu2   1.973876 S    
C16   H8    1.085336 S    
C94   C95   1.414945 A    
C28   O20   1.383737 S    
Cu3   N3    2.004104 S    
C48   C56   1.409894 A    
C113  H63   1.109268 S    
O6    C4    1.294919 A    
O11   C6    1.287393 A    
C113  H62   1.112525 S    
C104  H36   1.108047 S    
C36   C60   1.419430 A    
C30   O22   1.383456 S    
C75   N1    1.364726 A    
C41   C49   1.406834 A    
C103  H31   1.112580 S    
C76   H20   1.081669 S    
C87   C91   1.409990 A    
C114  H65   1.115196 S    
Cu1   Cu2   2.667392 S    
C57   O25   1.382745 S    
C10   H2    1.084966 S    
C124  H95   1.113768 S    
O17   C101  1.413443 S    
C123  H91   1.113038 S    
C9    H1    1.085149 S    
C4    C17   1.464803 S    
C40   C64   1.419663 A    
O9    C5    1.289793 A    
O15   Cu4   1.975976 S    
C60   O28   1.387448 S    
C64   C68   1.404227 A    
C105  H38   1.112805 S    
C83   C95   1.411256 A    
C121  H87   1.104689 S    
C111  H57   1.109455 S    
C11   H3    1.085134 S    
C79   C85   1.413819 A    
C119  H79   1.113138 S    
C116  H71   1.115139 S    
C34   C58   1.416077 A    
C95   O35   1.382964 S    
C115  H67   1.113998 S    
C25   O17   1.384125 S    
C12   C20   1.394025 A    
C88   C100  1.410186 A    
C117  H73   1.112664 S    
C37   C61   1.417352 A    
C93   O33   1.382533 S    
C18   C26   1.411641 A    
C98   C99   1.415626 A    
C56   C71   1.396634 A    
C110  H52   1.113322 S    
C80   N4    1.364411 A    
C47   C55   1.406883 A    
O28   C112  1.415048 S    
C40   C48   1.422512 A    
C111  H56   1.112897 S    
C113  H61   1.113845 S    
C100  O40   1.383050 S    
C120  H84   1.109230 S    
C69   H13   1.084401 S    
C102  H28   1.112884 S    
C11   C19   1.396800 A    
C101  H25   1.112545 S    
C80   C86   1.414004 A    
C13   H5    1.084941 S    
C81   C93   1.413453 A    
C98   O38   1.381728 S    
C50   C65   1.396280 A    
C121  H86   1.112436 S    
C82   C90   1.410366 A    
C115  H69   1.109439 S    
C78   N4    1.363032 A    
C49   C66   1.393820 A    
C91   C92   1.418516 A    
C110  H53   1.113251 S    
C105  H39   1.108918 S    
