data_mof_unit_26582.cif
_audit_creation_date              2012-12-10T20:28:44-0500
_audit_creation_method            fapswitch 2.2
_symmetry_space_group_name_H-M    P1
_symmetry_Int_Tables_number       1
_space_group_crystal_system       triclinic
_cell_length_a                    10.639113
_cell_length_b                    10.685466
_cell_length_c                    9.860689
_cell_angle_alpha                 90.341135
_cell_angle_beta                  89.941787
_cell_angle_gamma                 89.728159
_cell_volume                      1120.96828988

loop_
_atom_site_label
_atom_site_type_symbol
_atom_type_description
_atom_site_fract_x
_atom_site_fract_y
_atom_site_fract_z
_atom_type_partial_charge
C1    C     C_R   0.499344 0.260369 0.499458 0.892120
C2    C     C_R   0.438563 0.937290 0.387292 -0.027459
C3    C     C_R   0.493003 0.871971 0.497339 -0.146340
C4    C     C_R   0.260726 0.504497 0.500268 0.884482
C5    C     C_R   0.560884 0.935318 0.596516 0.100491
C6    C     C_3   0.548957 0.930378 0.747534 -0.487250
C7    C     C_3   0.553333 0.072052 0.747264 -0.466713
C8    C     C_R   0.431358 0.413680 0.070778 0.219124
C9    C     C_R   0.577062 0.576974 0.072406 -0.120136
C10   C     C_R   0.576989 0.577079 0.928354 -0.146672
C11   C     C_R   0.431150 0.413901 0.928256 0.214552
C12   C     C_R   0.063896 0.609273 0.563959 0.093409
C13   C     C_3   0.292119 0.397747 0.922879 -0.505394
C14   C     C_3   0.292485 0.396755 0.076897 -0.515611
C15   C     C_R   0.494606 0.739675 0.499905 0.855935
C16   C     C_R   0.739597 0.499211 0.499811 0.887902
C17   C     C_R   0.126516 0.710440 0.627582 -0.208904
C18   C     C_R   0.058720 0.810066 0.683498 -0.155744
C19   C     C_R   0.928232 0.811352 0.675995 -0.143675
C20   C     C_R   0.865171 0.711994 0.614570 -0.177232
C21   C     C_R   0.932438 0.608402 0.559869 0.058562
C22   C     C_3   0.878021 0.286975 0.382633 -0.410553
C23   C     C_R   0.128727 0.509764 0.500909 -0.136893
C24   C     C_3   0.843660 0.197420 0.496626 -0.866347
C25   C     C_R   0.359982 0.875592 0.282840 0.155033
C26   C     C_R   0.406695 0.854423 0.151451 -0.119814
C27   C     C_R   0.333237 0.791168 0.055603 -0.137688
C28   C     C_R   0.212803 0.750228 0.089804 -0.129650
C29   C     C_R   0.165321 0.772566 0.219948 -0.122108
C30   C     C_R   0.238454 0.835549 0.315983 -0.161691
C31   C     C_R   0.068277 0.410611 0.437859 -0.253674
C32   C     C_R   0.939372 0.404476 0.438873 0.156199
C33   C     C_R   0.872192 0.504256 0.499430 -0.138100
C34   C     C_R   0.564206 0.062882 0.596537 0.111187
C35   C     C_R   0.501961 0.128701 0.495817 -0.106443
C36   C     C_R   0.446108 0.066420 0.386417 -0.275525
H1    H     H_    0.122763 0.334880 0.392678 0.145122
H2    H     H_    0.266488 0.304595 0.120184 0.191924
H3    H     H_    0.227893 0.715223 0.632236 0.144208
H4    H     H_    0.107724 0.887316 0.730946 0.135043
H5    H     H_    0.875666 0.889751 0.717400 0.133281
H6    H     H_    0.763898 0.718209 0.609478 0.145298
H7    H     H_    0.399964 0.118248 0.306119 0.164063
H8    H     H_    0.456662 0.893125 0.780560 0.203713
H9    H     H_    0.800222 0.111958 0.452958 0.249246
H10   H     H_    0.929284 0.169509 0.553544 0.258819
H11   H     H_    0.775931 0.242068 0.567815 0.258005
H12   H     H_    0.632378 0.886529 0.796038 0.189430
H13   H     H_    0.793724 0.309280 0.321312 0.227523
H14   H     H_    0.943291 0.237062 0.312405 0.199392
H15   H     H_    0.500410 0.884593 0.124319 0.118505
H16   H     H_    0.369932 0.772447 0.955252 0.129820
H17   H     H_    0.156455 0.701007 0.015516 0.131119
H18   H     H_    0.071998 0.740994 0.246520 0.135843
H19   H     H_    0.200612 0.853759 0.415918 0.129560
H20   H     H_    0.463897 0.116515 0.781405 0.208932
H21   H     H_    0.639913 0.110409 0.794517 0.198391
H22   H     H_    0.636976 0.641272 0.127137 0.145269
H23   H     H_    0.636945 0.641347 0.874305 0.146411
H24   H     H_    0.242857 0.480512 0.879882 0.222856
H25   H     H_    0.265338 0.306329 0.877245 0.197906
H26   H     H_    0.242875 0.478399 0.122776 0.231505
N1    N     N_R   0.499160 0.499140 0.142800 -0.102156
N2    N     N_R   0.499160 0.499180 0.857150 -0.107600
O1    O     O_R   0.500020 0.316790 0.614690 -0.619286
O2    O     O_R   0.500000 0.316760 0.385350 -0.624287
O3    O     O_R   0.316770 0.500020 0.614690 -0.626903
O4    O     O_R   0.316760 0.499980 0.385350 -0.612900
O5    O     O_R   0.500000 0.683240 0.614650 -0.634941
O6    O     O_R   0.499980 0.683210 0.385310 -0.605692
O7    O     O_R   0.683240 0.500020 0.614650 -0.618998
O8    O     O_R   0.683230 0.499980 0.385310 -0.629980
Zn1   Zn    Zn3+2 0.500010 0.500020 0.653130 0.927554
Zn2   Zn    Zn3+2 0.499990 0.499980 0.346870 0.944627

loop_
_geom_bond_atom_site_label_1
_geom_bond_atom_site_label_2
_ccdc_geom_bond_type
C35   C36   A    
C16   O8    A    
C13   H24   S    
C12   C23   A    
C26   C27   A    
C22   C32   S    
C24   H9    S    
C28   C29   A    
C9    H22   S    
C5    C6    S    
C21   C33   A    
C29   H18   S    
O4    Zn2   S    
O2    Zn2   S    
O1    Zn1   S    
C34   C35   A    
C17   H3    S    
C18   H4    S    
C19   C20   A    
C12   C17   A    
O6    Zn2   S    
C1    O1    A    
N2    Zn1   S    
O5    Zn1   S    
O3    Zn1   S    
C9    C10   A    
C22   H14   S    
C6    H8    S    
C13   C14   S    
C16   O7    A    
C7    H20   S    
C1    O2    A    
C15   O5    A    
O8    Zn2   S    
C11   N2    A    
O7    Zn1   S    
C4    C23   S    
C18   C19   A    
C25   C26   A    
C12   C21   A    
C31   H1    S    
C23   C31   A    
C29   C30   A    
C16   C33   S    
C14   H2    S    
C31   C32   A    
C5    C34   A    
C17   C18   A    
C6    H12   S    
C22   H13   S    
C7    C34   S    
C22   C24   S    
C3    C15   S    
C27   H16   S    
C1    C35   S    
C4    O4    A    
C2    C36   A    
C25   C30   A    
C15   O6    A    
C8    C14   S    
C9    N1    A    
C24   H11   S    
C10   N2    A    
C3    C5    A    
C4    O3    A    
C20   H6    S    
C28   H17   S    
C6    C7    S    
N1    Zn2   S    
C30   H19   S    
C24   H10   S    
C32   C33   A    
C2    C3    A    
C26   H15   S    
C11   C13   S    
C8    C11   A    
C10   H23   S    
C2    C25   S    
C8    N1    A    
C13   H25   S    
C20   C21   A    
C27   C28   A    
C36   H7    S    
C7    H21   S    
C19   H5    S    
C14   H26   S    
