data_mof_unit_34573.cif
_audit_creation_date              2013-03-05T16:18:22-0500
_audit_creation_method            fapswitch 2.2
_symmetry_space_group_name_H-M    P1
_symmetry_Int_Tables_number       1
_space_group_crystal_system       triclinic
_cell_length_a                    10.786371
_cell_length_b                    10.254206
_cell_length_c                    10.612939
_cell_angle_alpha                 91.301369
_cell_angle_beta                  92.872292
_cell_angle_gamma                 90.476889
_cell_volume                      1172.02151578

loop_
_atom_site_label
_atom_site_type_symbol
_atom_site_description
_atom_site_fract_x
_atom_site_fract_y
_atom_site_fract_z
_atom_type_partial_charge
O1    O     O_R   0.314910 0.616040 0.499970 -0.566157
O2    O     O_R   0.314910 0.383960 0.499970 -0.559300
C1    C     C_R   0.259529 0.499367 0.498608 0.851248
O3    O     O_R   0.500080 0.616020 0.313900 -0.562789
O4    O     O_R   0.500080 0.383980 0.313900 -0.558377
C2    C     C_R   0.482399 0.498572 0.260549 0.928685
Zn1   Zn    Zn3+2 0.500150 0.654960 0.499940 1.091881
Zn2   Zn    Zn3+2 0.500150 0.345040 0.499940 1.099368
O5    O     O_R   0.685320 0.616040 0.499930 -0.569802
O6    O     O_R   0.685320 0.383960 0.499930 -0.569508
O7    O     O_R   0.500150 0.616060 0.686000 -0.581160
O8    O     O_R   0.500150 0.383940 0.686000 -0.577140
C3    C     C_R   0.741613 0.500368 0.507541 0.920710
C4    C     C_R   0.502115 0.500916 0.742019 0.953016
C5    C     C_3   0.404577 0.591610 0.035487 0.249383
C6    C     C_3   0.433141 0.384445 0.032441 0.268275
C7    C     C_3   0.369469 0.480209 0.940201 -0.209554
H1    H     H_    0.277822 0.465688 0.889145 0.213043
C8    C     C_3   0.495653 0.500972 0.879060 -0.190977
C9    C     C_3   0.527314 0.614849 0.973386 -0.114784
C10   C     C_3   0.557152 0.401258 0.970223 -0.119672
C11   C     C_3   0.591344 0.516261 0.062782 -0.295673
C12   C     C_3   0.467331 0.495871 0.125144 -0.216098
H2    H     H_    0.683125 0.531363 0.113807 0.232779
C13   C     C_3   0.077642 0.635061 0.538921 -0.348633
C14   C     C_3   0.082198 0.403426 0.603759 -0.374135
H3    H     H_    0.095858 0.703517 0.461845 0.260719
H4    H     H_    0.117901 0.305122 0.586193 0.275221
H5    H     H_    0.133205 0.667944 0.624144 0.265146
H6    H     H_    0.124645 0.438440 0.696018 0.222054
C15   C     C_3   0.938131 0.634072 0.561594 -0.211428
C16   C     C_3   0.939323 0.391739 0.601888 -0.241678
H7    H     H_    0.898870 0.709294 0.499002 0.244981
H8    H     H_    0.916590 0.297039 0.556111 0.214531
H9    H     H_    0.097026 0.520449 0.298040 0.231353
H10   H     H_    0.085592 0.355279 0.348924 0.265893
H11   H     H_    0.888720 0.551772 0.314989 0.221859
H12   H     H_    0.876127 0.380088 0.338374 0.259566
C17   C     C_3   0.062065 0.457900 0.373099 -0.320746
C18   C     C_3   0.123009 0.498160 0.502524 -0.008653
C19   C     C_3   0.880819 0.499862 0.515031 -0.052269
C20   C     C_3   0.920348 0.471492 0.377442 -0.399418
C21   C     C_3   0.370835 0.081654 0.522829 0.302865
C22   C     C_3   0.366474 0.919524 0.494069 0.272039
H13   H     H_    0.451247 0.074459 0.306911 0.175429
H14   H     H_    0.500413 0.873028 0.296596 0.181891
C23   C     C_3   0.533368 0.069736 0.371265 0.087993
C24   C     C_3   0.553936 0.915060 0.380200 0.070038
C25   C     C_3   0.583721 0.083190 0.598658 -0.311515
C26   C     C_3   0.567896 0.928558 0.609506 -0.303549
N1    N     N_3   0.499750 0.138610 0.497240 -0.222316
N2    N     N_3   0.499750 0.861390 0.497240 -0.224959
H15   H     H_    0.556455 0.127177 0.688168 0.235852
H16   H     H_    0.513385 0.913104 0.691540 0.253206
N3    N     N_R   0.271944 0.142553 0.442711 0.234629
O9    O     O_R   0.156222 0.116075 0.461910 -0.306070
O10   O     O_R   0.295458 0.209029 0.343433 -0.331159
N4    N     N_R   0.300907 0.882610 0.368717 0.184329
O11   O     O_R   0.294912 0.761893 0.331236 -0.338613
O12   O     O_R   0.257670 0.964530 0.286379 -0.239722
N5    N     N_R   0.339824 0.116937 0.656336 0.227094
O13   O     O_R   0.353249 0.038720 0.750636 -0.254656
O14   O     O_R   0.305734 0.234301 0.684825 -0.361569
N6    N     N_R   0.289013 0.862031 0.589622 0.234325
O15   O     O_R   0.334097 0.789270 0.679076 -0.323002
O16   O     O_R   0.174549 0.900044 0.595726 -0.306007
C27   C     C_2   0.718800 0.126066 0.601725 1.049534
O17   O     O_2   0.773686 0.137523 0.505940 -0.525012
O18   O     O_R   0.786989 0.126298 0.717249 -0.785776
H17   H     H_    0.880024 0.126419 0.707509 0.362507
C28   C     C_2   0.687785 0.870946 0.655706 1.064024
O19   O     O_2   0.769197 0.852511 0.583683 -0.598887
O20   O     O_R   0.718730 0.880212 0.784634 -0.795783
H18   H     H_    0.811335 0.881285 0.805628 0.386607
N7    N     N_R   0.624230 0.130090 0.290250 0.297691
O21   O     O_R   0.637916 0.077251 0.179183 -0.334203
O22   O     O_R   0.681545 0.239161 0.315561 -0.300698
N8    N     N_R   0.680615 0.867947 0.356581 0.279827
O23   O     O_R   0.692628 0.757312 0.296644 -0.345975
O24   O     O_R   0.776345 0.945756 0.359565 -0.223276
N9    N     N_R   0.311879 0.686272 0.071544 0.261605
O25   O     O_R   0.332285 0.810827 0.063687 -0.219785
O26   O     O_R   0.203207 0.645232 0.102003 -0.321014
N10   N     N_R   0.367048 0.266616 0.066527 0.262290
O27   O     O_R   0.415609 0.152001 0.053299 -0.230898
O28   O     O_R   0.251690 0.275345 0.095685 -0.279264
C29   C     C_2   0.578083 0.749329 0.962916 1.063943
O29   O     O_2   0.517120 0.830928 0.906186 -0.493559
O30   O     O_R   0.690104 0.783735 0.027510 -0.745382
H19   H     H_    0.709716 0.880325 0.024269 0.401805
C30   C     C_2   0.644261 0.289203 0.958990 1.131108
O31   O     O_2   0.748017 0.296195 0.010529 -0.585967
O32   O     O_R   0.602613 0.172663 0.901425 -0.713162
H20   H     H_    0.664345 0.099587 0.913631 0.401376
C31   C     C_2   0.913596 0.667348 0.699980 0.972719
O33   O     O_2   0.992368 0.722286 0.769774 -0.534257
O34   O     O_R   0.799178 0.635578 0.747995 -0.811260
H21   H     H_    0.798952 0.647807 0.843008 0.365784
C32   C     C_2   0.893105 0.387486 0.734836 0.954414
O35   O     O_2   0.781857 0.380336 0.749852 -0.619486
O36   O     O_R   0.976327 0.392389 0.840531 -0.747230
H22   H     H_    0.933822 0.397569 0.923318 0.397327

loop_
_geom_bond_atom_site_label_1
_geom_bond_atom_site_label_2
_geom_bond_distance
_ccdc_geom_bond_type
C13   C15   1.535779 S    
C29   O29   1.219575 D    
C14   C16   1.543856 S    
O32   H20   1.012785 S    
C19   C20   1.563280 S    
C31   O33   1.223914 D    
N3    O9    1.302181 A    
C21   N1    1.542705 S    
C3    C19   1.499707 S    
N9    O25   1.299489 A    
C5    N9    1.458099 S    
C22   N6    1.475783 S    
Zn1   O7    2.023391 S    
C26   H16   1.088507 S    
C8    C10   1.553547 S    
N10   O28   1.300467 A    
Zn1   N2    2.117659 S    
H12   C20   1.110410 S    
C13   C18   1.537889 S    
O4    C2    1.326966 A    
O7    C4    1.333800 A    
N8    O24   1.298335 A    
N4    O12   1.298380 A    
C9    C29   1.488057 S    
C6    N10   1.459563 S    
C5    C7    1.540430 S    
O20   H18   1.012380 S    
C24   N8    1.484294 S    
H11   C20   1.113628 S    
N5    O14   1.294967 A    
O5    C3    1.339230 A    
C32   O35   1.220210 D    
C22   N4    1.513827 S    
C6    C7    1.543313 S    
C25   N1    1.496829 S    
C26   N2    1.516843 S    
C16   C19   1.573831 S    
C15   H7    1.102767 S    
C25   C27   1.516960 S    
C22   N2    1.559936 S    
C5    C12   1.521938 S    
C10   C11   1.547732 S    
N5    O13   1.299901 A    
O3    Zn1   2.005456 S    
N9    O26   1.300596 A    
O34   H21   1.013438 S    
C17   C20   1.539003 S    
H13   C23   1.093176 S    
C13   H5    1.104264 S    
C5    C9    1.527467 S    
H14   C24   1.110616 S    
C27   O17   1.209241 D    
O36   H22   1.011748 S    
N10   O27   1.298261 A    
O3    C2    1.327317 A    
C30   O31   1.221622 D    
C28   O20   1.393013 S    
N8    O23   1.298610 A    
C23   N1    1.558111 S    
N4    O11   1.291673 A    
O1    C1    1.332232 A    
N6    O16   1.302069 A    
H9    C17   1.112395 S    
N7    O21   1.301755 A    
C30   O32   1.390511 S    
C23   C24   1.607614 S    
Zn2   O8    2.005631 S    
C7    H1    1.110491 S    
C26   C28   1.491318 S    
N7    O22   1.289748 A    
Zn2   N1    2.116285 S    
C21   N3    1.481565 S    
C32   O36   1.400847 S    
C9    C11   1.545526 S    
C1    C18   1.475179 S    
C14   H6    1.110689 S    
C6    C12   1.521528 S    
C29   O30   1.397611 S    
C21   C22   1.683316 S    
C11   H2    1.112295 S    
C17   C18   1.538995 S    
C21   N5    1.508852 S    
C10   C30   1.496768 S    
Zn1   O5    2.040053 S    
C15   C19   1.563539 S    
O1    Zn1   2.034292 S    
C4    C8    1.459547 S    
H10   C17   1.111871 S    
O2    Zn2   2.040804 S    
O8    C4    1.326130 A    
O6    C3    1.333682 A    
O4    Zn2   2.023236 S    
C31   O34   1.397423 S    
C6    C10   1.531284 S    
C13   H3    1.113724 S    
C14   H4    1.097410 S    
C16   C32   1.521241 S    
N6    O15   1.298609 A    
C8    C9    1.545429 S    
N3    O10   1.302167 A    
O2    C1    1.330110 A    
C23   N7    1.476945 S    
C28   O19   1.206072 D    
C15   C31   1.536618 S    
C14   C18   1.542556 S    
C25   H15   1.096865 S    
C2    C12   1.437696 S    
C7    C8    1.552051 S    
O18   H17   1.013954 S    
C24   N2    1.511902 S    
Zn2   O6    2.033539 S    
C25   C26   1.600734 S    
C11   C12   1.536685 S    
C27   O18   1.397737 S    
O30   H19   1.012779 S    
C16   H8    1.096274 S    
