data_mof_unit_30674.cif
_audit_creation_date              2012-12-10T16:56:30-0500
_audit_creation_method            fapswitch 2.2
_symmetry_space_group_name_H-M    P1
_symmetry_Int_Tables_number       1
_space_group_crystal_system       triclinic
_cell_length_a                    7.77268
_cell_length_b                    8.578498
_cell_length_c                    15.706742
_cell_angle_alpha                 90.85121
_cell_angle_beta                  85.948588
_cell_angle_gamma                 93.634962
_cell_volume                      1042.5174678

loop_
_atom_site_label
_atom_site_type_symbol
_atom_type_description
_atom_site_fract_x
_atom_site_fract_y
_atom_site_fract_z
_atom_type_partial_charge
C1    C     C_R   0.545763 0.794719 0.497807 0.961458
C2    C     C_3   0.360235 0.411497 0.030888 -0.216314
C3    C     C_1   0.506850 0.499455 0.750682 -0.138028
C4    C     C_1   0.493150 0.500545 0.249317 -0.138028
C5    C     C_3   0.357366 0.558293 0.975720 0.493139
C6    C     C_3   0.642634 0.441707 0.024280 0.493139
C7    C     C_3   0.504864 0.499423 0.916933 0.014786
C8    C     C_3   0.495136 0.500577 0.083067 0.014786
C9    C     C_1   0.507687 0.499247 0.825975 0.057005
C10   C     C_1   0.492313 0.500753 0.174025 0.057006
C11   C     C_R   0.454237 0.205281 0.502193 0.961458
C12   C     C_R   0.502273 0.500011 0.661939 0.895644
C13   C     C_R   0.497727 0.499989 0.338061 0.895644
C14   C     C_2   0.569838 0.958200 0.496555 -0.363915
C15   C     C_2   0.430162 0.041800 0.503445 -0.363915
C16   C     C_3   0.490417 0.648127 0.029349 -0.264766
C17   C     C_3   0.509583 0.351873 0.970651 -0.264766
C18   C     C_3   0.639765 0.588502 0.969112 -0.216314
Cl1   Cl    Cl    0.832663 0.363708 0.058771 -0.575848
Cl2   Cl    Cl    0.167337 0.636292 0.941229 -0.575848
H1    H     H_    0.754559 0.659484 0.942103 0.221934
H2    H     H_    0.245441 0.340516 0.057897 0.221934
H3    H     H_    0.701766 0.009235 0.489982 0.183566
H4    H     H_    0.298234 0.990764 0.510018 0.183566
H5    H     H_    0.013364 0.382066 0.436437 0.199344
H6    H     H_    0.986636 0.617934 0.563562 0.199344
H7    H     H_    0.480748 0.768728 0.055089 0.192045
H8    H     H_    0.519252 0.231272 0.944910 0.192045
N1    N     N_2   0.950320 0.457950 0.477300 -0.168296
N2    N     N_2   0.049680 0.542050 0.522700 -0.168297
O1    O     O_R   0.389250 0.738570 0.505570 -0.612846
O2    O     O_R   0.610750 0.261430 0.494430 -0.612846
O3    O     O_R   0.678390 0.711630 0.491020 -0.629628
O4    O     O_R   0.321610 0.288370 0.508980 -0.629629
O5    O     O_R   0.355460 0.513480 0.630490 -0.597663
O6    O     O_R   0.644540 0.486520 0.369510 -0.597662
O7    O     O_R   0.644600 0.486540 0.615950 -0.621919
O8    O     O_R   0.355400 0.513460 0.384050 -0.621919
Zn1   Zn    Zn3+2 0.306940 0.517990 0.509710 0.970302
Zn2   Zn    Zn3+2 0.693060 0.482010 0.490290 0.970302

loop_
_geom_bond_atom_site_label_1
_geom_bond_atom_site_label_2
_ccdc_geom_bond_type
C14   H3    S    
C2    H2    S    
O5    Zn1   S    
C2    C17   S    
N1    N2    D    
C3    C9    T    
C1    C14   S    
C18   H1    S    
O6    Zn2   S    
C7    C18   S    
C16   H7    S    
C1    O3    A    
C8    C16   S    
C5    Cl2   S    
C12   O5    A    
C6    Cl1   S    
C13   O8    A    
N1    Zn2   S    
C16   C18   S    
C15   H4    S    
O1    Zn1   S    
C11   O2    A    
H6    N2    S    
O7    Zn2   S    
O2    Zn2   S    
H5    N1    S    
O8    Zn1   S    
C6    C18   S    
C2    C5    S    
C4    C10   T    
O4    Zn1   S    
O3    Zn2   S    
C7    C9    S    
C1    O1    A    
C13   O6    A    
C8    C10   S    
C12   O7    A    
C4    C13   S    
C5    C7    S    
C6    C17   S    
C14   C15   D    
C5    C16   S    
C6    C8    S    
C3    C12   S    
C17   H8    S    
C11   C15   S    
C11   O4    A    
C2    C8    S    
N2    Zn1   S    
C7    C17   S    
