data_mof_unit_7070.cif
_audit_creation_date              2012-12-11T16:44:26-0500
_audit_creation_method            fapswitch 2.2
_symmetry_space_group_name_H-M    P1
_symmetry_Int_Tables_number       1
_space_group_crystal_system       triclinic
_cell_length_a                    27.123201
_cell_length_b                    7.193864
_cell_length_c                    22.76189
_cell_angle_alpha                 89.99926
_cell_angle_beta                  101.713414
_cell_angle_gamma                 89.999489
_cell_volume                      4348.82507149

loop_
_atom_site_label
_atom_site_type_symbol
_atom_type_description
_atom_site_fract_x
_atom_site_fract_y
_atom_site_fract_z
_atom_type_partial_charge
O1    O     O_R   0.707300 0.594030 0.176840 -0.534504
O2    O     O_R   0.292700 0.405970 0.823160 -0.529213
O3    O     O_R   0.792700 0.094030 0.323160 -0.534508
O4    O     O_R   0.207300 0.905970 0.676840 -0.529215
O5    O     O_R   0.697330 0.262360 0.295660 -0.531458
O6    O     O_R   0.302670 0.737640 0.704340 -0.528930
O7    O     O_R   0.802670 0.762360 0.204340 -0.531452
O8    O     O_R   0.197330 0.237640 0.795660 -0.528937
C1    C     C_R   0.683664 0.433002 0.310160 0.724064
C2    C     C_R   0.315503 0.566739 0.688191 0.674935
C3    C     C_R   0.816335 0.933002 0.189840 0.724066
C4    C     C_R   0.184496 0.066739 0.811808 0.674927
O9    O     O_R   0.701410 0.264250 0.175600 -0.532641
O10   O     O_R   0.298590 0.735750 0.824400 -0.533741
O11   O     O_R   0.798590 0.764250 0.324400 -0.532647
O12   O     O_R   0.201410 0.235750 0.675600 -0.533741
O13   O     O_R   0.796800 0.094950 0.202240 -0.533712
O14   O     O_R   0.203200 0.905050 0.797760 -0.517415
O15   O     O_R   0.703200 0.594950 0.297760 -0.533713
O16   O     O_R   0.296800 0.405050 0.702240 -0.517416
C5    C     C_R   0.689626 0.432136 0.153229 0.714197
C6    C     C_R   0.310654 0.567414 0.846544 0.687660
C7    C     C_R   0.810375 0.932133 0.346771 0.714191
C8    C     C_R   0.189345 0.067418 0.653455 0.687651
O17   O     O_3   0.781290 0.427390 0.258880 -0.371240
O18   O     O_3   0.218710 0.572610 0.741120 -0.352185
O19   O     O_3   0.718710 0.927390 0.241120 -0.371237
O20   O     O_3   0.281290 0.072610 0.758880 -0.352177
V1    V     V_3+5 0.744190 0.152150 0.248350 1.479731
V2    V     V_3+5 0.255810 0.847850 0.751650 1.546789
V3    V     V_3+5 0.755810 0.652150 0.251650 1.479728
V4    V     V_3+5 0.244190 0.347850 0.748350 1.546777
C9    C     C_R   0.154316 0.060415 0.594524 -0.052547
C10   C     C_R   0.845843 0.931534 0.405455 -0.057211
C11   C     C_R   0.345683 0.560392 0.905474 -0.052533
C12   C     C_R   0.654161 0.431556 0.094543 -0.057192
C13   C     C_R   0.139389 0.108464 0.487256 -0.130892
C14   C     C_R   0.864454 0.815189 0.507297 -0.146052
C15   C     C_R   0.360601 0.608240 0.012750 -0.130917
C16   C     C_R   0.635564 0.315349 0.992686 -0.146040
C17   C     C_R   0.171148 0.117769 0.543470 -0.162607
C18   C     C_R   0.829904 0.853733 0.454628 -0.174942
C19   C     C_R   0.328843 0.617597 0.956537 -0.162666
C20   C     C_R   0.670108 0.353841 0.045364 -0.174954
C21   C     C_R   0.104284 0.999074 0.588917 -0.130400
C22   C     C_R   0.897268 0.972362 0.410011 -0.153472
C23   C     C_R   0.395723 0.499139 0.911074 -0.130384
C24   C     C_R   0.602733 0.472341 0.089987 -0.153468
C25   C     C_R   0.071667 0.979361 0.531579 0.102976
C26   C     C_R   0.934024 0.916811 0.461171 0.095453
C27   C     C_R   0.428339 0.479353 0.968410 0.102968
C28   C     C_R   0.565984 0.416835 0.038818 0.095449
C29   C     C_R   0.090034 0.040661 0.480882 0.111589
C30   C     C_R   0.916175 0.843984 0.510810 0.116238
C31   C     C_R   0.409964 0.540516 0.019115 0.111586
C32   C     C_R   0.583841 0.344109 0.989170 0.116239
C33   C     C_R   0.020807 0.910641 0.522968 -0.012604
C34   C     C_R   0.987564 0.934793 0.465521 -0.012369
C35   C     C_R   0.479204 0.410687 0.977012 -0.012607
C36   C     C_R   0.512443 0.434769 0.034465 -0.012374
C37   C     C_R   0.009856 0.968936 0.414895 -0.028850
C38   C     C_R   0.001817 0.814148 0.568436 -0.018737
C39   C     C_R   0.490146 0.468792 0.085095 -0.028828
C40   C     C_R   0.498204 0.314309 0.931530 -0.018713
C41   C     C_R   0.059800 0.028911 0.423666 -0.222939
C42   C     C_R   0.949963 0.789996 0.562625 -0.238262
C43   C     C_R   0.440197 0.528705 0.076330 -0.222939
C44   C     C_R   0.550058 0.290189 0.937343 -0.238252
H1    H     H_    0.076101 0.060330 0.385034 0.158322
H2    H     H_    0.935760 0.719774 0.598003 0.153536
H3    H     H_    0.423891 0.560024 0.114967 0.158311
H4    H     H_    0.564268 0.220049 0.901956 0.153524
H5    H     H_    0.907692 0.043794 0.372779 0.138929
H6    H     H_    0.091263 0.974980 0.629986 0.103613
H7    H     H_    0.592304 0.543711 0.127227 0.138929
H8    H     H_    0.408748 0.475157 0.870002 0.103614
H9    H     H_    0.790614 0.818795 0.451716 0.104784
H10   H     H_    0.209000 0.170336 0.547156 0.140279
H11   H     H_    0.709400 0.318937 0.048276 0.104779
H12   H     H_    0.290984 0.670087 0.952857 0.140273
H13   H     H_    0.153587 0.154125 0.448441 0.126733
H14   H     H_    0.850824 0.755530 0.544736 0.115455
H15   H     H_    0.346396 0.653789 0.051572 0.126736
H16   H     H_    0.649199 0.255764 0.955241 0.115454
C45   C     C_R   0.889790 0.100307 0.157872 -0.046655
C46   C     C_R   0.138390 0.899993 0.885830 0.010034
C47   C     C_R   0.610207 0.600300 0.342124 -0.046656
C48   C     C_R   0.361606 0.399998 0.614166 0.010025
C49   C     C_R   0.923195 0.113008 0.118252 -0.226112
C50   C     C_R   0.102922 0.907586 0.922825 -0.216498
C51   C     C_R   0.576802 0.612999 0.381744 -0.226092
C52   C     C_R   0.397074 0.407587 0.577172 -0.216495
H17   H     H_    0.948046 0.232150 0.120799 0.151064
H18   H     H_    0.098955 0.789567 0.951197 0.137839
H19   H     H_    0.551949 0.732138 0.379196 0.151078
H20   H     H_    0.401039 0.289570 0.548798 0.137831
C53   C     C_R   0.926282 0.973044 0.076357 0.026436
C54   C     C_R   0.071099 0.060396 0.922776 0.033207
C55   C     C_R   0.573717 0.473036 0.423642 0.026431
C56   C     C_R   0.428900 0.560389 0.577222 0.033209
C57   C     C_R   0.895532 0.813054 0.074640 0.175572
C58   C     C_R   0.075567 0.213677 0.885270 0.166765
C59   C     C_R   0.604469 0.313048 0.425360 0.175580
C60   C     C_R   0.424433 0.713667 0.614729 0.166764
C61   C     C_R   0.861046 0.802222 0.113237 -0.131810
C62   C     C_R   0.112211 0.209137 0.849281 -0.167971
C63   C     C_R   0.638955 0.302220 0.386765 -0.131847
C64   C     C_R   0.387788 0.709130 0.650718 -0.167930
H21   H     H_    0.836969 0.681084 0.110900 0.141768
H22   H     H_    0.115236 0.327387 0.820888 0.177105
H23   H     H_    0.663034 0.181083 0.389103 0.141746
H24   H     H_    0.384765 0.827380 0.679111 0.177104
C65   C     C_R   0.856816 0.945043 0.154168 -0.142377
C66   C     C_R   0.144546 0.055703 0.849019 -0.152287
C67   C     C_R   0.643184 0.445041 0.345831 -0.142383
C68   C     C_R   0.355452 0.555702 0.650979 -0.152289
C69   C     C_R   0.014721 0.010408 0.061368 -0.151410
C70   C     C_R   0.981666 0.040075 0.937069 -0.148846
C71   C     C_R   0.485277 0.510382 0.438631 -0.151413
C72   C     C_R   0.518332 0.540075 0.562928 -0.148849
H25   H     H_    0.028075 0.998676 0.109410 0.130660
H26   H     H_    0.968424 0.047600 0.888974 0.122629
H27   H     H_    0.471924 0.498640 0.390590 0.130666
H28   H     H_    0.531575 0.547610 0.611023 0.122636
C73   C     C_R   0.049601 0.035313 0.024380 -0.151483
C74   C     C_R   0.946722 0.015142 0.974124 -0.150587
C75   C     C_R   0.450398 0.535288 0.475619 -0.151483
C76   C     C_R   0.553277 0.515142 0.525873 -0.150575
H29   H     H_    0.089368 0.041028 0.044404 0.130035
H30   H     H_    0.906994 0.009022 0.954139 0.119157
H31   H     H_    0.410630 0.540994 0.455595 0.130037
H32   H     H_    0.593004 0.509034 0.545857 0.119151
C77   C     C_R   0.033423 0.050666 0.961922 0.077380
C78   C     C_R   0.963031 0.997746 0.036541 0.079085
C79   C     C_R   0.466575 0.550655 0.538076 0.077379
C80   C     C_R   0.536968 0.497734 0.463457 0.079082
C81   C     C_2   0.986409 0.911875 0.352767 0.771515
O21   O     O_2   0.960931 0.770388 0.344117 -0.546501
O22   O     O_R   0.995364 0.015336 0.303965 -0.655433
H33   H     H_    0.978110 0.960691 0.263999 0.308517
C82   C     C_2   0.034180 0.706252 0.617071 0.739706
O23   O     O_2   0.070892 0.622338 0.607207 -0.552115
O24   O     O_R   0.021653 0.695113 0.673609 -0.670306
H34   H     H_    0.046574 0.617679 0.702862 0.294022
C83   C     C_2   0.513596 0.411666 0.147216 0.771500
O25   O     O_2   0.539080 0.270189 0.155849 -0.546505
O26   O     O_R   0.504640 0.515061 0.196029 -0.655436
H35   H     H_    0.521900 0.460386 0.235989 0.308529
C84   C     C_2   0.465850 0.206491 0.882868 0.739688
O27   O     O_2   0.429143 0.122492 0.892711 -0.552117
O28   O     O_R   0.478379 0.195528 0.826328 -0.670303
H36   H     H_    0.453464 0.118138 0.797054 0.294037
C85   C     C_2   0.892732 0.246958 0.204409 0.795775
O29   O     O_2   0.901074 0.408200 0.192405 -0.562863
O30   O     O_R   0.888086 0.200124 0.262641 -0.660700
H37   H     H_    0.891438 0.311853 0.290322 0.307296
C86   C     C_2   0.166765 0.723729 0.887863 0.717091
O31   O     O_2   0.164557 0.631493 0.842362 -0.552910
O32   O     O_R   0.191551 0.653206 0.943212 -0.677231
H38   H     H_    0.206757 0.526036 0.939485 0.282327
C87   C     C_2   0.607260 0.746941 0.295580 0.795753
O33   O     O_2   0.598901 0.908193 0.307576 -0.562844
O34   O     O_R   0.611912 0.700088 0.237351 -0.660707
H39   H     H_    0.608554 0.811805 0.209664 0.307299
C88   C     C_2   0.333224 0.223749 0.612126 0.717089
O35   O     O_2   0.335432 0.131487 0.657623 -0.552910
O36   O     O_R   0.308429 0.153271 0.556776 -0.677226
H40   H     H_    0.293216 0.026111 0.560498 0.282333
C89   C     C_3   0.900036 0.647778 0.034798 -0.359241
C90   C     C_3   0.853540 0.627709 0.984629 -0.775199
H41   H     H_    0.858867 0.508972 0.955368 0.224272
H42   H     H_    0.819531 0.600536 0.003448 0.221919
H43   H     H_    0.847550 0.755854 0.956939 0.225085
H44   H     H_    0.933816 0.657394 0.014478 0.189897
H45   H     H_    0.904674 0.519257 0.062464 0.199799
C91   C     C_3   0.044131 0.387843 0.884701 -0.377502
C92   C     C_3   0.006277 0.408758 0.825522 -0.721444
H46   H     H_    0.025990 0.421103 0.787474 0.229340
H47   H     H_    0.980587 0.287172 0.817845 0.221465
H48   H     H_    0.983500 0.536314 0.826984 0.224225
H49   H     H_    0.023474 0.389651 0.922061 0.189002
H50   H     H_    0.069417 0.510682 0.891208 0.189174
C93   C     C_3   0.599967 0.147771 0.465203 -0.359225
C94   C     C_3   0.646459 0.127731 0.515380 -0.775183
H51   H     H_    0.641136 0.008972 0.544636 0.224270
H52   H     H_    0.680475 0.100612 0.496570 0.221916
H53   H     H_    0.652434 0.255867 0.543075 0.225078
H54   H     H_    0.566181 0.157370 0.485516 0.189894
H55   H     H_    0.595338 0.019246 0.437539 0.199785
C95   C     C_3   0.455869 0.887830 0.615297 -0.377506
C96   C     C_3   0.493721 0.908742 0.674478 -0.721459
H56   H     H_    0.474007 0.921088 0.712525 0.229326
H57   H     H_    0.519411 0.787154 0.682156 0.221477
H58   H     H_    0.516498 0.036296 0.673015 0.224227
H59   H     H_    0.476527 0.889637 0.577938 0.189004
H60   H     H_    0.430582 0.010672 0.608789 0.189170

loop_
_geom_bond_atom_site_label_1
_geom_bond_atom_site_label_2
_ccdc_geom_bond_type
O17   V3    S    
C55   C59   A    
O1    C5    A    
C95   C96   S    
C47   C51   A    
O19   V1    S    
C9    C21   A    
C89   C90   S    
C16   H16   S    
O3    C7    A    
O34   H39   S    
C10   C18   A    
C56   C60   A    
C11   C23   A    
C83   O25   D    
C2    C68   S    
C33   C38   A    
C5    C12   S    
C91   H50   S    
C6    C11   S    
C81   O22   S    
C54   C77   S    
C35   C40   A    
C88   O35   D    
C62   C66   A    
C36   C39   A    
C59   C93   S    
C40   C44   A    
C61   C65   A    
C75   C79   A    
C23   H8    S    
C14   C18   A    
C76   C80   A    
C62   H22   S    
O4    C8    A    
C25   C29   A    
C44   H4    S    
C43   H3    S    
C90   H41   S    
C74   H30   S    
C58   C91   S    
O24   H34   S    
C76   H32   S    
C60   C64   A    
O1    V3    S    
O13   V1    S    
C94   H51   S    
O2    V4    S    
C70   H26   S    
C32   C44   A    
O3    V1    S    
C69   H25   S    
C28   C36   A    
C83   O26   S    
C72   H28   S    
C1    O15   A    
C86   O31   D    
C15   C31   A    
O26   H35   S    
C2    O16   A    
C16   C32   A    
O12   C8    A    
O2    C6    A    
C93   H54   S    
O28   H36   S    
C57   C89   S    
C10   C22   A    
C85   O30   S    
C11   C19   A    
C16   C20   A    
C47   C67   A    
C56   C79   S    
C95   H60   S    
C13   C29   A    
C7    C10   S    
C34   C37   A    
O11   C7    A    
O15   V3    S    
C35   C36   A    
C86   O32   S    
C14   H14   S    
C49   H17   S    
C24   H7    S    
C13   H13   S    
C53   C78   S    
O10   V2    S    
C69   C78   A    
C93   H55   S    
C87   O34   S    
C50   H18   S    
O5    V1    S    
C52   H20   S    
C57   C61   A    
C91   H49   S    
C39   C43   A    
O7    V3    S    
C38   C42   A    
C96   H56   S    
O8    V4    S    
C48   C52   A    
C37   C81   S    
C46   C50   A    
O36   H40   S    
C45   C49   A    
O18   V4    S    
C23   C27   A    
C92   H47   S    
C19   H12   S    
C54   C58   A    
O4    V2    S    
C64   H24   S    
C49   C53   A    
C21   H6    S    
C1    C67   S    
C48   C68   A    
C89   H44   S    
O7    C3    A    
C93   C94   S    
C96   H57   S    
O5    C1    A    
C73   H29   S    
C31   C43   A    
O32   H38   S    
C14   C30   A    
C21   C25   A    
O8    C4    A    
C92   H48   S    
C60   C95   S    
C89   H45   S    
C26   C34   A    
O9    C5    A    
C45   C85   S    
C63   C67   A    
C70   C77   A    
C95   H59   S    
C4    C66   S    
O14   V2    S    
C91   C92   S    
O6    V2    S    
C48   C88   S    
C84   O28   S    
C12   C20   A    
C27   C35   A    
C38   C82   S    
C17   H10   S    
C29   C41   A    
C52   C56   A    
O16   V4    S    
O9    V1    S    
C61   H21   S    
C3    O13   A    
C47   C87   S    
C63   H23   S    
C20   H11   S    
C8    C9    S    
C50   C54   A    
O6    C2    A    
C25   C33   A    
C15   C19   A    
O22   H33   S    
C72   C76   A    
O11   V3    S    
C30   C42   A    
C71   H27   S    
O12   V4    S    
C81   O21   D    
C22   C26   A    
C73   C77   A    
C71   C80   A    
C94   H53   S    
C40   C84   S    
C46   C66   A    
C72   C79   A    
C9    C17   A    
O10   C6    A    
C82   O24   S    
C96   H58   S    
C15   H15   S    
O20   V2    S    
C26   C30   A    
C87   O33   D    
C84   O27   D    
C64   C68   A    
C33   C34   A    
C42   H2    S    
C90   H42   S    
C41   H1    S    
C45   C65   A    
C94   H52   S    
C55   C80   S    
C12   C24   A    
C27   C31   A    
C13   C17   A    
C3    C65   S    
C46   C86   S    
C75   H31   S    
C51   H19   S    
C37   C41   A    
C24   C28   A    
C74   C78   A    
C18   H9    S    
C88   O36   S    
C92   H46   S    
C58   C62   A    
C4    O14   A    
O30   H37   S    
C59   C63   A    
C70   C74   A    
C51   C55   A    
C85   O29   D    
C82   O23   D    
C69   C73   A    
C39   C83   S    
C22   H5    S    
C53   C57   A    
C28   C32   A    
C90   H43   S    
C71   C75   A    
