data_mof_unit_48103.cif
_audit_creation_date              2013-03-05T15:55:00-0500
_audit_creation_method            fapswitch 2.2
_symmetry_space_group_name_H-M    P1
_symmetry_Int_Tables_number       1
_space_group_crystal_system       triclinic
_cell_length_a                    23.257457
_cell_length_b                    10.71523
_cell_length_c                    9.952365
_cell_angle_alpha                 89.456253
_cell_angle_beta                  90.995586
_cell_angle_gamma                 93.89446
_cell_volume                      2474.03233749

loop_
_atom_site_label
_atom_site_type_symbol
_atom_site_description
_atom_site_fract_x
_atom_site_fract_y
_atom_site_fract_z
_atom_type_partial_charge
O1    O     O_R   0.500000 0.316780 0.614690 -0.667618
O2    O     O_R   0.500000 0.316750 0.385360 -0.570095
C1    C     C_R   0.504054 0.260599 0.501927 0.862784
O3    O     O_R   0.416160 0.499970 0.614690 -0.630945
O4    O     O_R   0.416150 0.499950 0.385360 -0.541991
C2    C     C_R   0.389669 0.501733 0.498976 0.841174
Zn1   Zn    Zn3+2 0.500000 0.500020 0.653130 1.023931
Zn2   Zn    Zn3+2 0.500000 0.499980 0.346870 1.090695
O5    O     O_R   0.500000 0.683250 0.614640 -0.586534
O6    O     O_R   0.500000 0.683220 0.385310 -0.566753
O7    O     O_R   0.583850 0.500050 0.614640 -0.571100
O8    O     O_R   0.583840 0.500030 0.385310 -0.552955
C3    C     C_R   0.495424 0.738814 0.499569 0.904813
C4    C     C_R   0.610345 0.501802 0.501129 0.932372
C5    C     C_R   0.881209 0.601039 0.426806 0.621656
N1    N     N_R   0.853197 0.564546 0.541329 -0.334017
C6    C     C_R   0.881968 0.537358 0.657630 0.629064
C7    C     C_R   0.942652 0.539701 0.660406 -0.144361
C8    C     C_R   0.972246 0.578685 0.542168 -0.041063
C9    C     C_R   0.941243 0.610902 0.425489 -0.119456
C10   C     C_R   0.974832 0.505850 0.776086 0.320703
C11   C     C_R   0.034917 0.512876 0.772330 -0.157999
C12   C     C_R   0.064028 0.547915 0.654475 -0.065795
C13   C     C_R   0.032900 0.582747 0.539128 -0.047632
C14   C     C_R   0.062271 0.618680 0.419851 -0.153442
C15   C     C_R   0.030409 0.660292 0.307023 0.477226
C16   C     C_R   0.970537 0.652170 0.309891 -0.061328
C17   C     C_R   0.123806 0.544169 0.647772 0.578640
N2    N     N_R   0.150988 0.569114 0.529140 -0.339894
C18   C     C_R   0.121930 0.604756 0.416105 0.550123
O9    O     O_2   0.850760 0.626931 0.314372 -0.484380
O10   O     O_2   0.851536 0.510276 0.769474 -0.435359
H1    H     H_    0.058673 0.484846 0.861000 0.231241
O11   O     O_2   0.154608 0.513538 0.758035 -0.502923
O12   O     O_2   0.150554 0.620655 0.299766 -0.491966
H2    H     H_    0.947035 0.681249 0.221297 0.238895
C19   C     C_R   0.249750 0.654600 0.498397 -0.042826
H3    H     H_    0.234120 0.747415 0.490388 0.193752
C20   C     C_R   0.308092 0.638901 0.484374 0.405196
C21   C     C_R   0.328135 0.516917 0.496881 -0.277839
C22   C     C_R   0.288633 0.412231 0.518270 0.395583
C23   C     C_R   0.230404 0.431399 0.529998 -0.061352
H4    H     H_    0.199746 0.352056 0.545502 0.191384
C24   C     C_R   0.211091 0.551788 0.520918 0.087519
C25   C     C_R   0.765331 0.430161 0.524313 -0.084465
H5    H     H_    0.791514 0.350270 0.524691 0.207389
C26   C     C_R   0.706014 0.411695 0.507613 0.410484
C27   C     C_R   0.672654 0.517194 0.504985 -0.298111
C28   C     C_R   0.698958 0.639280 0.519173 0.190454
C29   C     C_R   0.759084 0.656047 0.535205 0.282674
C30   C     C_R   0.791789 0.550414 0.537507 0.033948
H6    H     H_    0.516603 0.115385 0.290740 0.213001
C31   C     C_R   0.512816 0.108396 0.759515 -0.281413
H7    H     H_    0.539542 0.193962 0.772579 0.188057
C32   C     C_R   0.493053 0.044425 0.875906 0.416592
C33   C     C_R   0.460061 0.930182 0.862365 0.370989
C34   C     C_R   0.454588 0.875273 0.734984 -0.202199
H8    H     H_    0.429452 0.787042 0.724798 0.208323
C35   C     C_R   0.480708 0.933813 0.621355 0.076991
C36   C     C_R   0.500780 0.058730 0.629895 0.108585
C37   C     C_R   0.508035 0.127136 0.507440 -0.101656
C38   C     C_R   0.509502 0.065316 0.384740 -0.146629
H9    H     H_    0.508446 0.891171 0.287240 0.227116
C39   C     C_R   0.502620 0.937606 0.381801 -0.049737
C40   C     C_R   0.489275 0.871165 0.499755 -0.104783
C41   C     C_R   0.420594 0.323929 0.128399 0.482037
C42   C     C_R   0.385982 0.240365 0.048337 -0.255691
H10   H     H_    0.356556 0.170919 0.095033 0.210989
C43   C     C_R   0.388628 0.243006 0.910556 0.256697
C44   C     C_R   0.425625 0.332626 0.850798 -0.202124
H11   H     H_    0.424612 0.332317 0.744965 0.247444
C45   C     C_R   0.462456 0.417229 0.924794 -0.029710
C46   C     C_R   0.461578 0.415358 0.069219 0.027292
N3    N     N_R   0.499460 0.498800 0.142780 -0.119236
C47   C     C_R   0.536663 0.578886 0.073977 0.439401
C48   C     C_R   0.537117 0.577621 0.929339 0.230546
N4    N     N_R   0.499440 0.498720 0.857170 -0.161800
N5    N     N_R   0.947886 0.456802 0.895686 0.252969
O13   O     O_R   0.918732 0.348818 0.891921 -0.281389
O14   O     O_R   0.963785 0.503439 0.011770 -0.332983
O15   O     O_3   0.682986 0.289790 0.495607 -0.684393
H12   H     H_    0.640954 0.288393 0.478334 0.319871
N6    N     N_R   0.664459 0.745531 0.521705 0.244433
O16   O     O_R   0.629334 0.766835 0.422283 -0.337014
O17   O     O_R   0.670061 0.824478 0.620362 -0.246417
N7    N     N_R   0.787138 0.779579 0.544492 0.251837
O18   O     O_R   0.828921 0.803172 0.631109 -0.318834
O19   O     O_R   0.772546 0.867949 0.462731 -0.259157
O20   O     O_3   0.505326 0.091933 0.002486 -0.741043
H13   H     H_    0.528260 0.172991 0.994067 0.328077
N8    N     N_R   0.434147 0.866877 0.977014 0.232238
O21   O     O_R   0.424042 0.928024 0.085490 -0.334120
O22   O     O_R   0.417103 0.748793 0.970800 -0.394388
O23   O     O_3   0.573452 0.658634 0.148682 -0.669576
H14   H     H_    0.596976 0.714611 0.088611 0.377857
O24   O     O_3   0.412615 0.314092 0.263321 -0.710182
H15   H     H_    0.384788 0.243335 0.287063 0.330916
N9    N     N_R   0.354492 0.152872 0.831090 0.236977
O25   O     O_R   0.312063 0.085179 0.884322 -0.307174
O26   O     O_R   0.368085 0.131339 0.707596 -0.387982
N10   N     N_R   0.579080 0.655117 0.858661 0.223300
O27   O     O_R   0.570231 0.772048 0.836430 -0.361249
O28   O     O_R   0.630937 0.618363 0.847753 -0.332121
O29   O     O_3   0.055798 0.710679 0.193016 -0.669523
H16   H     H_    0.087906 0.770167 0.222586 0.372125
O30   O     O_3   0.343547 0.745309 0.461056 -0.717059
H17   H     H_    0.381113 0.721710 0.428582 0.328823
O31   O     O_3   0.304497 0.290521 0.528056 -0.683615
H18   H     H_    0.345912 0.287413 0.508829 0.350218

loop_
_geom_bond_atom_site_label_1
_geom_bond_atom_site_label_2
_geom_bond_distance
_ccdc_geom_bond_type
C20   O30   1.381214 S    
C32   C33   1.406202 A    
N10   O27   1.299751 A    
C22   O31   1.381347 S    
C7    C10   1.419926 A    
C22   C23   1.390530 A    
C8    C9    1.408766 A    
N1    C30   1.425821 S    
O15   H12   0.988741 S    
C3    C40   1.435029 S    
C31   H7    1.079791 S    
C33   C34   1.402827 A    
Zn1   O7    1.993903 S    
C15   C16   1.390053 A    
N2    C18   1.366974 A    
C18   O12   1.349257 S    
C17   N2    1.364577 A    
C43   C44   1.382379 A    
O4    C2    1.297874 A    
O7    C4    1.295575 A    
N5    O14   1.300853 A    
C34   C35   1.414220 A    
O30   H17   0.986459 S    
C25   C30   1.396036 A    
C5    N1    1.363514 A    
C14   C18   1.406712 A    
O31   H18   0.988109 S    
C7    C8    1.418711 A    
C46   N3    1.412315 A    
C25   C26   1.387660 A    
O5    C3    1.291807 A    
C38   C39   1.367472 A    
C45   N4    1.364637 A    
C15   O29   1.376922 S    
C33   N8    1.441867 S    
C26   C27   1.413649 A    
N1    C6    1.365851 A    
C10   N5    1.433567 S    
C12   C13   1.407462 A    
C44   H11   1.053178 S    
Zn1   N4    2.030858 S    
C43   N9    1.441213 S    
C1    C37   1.439816 S    
C41   C42   1.406426 A    
C17   O11   1.350168 S    
C35   C36   1.390209 A    
N10   O28   1.300527 A    
C10   C11   1.395463 A    
O23   H14   0.988178 S    
C23   C24   1.396102 A    
O3    Zn1   1.980512 S    
O29   H16   0.990871 S    
C31   C36   1.416325 A    
C29   C30   1.405730 A    
C31   C32   1.408389 A    
C5    C9    1.393335 A    
C19   C20   1.388141 A    
N3    C47   1.364741 A    
C42   H10   1.083232 S    
C13   C14   1.416978 A    
O3    C2    1.297196 A    
N8    O21   1.301232 A    
N7    O18   1.301144 A    
C4    C27   1.447219 S    
C14   C15   1.419615 A    
C25   H5    1.083653 S    
C41   C46   1.448070 A    
C36   C37   1.422812 A    
O1    C1    1.286448 A    
C47   C48   1.439914 A    
C19   H3    1.083600 S    
N8    O22   1.301706 A    
N6    O16   1.300574 A    
Zn2   O8    1.980510 S    
O24   H15   0.992353 S    
Zn2   N3    2.031153 S    
C6    C7    1.409651 A    
C12   C17   1.396367 A    
C48   N4    1.373877 A    
C21   C22   1.417714 A    
N6    O17   1.301142 A    
O8    C4    1.297359 A    
N9    O25   1.301603 A    
N9    O26   1.300992 A    
N2    C24   1.426406 S    
C2    C21   1.451053 S    
C23   H4    1.083517 S    
C20   C21   1.420880 A    
C41   O24   1.360865 S    
C48   N10   1.428106 S    
Zn1   O5    1.996802 S    
C11   H1    1.083881 S    
C27   C28   1.413265 A    
O1    Zn1   2.003942 S    
O2    Zn2   1.996801 S    
C45   C46   1.437805 A    
O6    C3    1.298064 A    
O4    Zn2   1.993905 S    
C5    O9    1.350511 S    
C9    C16   1.399983 A    
C16   H2    1.083740 S    
C39   C40   1.395726 A    
C28   N6    1.437355 S    
C19   C24   1.392860 A    
O2    C1    1.306685 A    
C32   O20   1.381154 S    
H6    C38   1.083564 S    
C35   C40   1.413110 A    
N5    O13   1.301295 A    
C34   H8    1.081909 S    
C8    C13   1.409209 A    
N7    O19   1.301293 A    
C26   O15   1.383146 S    
C37   C38   1.396799 A    
C29   N7    1.438507 S    
H9    C39   1.083550 S    
Zn2   O6    2.003944 S    
C28   C29   1.404221 A    
C6    O10   1.348151 S    
C11   C12   1.399938 A    
C44   C45   1.408251 A    
C42   C43   1.373626 A    
O20   H13   0.991530 S    
C47   O23   1.380470 S    
