data_mof_unit_47961.cif
_audit_creation_date              2012-12-10T18:57:51-0500
_audit_creation_method            fapswitch 2.2
_symmetry_space_group_name_H-M    P1
_symmetry_Int_Tables_number       1
_space_group_crystal_system       triclinic
_cell_length_a                    10.72257
_cell_length_b                    9.979157
_cell_length_c                    8.912948
_cell_angle_alpha                 90.00059
_cell_angle_beta                  92.157503
_cell_angle_gamma                 90.012356
_cell_volume                      953.029038636

loop_
_atom_site_label
_atom_site_type_symbol
_atom_type_description
_atom_site_fract_x
_atom_site_fract_y
_atom_site_fract_z
_atom_type_partial_charge
C1    C     C_R   0.260261 0.499995 0.499587 0.867140
C2    C     C_R   0.064559 0.620946 0.519416 -0.154066
C3    C     C_R   0.872427 0.499991 0.500385 -0.033693
C4    C     C_R   0.127573 0.500009 0.499615 -0.033693
C5    C     C_R   0.588553 0.070965 0.582081 0.397503
C6    C     C_R   0.411447 0.929035 0.417919 0.397503
C7    C     C_R   0.411473 0.070907 0.417877 0.399646
C8    C     C_R   0.588527 0.929093 0.582122 0.399647
C9    C     C_R   0.739739 0.500005 0.500413 0.867140
C10   C     C_R   0.499646 0.499999 0.219053 0.928342
C11   C     C_R   0.500354 0.500001 0.780947 0.928342
C12   C     C_1   0.499868 0.499999 0.065466 -0.159546
C13   C     C_1   0.500132 0.500001 0.934534 -0.159546
C14   C     C_R   0.063228 0.379075 0.480141 -0.165098
C15   C     C_R   0.936772 0.620925 0.519858 -0.165098
C16   C     C_R   0.935441 0.379054 0.480584 -0.154067
H1    H     H_    0.111098 0.284860 0.464031 0.201364
H2    H     H_    0.888902 0.715140 0.535969 0.201364
H3    H     H_    0.886475 0.284817 0.464751 0.193626
H4    H     H_    0.113525 0.715183 0.535249 0.193626
H5    H     H_    0.654403 0.225743 0.686679 0.378624
H6    H     H_    0.345597 0.774257 0.313320 0.378624
H7    H     H_    0.345635 0.225705 0.313347 0.376985
H8    H     H_    0.654365 0.774295 0.686653 0.376985
N1    N     N_R   0.500000 0.857200 0.500000 -0.266772
N2    N     N_R   0.500000 0.142800 0.500000 -0.266772
O1    O     O_R   0.316770 0.614620 0.499990 -0.630479
O2    O     O_3   0.319991 0.867071 0.330601 -0.695265
O3    O     O_3   0.320155 0.132795 0.330325 -0.701857
O4    O     O_3   0.679845 0.867205 0.669675 -0.701858
O5    O     O_R   0.683230 0.385380 0.500010 -0.630479
O6    O     O_R   0.683230 0.614620 0.500010 -0.630109
O7    O     O_R   0.316770 0.385380 0.499990 -0.630109
O8    O     O_R   0.500010 0.614640 0.285340 -0.630413
O9    O     O_R   0.499990 0.385360 0.714660 -0.630413
O10   O     O_R   0.499990 0.614640 0.714660 -0.631971
O11   O     O_R   0.500010 0.385360 0.285340 -0.631971
O12   O     O_3   0.680009 0.132929 0.669399 -0.695265
Zn1   Zn    Zn3+2 0.500000 0.653120 0.500000 0.956040
Zn2   Zn    Zn3+2 0.500000 0.346880 0.500000 0.956040

loop_
_geom_bond_atom_site_label_1
_geom_bond_atom_site_label_2
_ccdc_geom_bond_type
C15   H2    S    
C2    C4    A    
C6    C7    A    
C7    O3    S    
C5    C8    A    
C1    C4    S    
C8    O4    S    
C11   O9    A    
O9    Zn2   S    
C1    O7    A    
C10   O8    A    
H6    O2    S    
C5    O12   S    
N1    Zn1   S    
C2    C15   A    
C11   C13   S    
C14   H1    S    
N2    Zn2   S    
C7    N2    A    
C10   C12   S    
C16   H3    S    
C3    C9    S    
H7    O3    S    
C11   O10   A    
O11   Zn2   S    
C14   C16   A    
C10   O11   A    
C4    C14   A    
H8    O4    S    
O7    Zn2   S    
C9    O5    A    
C8    N1    A    
C5    N2    A    
C6    N1    A    
C3    C15   A    
C12   C13   T    
O6    Zn1   S    
C1    O1    A    
H5    O12   S    
C9    O6    A    
O5    Zn2   S    
C2    H4    S    
O10   Zn1   S    
C6    O2    S    
C3    C16   A    
O8    Zn1   S    
O1    Zn1   S    
