data_mof_unit_63371.cif
_audit_creation_date              2012-12-10T17:59:54-0500
_audit_creation_method            fapswitch 2.2
_symmetry_space_group_name_H-M    P1
_symmetry_Int_Tables_number       1
_space_group_crystal_system       triclinic
_cell_length_a                    18.635836
_cell_length_b                    18.621286
_cell_length_c                    18.647063
_cell_angle_alpha                 109.152543
_cell_angle_beta                  109.741014
_cell_angle_gamma                 109.153035
_cell_volume                      5003.65716737

loop_
_atom_site_label
_atom_site_type_symbol
_atom_type_description
_atom_site_fract_x
_atom_site_fract_y
_atom_site_fract_z
_atom_type_partial_charge
C1    C     C_R   0.620296 0.620148 0.499963 0.858516
C2    C     C_R   0.686613 0.686064 0.499962 -0.006247
C3    C     C_R   0.674338 0.421634 0.686677 -0.184481
C4    C     C_R   0.378959 0.499661 0.379124 0.861735
C5    C     C_R   0.738348 0.421749 0.751571 -0.188518
C6    C     C_R   0.816168 0.500153 0.815437 -0.015224
C7    C     C_R   0.829882 0.578612 0.815372 -0.185683
C8    C     C_R   0.764842 0.578804 0.751733 -0.200736
C9    C     C_R   0.687699 0.500250 0.687608 0.008158
C10   C     C_R   0.241479 0.321948 0.499319 -0.186980
C11   C     C_R   0.176690 0.257125 0.497660 -0.185577
C12   C     C_3   0.173757 0.429363 0.219212 -0.169078
C13   C     C_R   0.186090 0.186258 0.499576 -0.007218
C14   C     C_R   0.258919 0.178860 0.501772 -0.185640
C15   C     C_R   0.322365 0.242315 0.500745 -0.187514
C16   C     C_R   0.379741 0.379846 0.500066 0.857053
C17   C     C_R   0.313635 0.313845 0.500189 -0.005096
C18   C     C_R   0.002361 0.620089 0.122522 0.905174
C19   C     C_R   0.124500 0.499651 0.124370 0.857639
C20   C     C_R   0.004574 0.379770 0.884108 0.858919
C21   C     C_R   0.882725 0.500087 0.882440 0.856303
C22   C     C_R   0.000772 0.879644 0.380499 0.891760
C23   C     C_3   0.232274 0.503252 0.315651 -0.162960
C24   C     C_R   0.879876 0.879603 0.499956 0.861085
C25   C     C_R   0.999482 0.120434 0.619367 0.859316
C26   C     C_R   0.120131 0.120151 0.499802 0.858340
C27   C     C_R   0.920408 0.680303 0.176303 0.479477
C28   C     C_R   0.621137 0.500114 0.621131 0.857412
C29   C     C_R   0.920986 0.744593 0.241177 -0.289902
C30   C     C_R   0.000795 0.813419 0.314504 -0.069642
C31   C     C_R   0.080448 0.819088 0.324510 -0.182676
C32   C     C_R   0.080461 0.755653 0.260208 -0.263554
C33   C     C_R   0.000779 0.686032 0.187266 -0.114643
C34   C     C_3   0.311636 0.499123 0.311832 0.023303
C35   C     C_R   0.082376 0.321645 0.822229 -0.188137
C36   C     C_R   0.080995 0.257419 0.757205 -0.183326
C37   C     C_R   0.000479 0.187432 0.685658 -0.009253
C38   C     C_R   0.921298 0.180659 0.678832 -0.187220
C39   C     C_R   0.922690 0.243534 0.745219 -0.182914
C40   C     C_3   0.329039 0.568803 0.283967 -0.154490
C41   C     C_R   0.003236 0.313883 0.816406 -0.005842
C42   C     C_3   0.248439 0.572989 0.286492 -0.151777
C43   C     C_3   0.191130 0.499079 0.191255 0.026665
C44   C     C_3   0.270424 0.494838 0.187385 -0.164756
C45   C     C_R   0.757910 0.757223 0.579787 -0.185090
C46   C     C_3   0.254256 0.425176 0.216483 -0.170015
C47   C     C_3   0.803838 0.636414 0.047169 0.054262
C48   C     C_3   0.721375 0.556507 0.965048 -0.300895
C49   C     C_3   0.673973 0.582249 0.902237 -0.945626
C50   C     C_R   0.822613 0.820479 0.579800 -0.184782
C51   C     C_R   0.813980 0.813251 0.499990 -0.007847
C52   C     C_R   0.742088 0.742652 0.420166 -0.182319
C53   C     C_R   0.678739 0.678042 0.420152 -0.186721
H1    H     H_    0.244006 0.633195 0.312989 0.126499
H2    H     H_    0.378656 0.236518 0.501756 0.137988
H3    H     H_    0.394345 0.625594 0.312353 0.127405
H4    H     H_    0.859551 0.740088 0.235214 0.150333
H5    H     H_    0.142219 0.872885 0.381365 0.150907
H6    H     H_    0.142267 0.759855 0.267924 0.160257
H7    H     H_    0.144681 0.376266 0.877580 0.139292
H8    H     H_    0.142291 0.262555 0.762084 0.143536
H9    H     H_    0.859020 0.126037 0.623456 0.143091
H10   H     H_    0.861423 0.238160 0.740651 0.140030
H11   H     H_    0.284026 0.491358 0.133138 0.134230
H12   H     H_    0.623108 0.622864 0.358403 0.141056
H13   H     H_    0.258186 0.364736 0.189505 0.148348
H14   H     H_    0.108733 0.372322 0.191129 0.149696
H15   H     H_    0.218582 0.506630 0.369829 0.138100
H16   H     H_    0.763903 0.762901 0.641530 0.138594
H17   H     H_    0.878325 0.875553 0.641557 0.143279
H18   H     H_    0.735886 0.737128 0.358408 0.141285
H19   H     H_    0.850193 0.667287 0.027260 0.123737
H20   H     H_    0.784953 0.683598 0.078400 0.142923
H21   H     H_    0.739685 0.510431 0.931184 0.235666
H22   H     H_    0.676120 0.522477 0.984012 0.227188
H23   H     H_    0.614159 0.360935 0.636696 0.131645
H24   H     H_    0.648781 0.622493 0.932546 0.258396
H25   H     H_    0.617815 0.522499 0.840928 0.271911
H26   H     H_    0.719022 0.620235 0.885628 0.273545
H27   H     H_    0.727813 0.360863 0.751342 0.144296
H28   H     H_    0.889845 0.639507 0.865262 0.145025
H29   H     H_    0.774762 0.639541 0.751826 0.134262
H30   H     H_    0.234830 0.377382 0.498455 0.140018
H31   H     H_    0.120276 0.262789 0.496390 0.144486
H32   H     H_    0.265766 0.123592 0.502916 0.139220
O1    O     O_R   0.592040 0.539900 0.448690 -0.619029
O2    O     O_R   0.948580 0.908330 0.356880 -0.627033
O3    O     O_R   0.960490 0.908280 0.552000 -0.619067
O4    O     O_R   0.591220 0.643330 0.551330 -0.624720
O5    O     O_R   0.856260 0.908310 0.447800 -0.626835
O6    O     O_R   0.051420 0.091500 0.642940 -0.623245
O7    O     O_R   0.947190 0.091540 0.538750 -0.622156
O8    O     O_R   0.143740 0.091510 0.552020 -0.626719
O9    O     O_R   0.039510 0.091550 0.447830 -0.620769
O10   O     O_R   0.408100 0.448290 0.356370 -0.628144
O11   O     O_R   0.407270 0.551710 0.459000 -0.625339
O12   O     O_R   0.054890 0.643310 0.094620 -0.638050
O13   O     O_R   0.408780 0.356670 0.448670 -0.624368
O14   O     O_R   0.407960 0.460100 0.551310 -0.622373
O15   O     O_R   0.592730 0.448290 0.541000 -0.619357
O16   O     O_R   0.591900 0.551710 0.643630 -0.622593
O17   O     O_R   0.951430 0.539890 0.094630 -0.576699
O18   O     O_3   0.841975 0.609362 0.104975 -0.633686
O19   O     O_R   0.044450 0.448260 0.096050 -0.628624
O20   O     O_R   0.147910 0.551670 0.096030 -0.628775
O21   O     O_R   0.952840 0.356630 0.912840 -0.626672
O22   O     O_R   0.056290 0.460040 0.912820 -0.621084
O23   O     O_R   0.859820 0.448260 0.911420 -0.627978
O24   O     O_R   0.963280 0.551670 0.911400 -0.621262
O25   O     O_R   0.052810 0.908290 0.461080 -0.622449
Zn1   Zn    Zn3+2 0.500550 0.430940 0.431470 0.952603
Zn2   Zn    Zn3+2 0.499450 0.569060 0.568530 0.949022
Zn3   Zn    Zn3+2 0.934780 0.430920 0.003740 0.968471
Zn4   Zn    Zn3+2 0.072940 0.569020 0.003710 0.947661
Zn5   Zn    Zn3+2 0.069600 0.999890 0.569480 0.952001
Zn6   Zn    Zn3+2 0.930400 0.999940 0.430340 0.948288

loop_
_geom_bond_atom_site_label_1
_geom_bond_atom_site_label_2
_ccdc_geom_bond_type
C26   O9    A    
C27   C29   A    
C35   C36   A    
C20   C41   S    
C7    C8    A    
C39   C41   A    
C44   H11   S    
O16   Zn2   S    
O11   Zn2   S    
C12   C23   S    
C29   C30   A    
C23   C42   S    
C8    H29   S    
C31   H5    S    
C36   C37   A    
C46   H13   S    
C12   C43   S    
O8    Zn5   S    
C30   C31   A    
C10   C17   A    
O6    Zn5   S    
C10   H30   S    
C49   H25   S    
C1    C2    S    
C18   O17   A    
C25   C37   S    
C4    O11   A    
C28   O16   A    
C31   C32   A    
C19   C43   S    
C8    C9    A    
C22   O25   A    
C34   C46   S    
C18   O12   A    
O5    Zn6   S    
C53   H12   S    
C20   O22   A    
C28   O15   A    
C26   O8    A    
C40   C42   S    
C13   C14   A    
C48   H22   S    
C44   C46   S    
C20   O21   A    
C2    C45   A    
C38   C39   A    
C12   H14   S    
C4    C34   S    
C25   O6    A    
C47   O18   S    
O21   Zn3   S    
C45   H16   S    
C51   C52   A    
C48   H21   S    
O20   Zn4   S    
C47   H20   S    
C12   C46   S    
O9    Zn6   S    
C16   C17   S    
C40   H3    S    
C6    C21   S    
C27   C33   A    
C49   H26   S    
C35   H7    S    
C15   H2    S    
C23   H15   S    
C43   C44   S    
O22   Zn4   S    
C37   C38   A    
C3    C9    A    
C4    O10   A    
C24   O3    A    
C19   O19   A    
C47   C48   S    
O4    Zn2   S    
C23   C34   S    
C50   C51   A    
C22   O2    A    
C5    H27   S    
C3    H23   S    
O7    Zn6   S    
O2    Zn6   S    
O24   Zn4   S    
C19   O20   A    
C48   C49   S    
C7    H28   S    
C29   H4    S    
C34   C40   S    
C13   C26   S    
C42   C43   S    
C36   H8    S    
C52   C53   A    
C1    O1    A    
C15   C17   A    
C25   O7    A    
C1    O4    A    
O13   Zn1   S    
C22   C30   S    
C14   H32   S    
C3    C5    A    
C2    C53   A    
C24   O5    A    
C21   O24   A    
C16   O14   A    
C6    C7    A    
C11   H31   S    
O23   Zn3   S    
C39   H10   S    
C32   C33   A    
O3    Zn5   S    
O1    Zn1   S    
C50   H17   S    
O17   Zn3   S    
O10   Zn1   S    
C42   H1    S    
C11   C13   A    
C16   O13   A    
C5    C6    A    
C45   C50   A    
C24   C51   S    
O14   Zn2   S    
C27   O18   S    
C49   H24   S    
C35   C41   A    
C18   C33   S    
C47   H19   S    
C21   O23   A    
C10   C11   A    
O19   Zn3   S    
C40   C44   S    
O15   Zn1   S    
C52   H18   S    
C14   C15   A    
C32   H6    S    
O12   Zn4   S    
O25   Zn5   S    
C9    C28   S    
C38   H9    S    
