data_mof_unit_50430.cif
_audit_creation_date              2013-03-05T15:54:21-0500
_audit_creation_method            fapswitch 2.2
_symmetry_space_group_name_H-M    P1
_symmetry_Int_Tables_number       1
_space_group_crystal_system       triclinic
_cell_length_a                    14.986857
_cell_length_b                    14.86162
_cell_length_c                    14.859368
_cell_angle_alpha                 109.644202
_cell_angle_beta                  109.242161
_cell_angle_gamma                 109.523785
_cell_volume                      2547.82605248

loop_
_atom_site_label
_atom_site_type_symbol
_atom_site_description
_atom_site_fract_x
_atom_site_fract_y
_atom_site_fract_z
_atom_type_partial_charge
C1    C     C_R   0.930021 0.744764 0.023111 -0.149845
H1    H     H_    0.871092 0.746372 0.048696 0.109726
N1    N     N_R   0.995640 0.706130 0.053910 -0.042443
C2    C     C_R   0.780435 0.258239 0.686909 -0.135827
H2    H     H_    0.804960 0.258131 0.626541 0.114526
N2    N     N_R   0.848310 0.293860 0.791110 -0.040666
C3    C     C_R   0.096906 0.592181 0.793001 -0.161610
H3    H     H_    0.160819 0.675861 0.829624 0.100904
N3    N     N_R   0.054010 0.556790 0.847890 -0.037720
C4    C     C_R   0.700089 0.408257 0.004246 -0.153474
H4    H     H_    0.645007 0.322878 0.974125 0.087333
N4    N     N_R   0.789940 0.443190 0.997130 -0.033378
C5    C     C_R   0.005571 0.409427 0.699766 -0.148606
H5    H     H_    0.982977 0.325328 0.647954 0.089500
N5    N     N_R   0.997630 0.443170 0.791110 -0.039424
C6    C     C_R   0.791372 0.591409 0.096820 -0.156542
H6    H     H_    0.822051 0.676630 0.153819 0.090294
N6    N     N_R   0.846320 0.556810 0.053910 -0.033037
C7    C     C_R   0.685942 0.251501 0.776016 -0.115689
H7    H     H_    0.621507 0.239325 0.796110 0.090345
N7    N     N_R   0.791080 0.293860 0.847890 -0.040792
C8    C     C_R   0.025295 0.749970 0.934528 -0.129568
H8    H     H_    0.057441 0.761171 0.881502 0.093919
N8    N     N_R   0.052880 0.706130 0.997130 -0.043613
C9    C     C_R   0.947186 0.774382 0.948892 0.076148
C10   C     C_R   0.677192 0.228681 0.673651 0.067425
C11   C     C_R   0.067828 0.501702 0.698960 0.085088
C12   C     C_R   0.699505 0.499764 0.067729 0.007744
C13   C     C_R   0.067319 0.592933 0.314110 -0.135129
H9    H     H_    0.125255 0.678230 0.374978 0.114700
N9    N     N_R   0.002370 0.556830 0.208890 -0.040338
C14   C     C_R   0.222763 0.407320 0.973136 -0.134402
H10   H     H_    0.201325 0.321753 0.935144 0.091246
N10   N     N_R   0.153680 0.443190 0.946090 -0.037423
C15   C     C_R   0.299928 0.803003 0.208470 -0.089212
H11   H     H_    0.348792 0.831228 0.173804 0.060859
N11   N     N_R   0.208920 0.706140 0.152110 -0.041445
C16   C     C_R   0.904577 0.195692 0.994952 -0.155019
H12   H     H_    0.840259 0.167454 0.013564 0.103038
N12   N     N_R   0.947120 0.293870 0.002870 -0.038095
C17   C     C_R   0.997446 0.195054 0.905340 -0.129881
H13   H     H_    0.020755 0.166226 0.844633 0.085319
N13   N     N_R   0.004360 0.293870 0.946090 -0.037202
C18   C     C_R   0.210611 0.804679 0.301678 -0.135308
H14   H     H_    0.180149 0.834608 0.354867 0.081701
N14   N     N_R   0.151690 0.706140 0.208890 -0.040929
C19   C     C_R   0.973271 0.408544 0.223950 -0.126699
H15   H     H_    0.941403 0.323168 0.202901 0.092925
N15   N     N_R   0.945990 0.443210 0.152110 -0.039368
C20   C     C_R   0.314457 0.592233 0.065712 -0.122571
H16   H     H_    0.377507 0.677838 0.114207 0.113219
N16   N     N_R   0.210060 0.556810 0.002870 -0.041215
Ni1   Ni    Ni4+2 0.999010 0.630300 0.130220 0.208865
Ni2   Ni    Ni4+2 0.000990 0.369700 0.869780 0.212425
Ni3   Ni    Ni4+2 0.130280 0.630280 0.000000 0.206427
Ni4   Ni    Ni4+2 0.869720 0.369720 0.000000 0.213173
C21   C     C_R   0.050746 0.501867 0.327080 0.071388
C22   C     C_R   0.325379 0.499627 0.048909 0.010515
C23   C     C_R   0.304404 0.866626 0.303535 0.109281
C24   C     C_R   0.934507 0.131358 0.934400 0.078162
C25   C     C_3   0.535034 0.494909 0.963042 -0.386998
H17   H     H_    0.514103 0.420534 0.889626 0.155297
H18   H     H_    0.583260 0.568642 0.960427 0.157138
C26   C     C_3   0.430265 0.491276 0.956124 -0.395586
H19   H     H_    0.425766 0.560596 0.945368 0.156077
H20   H     H_    0.359073 0.413042 0.881780 0.159978
H21   H     H_    0.505982 0.319785 0.002160 0.148737
H22   H     H_    0.357189 0.320179 0.002601 0.148255
C27   C     C_3   0.532589 0.398138 0.074463 -0.403510
C28   C     C_3   0.633064 0.605293 0.171384 -0.410480
C29   C     C_3   0.602639 0.499544 0.070519 0.379422
H23   H     H_    0.679831 0.608403 0.249216 0.167952
H24   H     H_    0.684655 0.681095 0.174151 0.157291
C30   C     C_3   0.426605 0.499169 0.061481 0.332042
C31   C     C_3   0.429799 0.399851 0.072608 -0.388650
C32   C     C_3   0.528978 0.606476 0.163913 -0.319534
H25   H     H_    0.532581 0.679568 0.157137 0.182472
H26   H     H_    0.526298 0.615296 0.240227 0.198915
H27   H     H_    0.581184 0.398946 0.150082 0.157048
H28   H     H_    0.430107 0.406354 0.149551 0.162288
C33   C     C_R   0.577210 0.120912 0.469528 0.097726
C34   C     C_R   0.577049 0.170798 0.568008 0.094803
C35   C     C_R   0.475297 0.142192 0.563319 -0.192810
H29   H     H_    0.470243 0.183848 0.635232 0.115686
C36   C     C_R   0.380613 0.047522 0.470392 -0.175373
H30   H     H_    0.305484 0.020419 0.473127 0.113581
C37   C     C_R   0.388192 0.981642 0.382795 0.086963
C38   C     C_R   0.485306 0.025227 0.380667 -0.033122
C39   C     C_3   0.550288 0.974986 0.350003 0.236277
C40   C     C_3   0.651165 0.081532 0.444919 -0.590965
H31   H     H_    0.541270 0.958667 0.267871 0.035194
H32   H     H_    0.700634 0.069848 0.509820 0.228270
H33   H     H_    0.698516 0.130216 0.417581 0.166543
C41   C     C_R   0.156455 0.605294 0.531981 0.179493
C42   C     C_R   0.100091 0.505743 0.432101 0.033789
C43   C     C_R   0.074691 0.407614 0.436319 -0.198391
H34   H     H_    0.038806 0.329382 0.363131 0.127572
C44   C     C_R   0.078019 0.407133 0.531432 -0.206128
H35   H     H_    0.044436 0.328492 0.527808 0.127699
C45   C     C_R   0.107696 0.505031 0.622052 0.026937
C46   C     C_R   0.160645 0.604832 0.625920 0.159769
C47   C     C_3   0.151686 0.706641 0.664892 -0.527523
C48   C     C_3   0.146372 0.707000 0.562108 -0.522211
H36   H     H_    0.074415 0.691811 0.666229 0.200525
H37   H     H_    0.227317 0.777834 0.741323 0.190804
H38   H     H_    0.065787 0.692099 0.505895 0.198261
H39   H     H_    0.218600 0.778824 0.579449 0.198689
C49   C     C_R   0.841958 0.873205 0.945353 0.162839
C50   C     C_R   0.898322 0.829880 0.902895 0.028361
C51   C     C_R   0.925038 0.860446 0.831312 -0.198311
H40   H     H_    0.960855 0.823266 0.789315 0.127169
C52   C     C_R   0.923391 0.953194 0.828675 -0.182908
H41   H     H_    0.958002 0.983867 0.784727 0.127105
C53   C     C_R   0.893847 0.013997 0.896721 0.033564
C54   C     C_R   0.839296 0.963816 0.941709 0.172026
C55   C     C_3   0.846933 0.010833 0.051999 -0.526297
C56   C     C_3   0.850675 0.912493 0.056672 -0.522346
H42   H     H_    0.924343 0.089619 0.116020 0.198614
H43   H     H_    0.771272 0.011411 0.046224 0.191810
H44   H     H_    0.930565 0.936676 0.123470 0.200654
H45   H     H_    0.777558 0.856918 0.054438 0.191119
N17   N     N_R   0.541976 0.882950 0.369784 0.247511
O1    O     O_R   0.594980 0.834844 0.343815 -0.449134
O2    O     O_R   0.508265 0.868184 0.436717 -0.391713

loop_
_geom_bond_atom_site_label_1
_geom_bond_atom_site_label_2
_geom_bond_distance
_ccdc_geom_bond_type
C6    C12   1.376939 A    
C37   C38   1.397427 A    
C46   C47   1.496878 S    
C17   H13   1.080369 S    
C24   C53   1.461187 S    
C42   C43   1.407746 A    
C14   C22   1.387371 A    
C52   C53   1.408239 A    
C53   C54   1.399769 A    
C3    H3    1.079552 S    
C19   N15   1.339795 A    
C36   H30   1.081515 S    
C49   C50   1.402790 A    
N8    Ni3   1.868633 S    
C30   C32   1.551521 S    
C35   H29   1.082010 S    
C49   C54   1.378924 A    
C7    N7    1.339949 A    
C32   H26   1.112792 S    
C16   H12   1.079398 S    
C39   N17   1.467449 S    
C18   C23   1.384414 A    
C54   C55   1.496701 S    
C3    C11   1.376329 A    
C55   C56   1.504790 S    
C47   H37   1.111783 S    
C15   C23   1.375174 A    
C1    H1    1.074423 S    
C27   C29   1.555395 S    
C7    C10   1.392055 A    
C56   H45   1.112063 S    
C51   H40   1.081705 S    
N6    Ni1   1.871276 S    
N12   N13   1.387379 A    
C15   H11   1.079890 S    
C41   C46   1.378920 A    
C6    H6    1.079672 S    
N12   Ni4   1.868631 S    
C8    C9    1.394273 A    
C43   C44   1.400213 A    
C20   N16   1.324013 A    
C28   C29   1.552753 S    
N3    Ni3   1.846907 S    
C39   H31   1.112156 S    
C31   H28   1.112856 S    
N16   Ni3   1.869200 S    
C9    C50   1.461695 S    
C25   C29   1.547473 S    
C10   C34   1.460459 S    
C5    H5    1.080663 S    
C1    C9    1.383432 A    
C17   N13   1.339070 A    
N1    N8    1.387378 A    
C47   C48   1.504871 S    
N9    N15   1.376832 A    
C52   H41   1.081065 S    
C18   N14   1.341996 A    
C33   C34   1.401831 A    
C23   C37   1.456947 S    
C36   C37   1.407370 A    
C11   C45   1.460753 S    
C30   C31   1.553838 S    
C20   C22   1.389140 A    
N5    Ni2   1.848626 S    
C32   H25   1.109491 S    
C2    N2    1.327865 A    
C56   H44   1.112257 S    
N2    N7    1.387256 A    
C34   C35   1.409893 A    
H21   C27   1.111458 S    
C26   H20   1.113978 S    
C25   C26   1.520554 S    
C13   H9    1.074574 S    
C19   C21   1.393541 A    
N13   Ni2   1.848739 S    
C40   H32   1.112299 S    
C19   H15   1.079592 S    
C43   H34   1.081729 S    
C28   H24   1.111003 S    
C25   H18   1.114637 S    
C20   H16   1.077961 S    
C41   C42   1.402543 A    
N9    Ni1   1.848626 S    
C47   H36   1.112451 S    
N4    Ni4   1.869200 S    
C4    N4    1.325706 A    
C16   C24   1.378122 A    
C33   C40   1.503831 S    
C35   C36   1.402722 A    
C13   C21   1.383018 A    
C41   C48   1.500087 S    
N2    Ni2   1.870819 S    
C44   C45   1.408307 A    
C5    N5    1.340398 A    
C28   C32   1.533450 S    
C8    N8    1.339702 A    
C27   H27   1.113029 S    
C12   C29   1.464860 S    
N17   O2    1.302463 A    
C18   H14   1.080793 S    
C22   C30   1.468806 S    
C40   H33   1.111999 S    
C48   H39   1.111958 S    
C4    C12   1.374852 A    
C3    N3    1.327854 A    
C15   N11   1.325946 A    
C49   C56   1.500449 S    
C17   C24   1.385213 A    
C2    H2    1.075419 S    
N7    Ni4   1.847048 S    
C2    C10   1.382921 A    
N10   Ni2   1.871273 S    
N15   Ni4   1.846905 S    
N10   N16   1.376831 A    
C55   H43   1.111795 S    
C14   H10   1.078767 S    
C7    H7    1.078894 S    
C39   C40   1.508332 S    
C13   N9    1.328027 A    
C50   C51   1.407884 A    
C26   H19   1.114205 S    
C16   N12   1.327634 A    
N1    Ni1   1.848741 S    
H22   C31   1.110307 S    
N14   Ni1   1.870819 S    
C45   C46   1.399576 A    
C55   H42   1.112466 S    
C27   C31   1.540531 S    
C48   H38   1.112319 S    
N3    N5    1.376831 A    
C25   H17   1.114546 S    
C51   C52   1.400179 A    
C33   C38   1.375655 A    
C4    H4    1.079968 S    
N11   Ni3   1.847047 S    
C38   C39   1.504438 S    
C6    N6    1.325810 A    
C44   H35   1.081106 S    
C21   C42   1.461476 S    
N4    N6    1.376831 A    
N17   O1    1.298925 A    
C26   C30   1.550841 S    
C8    H8    1.079545 S    
C5    C11   1.383652 A    
C28   H23   1.113137 S    
C1    N1    1.328031 A    
N11   N14   1.387255 A    
C14   N10   1.325254 A    
