data_mof_unit_27162.cif
_audit_creation_date              2012-12-10T17:54:23-0500
_audit_creation_method            fapswitch 2.2
_symmetry_space_group_name_H-M    P1
_symmetry_Int_Tables_number       1
_space_group_crystal_system       triclinic
_cell_length_a                    27.741552
_cell_length_b                    10.720952
_cell_length_c                    9.87092
_cell_angle_alpha                 89.160412
_cell_angle_beta                  89.955968
_cell_angle_gamma                 91.751542
_cell_volume                      2934.07913845

loop_
_atom_site_label
_atom_site_type_symbol
_atom_type_description
_atom_site_fract_x
_atom_site_fract_y
_atom_site_fract_z
_atom_type_partial_charge
C1    C     C_R   0.502823 0.259736 0.502079 0.875477
C2    C     C_R   0.277818 0.482703 0.378729 -0.102864
C3    C     C_R   0.252999 0.492438 0.501135 0.324529
C4    C     C_R   0.101842 0.493873 0.501025 -0.051831
C5    C     C_R   0.125928 0.381021 0.486784 -0.020738
C6    C     C_R   0.099354 0.269347 0.473542 -0.137316
C7    C     C_R   0.128948 0.606127 0.515385 -0.022212
C8    C     C_R   0.353401 0.496756 0.500398 -0.036528
C9    C     C_R   0.646630 0.499810 0.499868 -0.045679
C10   C     C_R   0.973044 0.382983 0.474476 0.045586
C11   C     C_R   0.976082 0.607916 0.526657 0.046341
C12   C     C_R   0.406052 0.499213 0.500075 0.851897
C13   C     C_R   0.949345 0.495778 0.500442 0.071132
C14   C     C_R   0.944721 0.275851 0.440924 -0.215975
C15   C     C_R   0.894796 0.278136 0.438949 -0.134545
C16   C     C_R   0.871204 0.387232 0.469621 -0.022264
C17   C     C_R   0.898282 0.496453 0.500189 -0.051456
C18   C     C_R   0.874169 0.606355 0.530513 -0.021324
C19   C     C_R   0.823743 0.604929 0.529829 0.504572
C20   C     C_R   0.820828 0.390002 0.469859 0.505132
C21   C     C_R   0.722021 0.494066 0.377049 -0.099426
C22   C     C_R   0.671958 0.494849 0.376891 -0.213282
C23   C     C_R   0.494911 0.738800 0.499587 0.893460
C24   C     C_R   0.672054 0.504183 0.622790 -0.213376
C25   C     C_R   0.722116 0.503582 0.622545 -0.099014
C26   C     C_R   0.747047 0.498443 0.499780 0.319551
C27   C     C_R   0.024025 0.381054 0.481692 0.046857
C28   C     C_R   0.050779 0.494490 0.500862 0.070756
C29   C     C_R   0.027098 0.608555 0.519836 0.046311
C30   C     C_R   0.049387 0.269024 0.471433 -0.215402
C31   C     C_R   0.105409 0.718407 0.528448 -0.135231
C32   C     C_R   0.950662 0.715735 0.560030 -0.216405
C33   C     C_R   0.900696 0.714776 0.561485 -0.136810
C34   C     C_R   0.593961 0.500172 0.499961 0.885035
C35   C     C_R   0.055479 0.719938 0.530226 -0.215223
C36   C     C_R   0.506654 0.106460 0.762771 -0.161122
C37   C     C_R   0.490165 0.042717 0.878842 -0.145170
C38   C     C_R   0.464969 0.929518 0.866903 -0.152604
C39   C     C_R   0.460665 0.874458 0.740396 -0.145229
C40   C     C_R   0.481486 0.933261 0.623814 0.099206
C41   C     C_R   0.497779 0.057488 0.631815 0.097212
C42   C     C_R   0.504336 0.125644 0.507869 -0.119422
C43   C     C_R   0.504661 0.064443 0.383781 -0.212746
C44   C     C_R   0.498539 0.937530 0.380576 -0.209178
C45   C     C_R   0.176367 0.382587 0.487267 0.503687
C46   C     C_R   0.488516 0.871128 0.500296 -0.127993
C47   C     C_R   0.436128 0.337313 0.142907 -0.177156
C48   C     C_R   0.404518 0.257933 0.073566 -0.211521
C49   C     C_R   0.404461 0.258362 0.933388 -0.178571
C50   C     C_R   0.436142 0.337847 0.861839 -0.167806
C51   C     C_R   0.468511 0.419945 0.928789 0.149203
C52   C     C_R   0.468521 0.419855 0.073645 0.170726
C53   C     C_R   0.529978 0.576955 0.070339 -0.127360
C54   C     C_R   0.529964 0.576917 0.926935 -0.118709
C55   C     C_R   0.179310 0.603431 0.515092 0.504784
C56   C     C_R   0.278072 0.503636 0.623245 -0.102018
C57   C     C_R   0.328153 0.505510 0.623123 -0.222941
C58   C     C_R   0.327908 0.484996 0.378132 -0.219868
H1    H     H_    0.346566 0.477484 0.282303 0.166067
H2    H     H_    0.258670 0.511086 0.717880 0.138096
H3    H     H_    0.125520 0.806165 0.537179 0.191970
H4    H     H_    0.968219 0.802328 0.588592 0.141477
H5    H     H_    0.653360 0.508131 0.718929 0.161828
H6    H     H_    0.882922 0.799861 0.587294 0.191304
H7    H     H_    0.741614 0.506801 0.717495 0.140142
H8    H     H_    0.510397 0.114292 0.288519 0.171944
H9    H     H_    0.527760 0.191094 0.778899 0.173383
H10   H     H_    0.496164 0.082498 0.977845 0.146190
H11   H     H_    0.258221 0.474159 0.284314 0.138334
H12   H     H_    0.450243 0.882298 0.956092 0.142095
H13   H     H_    0.440968 0.786011 0.734743 0.160371
H14   H     H_    0.502679 0.891464 0.284435 0.169515
H15   H     H_    0.554422 0.639727 0.123420 0.148819
H16   H     H_    0.433978 0.330984 0.250324 0.209957
H17   H     H_    0.380013 0.195463 0.129133 0.164390
H18   H     H_    0.380062 0.195884 0.879564 0.165456
H19   H     H_    0.434569 0.331046 0.754550 0.211963
H20   H     H_    0.554386 0.639705 0.871694 0.156130
H21   H     H_    0.117089 0.181146 0.464881 0.189513
H22   H     H_    0.653186 0.491401 0.280791 0.162779
H23   H     H_    0.741452 0.490342 0.282068 0.140229
H24   H     H_    0.874730 0.193540 0.413002 0.192974
H25   H     H_    0.959945 0.188804 0.412628 0.142160
H26   H     H_    0.031763 0.178487 0.464471 0.138861
H27   H     H_    0.347003 0.514368 0.718723 0.165391
N1    N     N_R   0.201710 0.492749 0.501240 -0.358822
N2    N     N_R   0.798377 0.497781 0.499765 -0.358194
N3    N     N_R   0.499540 0.498800 0.142780 -0.122047
N4    N     N_R   0.499520 0.498720 0.857170 -0.127654
O1    O     O_R   0.500000 0.316780 0.614690 -0.653780
O2    O     O_2   0.794390 0.285850 0.441468 -0.551275
O3    O     O_2   0.205800 0.710343 0.527960 -0.551391
O4    O     O_2   0.800141 0.709751 0.558001 -0.551949
O5    O     O_R   0.500000 0.316750 0.385360 -0.638425
O6    O     O_R   0.428760 0.500030 0.614650 -0.647983
O7    O     O_R   0.428750 0.500010 0.385320 -0.639143
O8    O     O_R   0.500000 0.683250 0.614640 -0.622816
O9    O     O_R   0.500000 0.683220 0.385310 -0.617941
O10   O     O_R   0.571250 0.499990 0.614680 -0.620150
O11   O     O_R   0.571240 0.499970 0.385350 -0.617744
O12   O     O_2   0.200002 0.275170 0.474397 -0.553554
Zn1   Zn    Zn3+2 0.500000 0.500020 0.653130 0.928023
Zn2   Zn    Zn3+2 0.500000 0.499980 0.346870 0.939048
H28   H     H_    0.040321 0.810885 0.536988 0.139321

loop_
_geom_bond_atom_site_label_1
_geom_bond_atom_site_label_2
_ccdc_geom_bond_type
C10   C27   A    
C21   C26   A    
C38   H12   S    
C1    O1    A    
N4    Zn1   S    
C41   C42   A    
C31   H3    S    
C7    C55   A    
C36   H9    S    
C53   C54   A    
C40   C46   A    
C37   C38   A    
C28   C29   A    
C19   N2    A    
C43   H8    S    
C5    C6    A    
C9    C22   A    
O9    Zn2   S    
C37   H10   S    
C56   C57   A    
C18   C19   A    
O1    Zn1   S    
C8    C58   A    
C16   C17   A    
C34   O11   A    
C12   O6    A    
C2    H11   S    
O8    Zn1   S    
C19   O4    S    
O6    Zn1   S    
C16   C20   A    
C23   C46   S    
C21   C22   A    
C3    N1    S    
C48   H17   S    
C36   C41   A    
C14   H25   S    
C4    C7    A    
C4    C28   A    
C44   C46   A    
C50   C51   A    
C15   H24   S    
C20   O2    S    
C7    C31   A    
C51   C52   A    
C52   N3    A    
C25   H7    S    
C24   C25   A    
C54   N4    A    
C35   H28   S    
C10   C14   A    
C39   C40   A    
C26   N2    S    
C58   H1    S    
C5    C45   A    
O11   Zn2   S    
C56   H2    S    
C43   C44   A    
C55   O3    S    
C8    C57   A    
C3    C56   A    
C47   C48   A    
C8    C12   S    
C23   O9    A    
C17   C18   A    
C49   H18   S    
C45   O12   S    
C40   C41   A    
C23   O8    A    
C21   H23   S    
O5    Zn2   S    
C24   H5    S    
C9    C34   S    
C31   C35   A    
C42   C43   A    
C50   H19   S    
N3    Zn2   S    
C36   C37   A    
C6    C30   A    
C53   H15   S    
C47   H16   S    
C4    C5    A    
C10   C13   A    
C1    O5    A    
C11   C32   A    
C2    C58   A    
C9    C24   A    
C47   C52   A    
C34   O10   A    
C29   C35   A    
C13   C17   A    
C32   C33   A    
C55   N1    A    
C45   N1    A    
C25   C26   A    
C22   H22   S    
C51   N4    A    
C20   N2    A    
C11   C13   A    
C6    H21   S    
C38   C39   A    
C33   H6    S    
C48   C49   A    
C57   H27   S    
C44   H14   S    
C53   N3    A    
C30   H26   S    
C18   C33   A    
C32   H4    S    
C1    C42   S    
O10   Zn1   S    
C11   C29   A    
C49   C50   A    
O7    Zn2   S    
C27   C28   A    
C39   H13   S    
C14   C15   A    
C12   O7    A    
C2    C3    A    
C54   H20   S    
C15   C16   A    
C27   C30   A    
