data_mof_unit_8490.cif
_audit_creation_date              2012-12-11T17:43:36-0500
_audit_creation_method            fapswitch 2.2
_symmetry_space_group_name_H-M    P1
_symmetry_Int_Tables_number       1
_space_group_crystal_system       triclinic
_cell_length_a                    15.050828
_cell_length_b                    14.953368
_cell_length_c                    17.31985
_cell_angle_alpha                 108.426295
_cell_angle_beta                  105.710382
_cell_angle_gamma                 109.178601
_cell_volume                      3173.03390692

loop_
_atom_site_label
_atom_site_type_symbol
_atom_type_description
_atom_site_fract_x
_atom_site_fract_y
_atom_site_fract_z
_atom_type_partial_charge
C1    C     C_R   0.082112 0.286451 0.078430 -0.118047
C2    C     C_R   0.078314 0.110645 0.127000 -0.213721
C3    C     C_R   0.989355 0.922213 0.076167 0.042303
C4    C     C_R   0.986084 0.108217 0.077899 0.042589
C5    C     C_R   0.080337 0.019476 0.130626 0.069206
C6    C     C_R   0.891516 0.018127 0.048715 0.071712
C7    C     C_R   0.706338 0.944799 0.942725 -0.289715
C8    C     C_R   0.166501 0.991654 0.260174 -0.215704
C9    C     C_R   0.597340 0.021994 0.983175 0.837897
C10   C     C_R   0.353294 0.080011 0.341039 0.770116
C11   C     C_R   0.491429 0.652371 0.263547 -0.040585
C12   C     C_R   0.908128 0.721962 0.977017 -0.113856
C13   C     C_R   0.494546 0.264236 0.660612 -0.009112
C14   C     C_R   0.479820 0.611826 0.174866 -0.137862
C15   C     C_R   0.491749 0.293383 0.744681 -0.150888
C16   C     C_R   0.938047 0.511707 0.746015 0.024563
C17   C     C_R   0.060144 0.529966 0.263153 -0.060800
C18   C     C_R   0.466485 0.508508 0.131537 0.090452
C19   C     C_R   0.467118 0.376237 0.779105 0.099540
C20   C     C_R   0.465526 0.446789 0.178219 -0.173107
C21   C     C_R   0.444610 0.428511 0.727454 -0.151032
C22   C     C_R   0.475832 0.487285 0.266509 -0.128544
C23   C     C_R   0.030358 0.560955 0.741819 0.205485
C24   C     C_R   0.447709 0.399147 0.643509 -0.139338
C25   C     C_R   0.488898 0.590078 0.309182 -0.015752
C26   C     C_R   0.472767 0.317196 0.610175 -0.028286
C27   C     C_R   0.539300 0.451027 0.027728 -0.205405
C28   C     C_R   0.379942 0.420091 0.878757 -0.213205
C29   C     C_R   0.544653 0.426142 0.945102 0.067407
C30   C     C_R   0.377635 0.449749 0.963011 0.063548
C31   C     C_R   0.464423 0.407945 0.868587 0.032861
C32   C     C_R   0.458179 0.466155 0.038598 0.022762
C33   C     C_R   0.610802 0.946935 0.921369 -0.212262
C34   C     C_R   0.965296 0.502942 0.268937 0.215238
C35   C     C_R   0.255535 0.015991 0.331587 -0.252755
C36   C     C_R   0.951247 0.505824 0.347810 -0.458805
C37   C     C_R   0.036533 0.572282 0.664434 -0.484161
C38   C     C_R   0.092723 0.678129 0.591620 0.785142
C39   C     C_R   0.887203 0.406498 0.422309 0.810107
C40   C     C_R   0.764425 0.201252 0.816133 -0.149556
C41   C     C_R   0.272541 0.790430 0.179040 -0.190676
C42   C     C_R   0.098820 0.668952 0.669939 0.547257
C43   C     C_R   0.883686 0.412524 0.344209 0.502690
C44   C     C_R   0.970126 0.484248 0.582613 0.856650
C45   C     C_R   0.735144 0.193450 0.731189 -0.004881
C46   C     C_R   0.017053 0.596115 0.428713 0.862331
C47   C     C_R   0.959280 0.493433 0.504419 -0.548151
C48   C     C_R   0.022703 0.590651 0.508322 -0.531132
C49   C     C_R   0.659953 0.098951 0.652824 -0.332861
C50   C     C_R   0.409237 0.873890 0.336083 -0.310690
C51   C     C_R   0.589709 0.998084 0.410536 -0.124444
C52   C     C_R   0.484426 0.963656 0.576364 -0.205454
C53   C     C_R   0.501413 0.928732 0.331519 0.691234
C54   C     C_R   0.568969 0.036445 0.655315 0.650714
C55   C     C_R   0.402865 0.889411 0.417465 0.821878
C56   C     C_R   0.320178 0.790311 0.258709 -0.026050
C57   C     C_R   0.670378 0.082520 0.572599 0.843356
C58   C     C_R   0.490586 0.953822 0.495517 -0.217116
C59   C     C_R   0.584843 0.010584 0.492779 -0.227396
C60   C     C_R   0.679298 0.094773 0.066658 -0.245413
C61   C     C_R   0.362407 0.116926 0.277527 -0.213855
C62   C     C_R   0.775025 0.093001 0.088373 -0.185226
C63   C     C_R   0.273680 0.093304 0.206316 -0.271906
C64   C     C_R   0.263205 0.537430 0.953867 -0.122239
C65   C     C_R   0.700698 0.404652 0.997829 -0.133868
C66   C     C_R   0.789583 0.018639 0.026104 0.081360
C67   C     C_R   0.292175 0.465240 0.972493 0.048208
C68   C     C_R   0.174725 0.031898 0.197862 0.102637
C69   C     C_R   0.766020 0.294455 0.737088 0.775558
C70   C     C_R   0.265994 0.693691 0.254209 0.786770
C71   C     C_R   0.249589 0.436611 0.026942 -0.090429
C72   C     C_R   0.704855 0.500704 0.922170 -0.133732
C73   C     C_R   0.110788 0.593188 0.821155 -0.076248
C74   C     C_R   0.886597 0.447382 0.184218 -0.054437
C75   C     C_R   0.911869 0.202165 0.997905 -0.121679
C76   C     C_R   0.081068 0.806087 0.050724 -0.083722
C77   C     C_R   0.992976 0.194254 0.051091 0.067102
C78   C     C_R   0.643247 0.437305 0.948458 0.052200
C79   C     C_R   0.992475 0.820175 0.039638 0.051277
C80   C     C_R   0.894582 0.924676 0.044697 -0.212287
F1    F     F_    0.078751 0.686302 0.428982 -0.603249
F2    F     F_    0.506745 0.911925 0.251536 -0.687763
F3    F     F_    0.504738 0.024142 0.962180 -0.657117
F4    F     F_    0.439240 0.108086 0.412715 -0.726653
F5    F     F_    0.736001 0.320188 0.669521 -0.677601
F6    F     F_    0.300210 0.652796 0.308713 -0.726657
F7    F     F_    0.916837 0.389182 0.580073 -0.581782
F8    F     F_    0.820785 0.323791 0.265676 -0.693412
F9    F     F_    0.162368 0.754584 0.750471 -0.629890
F10   F     F_    0.153961 0.772288 0.597664 -0.571512
F11   F     F_    0.822887 0.313971 0.416829 -0.571254
F12   F     F_    0.761009 0.142001 0.572695 -0.619434
F13   F     F_    0.310354 0.841063 0.420251 -0.655946
F14   F     F_    0.557753 0.053320 0.733138 -0.684500
H1    H     H_    0.158008 0.313819 0.129122 0.099292
H2    H     H_    0.673165 0.346400 0.021203 0.122810
H3    H     H_    0.830530 0.151787 0.970956 0.118490
H4    H     H_    0.160437 0.864847 0.088922 0.119909
H5    H     H_    0.715967 0.886893 0.893842 0.161673
H6    H     H_    0.091193 0.944889 0.255414 0.168279
H7    H     H_    0.502774 0.732196 0.297117 0.125640
H8    H     H_    0.513452 0.200509 0.634423 0.153413
H9    H     H_    0.482055 0.660946 0.140256 0.149742
H10   H     H_    0.508256 0.251021 0.782629 0.168574
H11   H     H_    0.456082 0.367239 0.145941 0.138533
H12   H     H_    0.827302 0.703339 0.950360 0.096619
H13   H     H_    0.425927 0.492833 0.752598 0.121972
H14   H     H_    0.474226 0.439176 0.301976 0.127979
H15   H     H_    0.430844 0.440109 0.604337 0.131475
H16   H     H_    0.861633 0.491033 0.700009 0.178668
H17   H     H_    0.135989 0.566972 0.317259 0.206428
H18   H     H_    0.547319 0.890558 0.856738 0.184178
H19   H     H_    0.248554 0.987093 0.380662 0.205675
H20   H     H_    0.661172 0.040970 0.407304 0.231489
H21   H     H_    0.413029 0.919100 0.578925 0.253368
H22   H     H_    0.668666 0.152676 0.114477 0.219720
H23   H     H_    0.497455 0.621646 0.377713 0.131761
H24   H     H_    0.438170 0.165837 0.284505 0.179676
H25   H     H_    0.838060 0.150042 0.153146 0.203786
H26   H     H_    0.282082 0.124627 0.158825 0.163166
H27   H     H_    0.259178 0.384000 0.055533 0.112514
H28   H     H_    0.681008 0.532494 0.876737 0.109346
H29   H     H_    0.191802 0.644142 0.842971 0.152799
H30   H     H_    0.804115 0.410994 0.165202 0.144820
H31   H     H_    0.822374 0.853533 0.014994 0.129658
H32   H     H_    0.149621 0.183390 0.162591 0.125169
H33   H     H_    0.475207 0.294719 0.545233 0.169602
H34   H     H_    0.603513 0.468266 0.086767 0.137422
H35   H     H_    0.316032 0.406543 0.821568 0.143963
H36   H     H_    0.746873 0.137613 0.835163 0.181611
H37   H     H_    0.302292 0.849424 0.157077 0.187742
H38   H     H_    0.288108 0.579361 0.917106 0.108922
N1    N     N_R   0.055660 0.348550 0.045620 -0.043249
N2    N     N_R   0.185200 0.638170 0.176300 -0.121848
N3    N     N_R   0.201680 0.494570 0.045620 -0.051974
N4    N     N_R   0.798320 0.505430 0.954380 -0.044818
N5    N     N_R   0.068420 0.560530 0.871650 -0.069381
N6    N     N_R   0.931580 0.439470 0.128350 -0.068241
N7    N     N_R   0.948070 0.295860 0.997670 -0.044301
N8    N     N_R   0.051930 0.704140 0.002330 -0.044808
N9    N     N_R   0.944340 0.651450 0.954380 -0.049475
N10   N     N_R   0.960830 0.507850 0.823700 -0.077563
N11   N     N_R   0.039170 0.492150 0.176300 -0.069935
N12   N     N_R   0.811290 0.303410 0.871650 -0.093041
N13   N     N_R   0.188710 0.696590 0.128350 -0.092635
N14   N     N_R   0.205200 0.552990 0.997670 -0.045154
N15   N     N_R   0.794800 0.447010 0.002330 -0.045073
N16   N     N_R   0.814800 0.361830 0.823700 -0.133043
Ni1   Ni    Ni4+2 0.119340 0.493420 0.109960 0.254537
Ni2   Ni    Ni4+2 0.880660 0.506580 0.890040 0.235732
Ni3   Ni    Ni4+2 0.872590 0.372590 0.000000 0.222188
Ni4   Ni    Ni4+2 0.127410 0.627410 0.000000 0.237200

loop_
_geom_bond_atom_site_label_1
_geom_bond_atom_site_label_2
_ccdc_geom_bond_type
C74   H30   S    
N5    N10   A    
C57   F12   S    
C27   C29   A    
C1    C77   A    
C14   C18   A    
C16   N10   A    
C76   C79   A    
C55   F13   S    
C19   C31   S    
C16   H16   S    
C15   C19   A    
C74   N6    A    
C18   C32   S    
C7    H5    S    
C43   F8    S    
C19   C21   A    
N16   Ni2   S    
C38   C42   A    
N12   Ni3   S    
N6    N11   A    
C71   N3    A    
C11   C14   A    
C57   C59   A    
C80   H31   S    
C11   C25   A    
C76   H4    S    
C49   C54   A    
C12   C79   A    
C75   H3    S    
C49   C57   A    
C12   N9    A    
C60   C62   A    
C28   H35   S    
N7    Ni3   S    
C37   C42   A    
C61   C63   A    
C72   C78   A    
C65   H2    S    
C29   C78   S    
C64   H38   S    
C28   C30   A    
C73   H29   S    
C22   C25   A    
N11   Ni1   S    
N5    Ni4   S    
C36   C46   A    
C10   C35   A    
C15   H10   S    
C65   N15   A    
C44   F7    S    
N8    Ni4   S    
C67   C71   A    
C30   C67   S    
C44   C47   A    
N12   N16   A    
C72   H28   S    
C61   H24   S    
C3    C79   S    
N4    N15   A    
C9    C33   A    
C7    C33   A    
C23   C73   A    
C5    C68   S    
C1    N1    A    
C3    C80   A    
C17   H17   S    
C39   F11   S    
C52   C54   A    
N9    Ni2   S    
C76   N8    A    
C40   C45   A    
C46   C48   A    
C51   H20   S    
C62   C66   A    
C45   C69   A    
C50   C53   A    
C64   C67   A    
N1    Ni1   S    
N8    N9    A    
C4    C6    A    
C41   H37   S    
C39   C43   A    
C58   C59   A    
N3    Ni1   S    
N2    Ni1   S    
C50   C56   S    
C53   F2    S    
C51   C53   A    
C8    C35   A    
C2    C4    A    
C41   C56   A    
C46   F1    S    
C27   H34   S    
C6    C80   A    
C47   C48   A    
C45   C49   S    
C1    H1    S    
N3    N14   A    
C11   H7    S    
C33   H18   S    
C75   C77   A    
C62   H25   S    
C21   H13   S    
C52   C58   A    
C34   C74   A    
N14   Ni4   S    
C2    H32   S    
C20   C22   A    
C8    C68   A    
C16   C23   A    
C56   C70   A    
C40   N12   A    
C13   C26   A    
C60   H22   S    
C10   C61   A    
C51   C59   A    
C17   C34   A    
C21   C24   A    
C70   F6    S    
C69   F5    S    
C39   C47   A    
C20   H11   S    
C52   H21   S    
N2    N13   A    
C40   H36   S    
C63   C68   A    
C65   C78   A    
C64   N14   A    
C27   C32   A    
C38   C48   A    
C71   H27   S    
C28   C31   A    
C24   H15   S    
C24   C26   A    
C3    C5    A    
C25   H23   S    
N4    Ni2   S    
C9    F3    S    
N1    N7    A    
N6    Ni3   S    
C12   H12   S    
C38   F10   S    
C50   C55   A    
C17   N11   A    
C9    C60   A    
C42   F9    S    
C37   C44   A    
C13   C15   A    
C8    H6    S    
C4    C77   S    
C29   C31   A    
C23   C37   S    
C7    C66   A    
C30   C32   A    
C63   H26   S    
N10   Ni2   S    
C14   H9    S    
C73   N5    A    
C22   H14   S    
N15   Ni3   S    
C10   F4    S    
C34   C36   S    
C35   H19   S    
C18   C20   A    
C26   H33   S    
C54   F14   S    
N13   Ni4   S    
C72   N4    A    
C2    C5    A    
C6    C66   S    
C41   N13   A    
C55   C58   A    
C70   N2    A    
C69   N16   A    
C36   C43   A    
C75   N7    A    
C13   H8    S    
