data_mof_unit_28702.cif
_audit_creation_date              2012-10-26T19:41:53-0400
_audit_creation_method            fapswitch 2.2
_symmetry_space_group_name_H-M    P1
_symmetry_Int_Tables_number       1
_space_group_crystal_system       triclinic
_cell_length_a                    10.703331
_cell_length_b                    10.863002
_cell_length_c                    9.692146
_cell_angle_alpha                 88.399246
_cell_angle_beta                  89.322899
_cell_angle_gamma                 96.696635
_cell_volume                      1118.65468397

loop_
_atom_site_label
_atom_site_type_symbol
_atom_type_description
_atom_site_fract_x
_atom_site_fract_y
_atom_site_fract_z
_atom_type_partial_charge
C1    C     C_R   0.501791 0.262006 0.502834 0.569751
C2    C     C_R   0.459567 0.051833 0.630455 -0.016121
C3    C     C_R   0.501052 0.125894 0.509449 0.038226
C4    C     C_R   0.259691 0.491085 0.500664 0.537326
C5    C     C_R   0.529487 0.066556 0.386670 0.075146
C6    C     C_R   0.513718 0.938686 0.382562 -0.149178
C7    C     C_R   0.471312 0.866400 0.497871 -0.027684
C8    C     C_R   0.704831 0.636971 0.131864 0.156158
C9    C     C_R   0.819900 0.664367 0.060590 0.086911
C10   C     C_R   0.822719 0.654203 0.918713 0.053559
C11   C     C_R   0.706799 0.633289 0.851889 0.144202
C12   C     C_3   0.979183 0.600091 0.454018 0.082941
C13   C     C_R   0.601517 0.563653 0.921843 0.112810
C14   C     C_R   0.601198 0.564081 0.070612 0.106751
C15   C     C_R   0.406453 0.437365 0.078101 0.044747
C16   C     C_R   0.488129 0.734977 0.498850 0.546486
C17   C     C_R   0.405022 0.437495 0.931701 0.170730
C18   C     C_R   0.740492 0.499718 0.499763 0.557405
C19   C     C_3   0.024253 0.375766 0.550026 -0.125694
C20   C     C_3   0.946507 0.402610 0.421849 0.118150
C21   C     C_3   0.877409 0.495457 0.500858 0.060040
C22   C     C_3   0.954651 0.469937 0.631093 -0.166457
C23   C     C_3   0.045802 0.507846 0.373350 0.152652
C24   C     C_3   0.056566 0.577201 0.582803 -0.173294
C25   C     C_3   0.122984 0.484069 0.500952 0.030010
C26   C     C_R   0.447409 0.098947 0.765001 -0.146324
C27   C     C_R   0.388520 0.025849 0.872940 -0.073922
C28   C     C_R   0.341292 0.903607 0.851610 0.113184
C29   C     C_R   0.361330 0.852188 0.724132 -0.073363
C30   C     C_R   0.430052 0.922512 0.617108 -0.000577
Cu1   Cu    Cu3+1 0.499990 0.499990 0.640660 0.925883
Cu2   Cu    Cu3+1 0.500010 0.500010 0.359340 0.981105
H1    H     H_    0.321955 0.757185 0.709921 0.136392
H2    H     H_    0.325636 0.753833 0.981125 0.235785
H3    H     H_    0.329311 0.386224 0.136147 0.156344
H4    H     H_    0.696715 0.809607 0.196991 0.198042
H5    H     H_    0.749689 0.713814 0.315726 0.283284
H6    H     H_    0.006951 0.712891 0.094255 0.244335
H7    H     H_    0.919541 0.831429 0.089717 0.250796
H8    H     H_    0.002813 0.644370 0.864378 0.214130
H9    H     H_    0.922982 0.708363 0.740062 0.229802
H10   H     H_    0.742050 0.718505 0.661048 0.226517
H11   H     H_    0.705716 0.813082 0.788330 0.222249
H12   H     H_    0.538041 0.896243 0.288217 0.146893
H13   H     H_    0.325627 0.323801 0.785034 0.272635
H14   H     H_    0.235354 0.432824 0.842041 0.247975
H15   H     H_    0.108131 0.649807 0.645581 0.108757
H16   H     H_    0.920092 0.767458 0.489035 0.204667
H17   H     H_    0.050299 0.773706 0.389968 0.244563
H18   H     H_    0.021727 0.514719 0.165440 0.230077
H19   H     H_    0.145774 0.610646 0.221876 0.245101
H20   H     H_    0.521903 0.113602 0.183589 0.221093
H21   H     H_    0.668852 0.106728 0.243562 0.231924
H22   H     H_    0.044813 0.283079 0.588217 0.120680
H23   H     H_    0.915791 0.453742 0.737560 0.135356
H24   H     H_    0.488676 0.188678 0.795003 0.158827
H25   H     H_    0.379406 0.064968 0.973644 0.132310
H26   H     H_    0.956226 0.261806 0.290212 0.232538
H27   H     H_    0.843571 0.352313 0.253227 0.246170
H28   H     H_    0.187586 0.797859 0.927676 0.233919
N1    N     N_R   0.501210 0.501210 0.147910 -0.251416
N2    N     N_3   0.961191 0.724945 0.407498 -0.628243
N3    N     N_3   0.097078 0.521780 0.233237 -0.621514
N4    N     N_3   0.581210 0.135422 0.266558 -0.584933
N5    N     N_R   0.501250 0.501290 0.852040 -0.226372
N6    N     N_3   0.885513 0.307456 0.334147 -0.614170
N7    N     N_3   0.277258 0.830653 0.961723 -0.642124
N8    N     N_3   0.683789 0.719070 0.238609 -0.542857
N9    N     N_3   0.920802 0.739717 0.125041 -0.599556
N10   N     N_3   0.935652 0.705191 0.846035 -0.659078
N11   N     N_3   0.685877 0.724412 0.748668 -0.544808
N12   N     N_3   0.298015 0.370186 0.870693 -0.651347
O1    O     O_R   0.499990 0.319640 0.618810 -0.543934
O2    O     O_R   0.500000 0.319660 0.381240 -0.456313
O3    O     O_R   0.316850 0.499960 0.618770 -0.538355
O4    O     O_R   0.316860 0.499980 0.381190 -0.490276
O5    O     O_R   0.500000 0.680340 0.618760 -0.471711
O6    O     O_R   0.500010 0.680360 0.381190 -0.472593
O7    O     O_R   0.683140 0.500020 0.618810 -0.503421
O8    O     O_R   0.683150 0.500040 0.381230 -0.479695

loop_
_geom_bond_atom_site_label_1
_geom_bond_atom_site_label_2
_ccdc_geom_bond_type
C18   C21   S    
C19   C20   S    
C4    C25   S    
C13   N5    A    
C12   C23   S    
C26   C27   A    
H8    N10   S    
C1    O2    A    
C20   N6    S    
C28   C29   A    
C9    N9    S    
Cu2   N1    S    
H27   N6    S    
Cu2   O2    S    
C5    C6    A    
H21   N4    S    
C11   N11   S    
Cu1   O1    S    
H5    N8    S    
C29   H1    S    
Cu1   N5    S    
C16   O5    A    
C4    O3    A    
Cu1   O3    S    
H26   N6    S    
H28   N7    S    
C8    C9    A    
H11   N11   S    
C9    C10   A    
H14   N12   S    
C23   N3    S    
H6    N9    S    
C7    C30   A    
C6    H12   S    
C13   C14   A    
H13   N12   S    
H18   N3    S    
C15   H3    S    
Cu1   O5    S    
C15   N1    A    
C28   N7    S    
H19   N3    S    
C24   C25   S    
H20   N4    S    
C18   O7    A    
C14   N1    A    
C12   C21   S    
C5    N4    S    
C1    C3    S    
C29   C30   A    
Cu2   O8    S    
C12   N2    S    
H16   N2    S    
Cu1   Cu2   S    
C20   C23   S    
C19   C22   S    
H7    N9    S    
C2    C26   A    
C22   H23   S    
C10   N10   S    
C19   H22   S    
C7    C16   S    
C8    N8    S    
C27   H25   S    
C22   C24   S    
C15   C17   A    
C8    C14   A    
H17   N2    S    
C24   H15   S    
C3    C5    A    
C26   H24   S    
H2    N7    S    
Cu2   O4    S    
H4    N8    S    
Cu1   O7    S    
C6    C7    A    
C12   C24   S    
C17   N5    A    
C2    C30   A    
C1    O1    A    
C2    C3    A    
C11   C13   A    
H10   N11   S    
C16   O6    A    
C23   C25   S    
C19   C25   S    
C4    O4    A    
C10   C11   A    
Cu2   O6    S    
C20   C21   S    
C17   N12   S    
C18   O8    A    
C27   C28   A    
C21   C22   S    
H9    N10   S    
