data_mof_unit_65932.cif
_audit_creation_date              2012-12-10T16:42:45-0500
_audit_creation_method            fapswitch 2.2
_symmetry_space_group_name_H-M    P1
_symmetry_Int_Tables_number       1
_space_group_crystal_system       triclinic
_cell_length_a                    15.883302
_cell_length_b                    18.043416
_cell_length_c                    29.129805
_cell_angle_alpha                 90.079275
_cell_angle_beta                  90.396653
_cell_angle_gamma                 90.033883
_cell_volume                      8348.07287662

loop_
_atom_site_label
_atom_site_type_symbol
_atom_type_description
_atom_site_fract_x
_atom_site_fract_y
_atom_site_fract_z
_atom_type_partial_charge
C1    C     C_R   0.500155 0.390461 0.059134 0.708395
C2    C     C_R   0.500208 0.609577 0.059152 0.707906
C3    C     C_R   0.603800 0.989191 0.666962 0.073168
C4    C     C_R   0.214907 0.998242 0.740197 0.074994
C5    C     C_R   0.687460 0.976334 0.582818 -0.019332
C6    C     C_R   0.047828 0.997969 0.708140 -0.008296
C7    C     C_1   0.476726 0.933234 0.812230 -0.021722
C8    C     C_1   0.477702 0.067200 0.810987 0.002058
C9    C     C_1   0.515528 0.997440 0.743633 -0.001737
C10   C     C_1   0.373702 0.999431 0.768887 0.006765
C11   C     C_1   0.485336 0.877179 0.834359 -0.065030
C12   C     C_1   0.486454 0.123807 0.832701 -0.062275
C13   C     C_1   0.301387 0.998984 0.755956 -0.028266
C14   C     C_1   0.556955 0.994240 0.709167 -0.029899
C15   C     C_R   0.581493 0.060700 0.308778 -0.134388
C16   C     C_R   0.416362 0.939033 0.309917 -0.133719
C17   C     C_R   0.370364 0.060657 0.285571 -0.170164
C18   C     C_R   0.625939 0.938462 0.284887 -0.169912
C19   C     C_R   0.642861 0.060690 0.343306 -0.172545
C20   C     C_R   0.356115 0.939314 0.344563 -0.170798
C21   C     C_R   0.310016 0.060708 0.320292 -0.180595
C22   C     C_R   0.687419 0.938687 0.319504 -0.179742
C23   C     C_R   0.562078 0.115474 0.199616 0.141765
C24   C     C_R   0.429213 0.882258 0.200916 0.142283
C25   C     C_R   0.420671 0.072513 0.179535 0.112797
C26   C     C_R   0.569344 0.924729 0.179081 0.113252
C27   C     C_R   0.561088 0.159746 0.159939 -0.249939
C28   C     C_R   0.427226 0.838007 0.161176 -0.248215
C29   C     C_R   0.422340 0.117372 0.140381 -0.222421
C30   C     C_R   0.564721 0.879910 0.139861 -0.223678
C31   C     C_R   0.499698 0.610855 0.941728 0.788260
C32   C     C_R   0.499702 0.389217 0.941608 0.788434
C33   C     C_3   0.497086 0.999198 0.243758 -0.050556
C34   C     C_R   0.573421 0.000790 0.277486 0.176118
C35   C     C_R   0.422725 0.998307 0.278207 0.175315
C36   C     C_R   0.696159 0.999820 0.348667 0.155062
C37   C     C_R   0.302464 0.999929 0.349651 0.154606
C38   C     C_R   0.492459 0.067029 0.209574 0.105071
C39   C     C_R   0.499564 0.930695 0.209934 0.105120
C40   C     C_R   0.493388 0.158099 0.129548 0.089142
C41   C     C_R   0.492655 0.839583 0.129848 0.088760
C42   C     C_1   0.240436 0.000127 0.385431 -0.069827
C43   C     C_1   0.758739 0.999626 0.384678 -0.069194
C44   C     C_1   0.187855 0.000062 0.415076 -0.179123
C45   C     C_1   0.811630 0.999745 0.414586 -0.179628
C46   C     C_1   0.499178 0.193088 0.085311 -0.043520
C47   C     C_1   0.483158 0.805101 0.085529 -0.046503
C48   C     C_1   0.504144 0.220201 0.047642 -0.051635
C49   C     C_1   0.474791 0.778428 0.047819 -0.047392
C50   C     C_R   0.123896 0.000003 0.449596 0.848355
C51   C     C_R   0.875939 0.999936 0.449444 0.850643
C52   C     C_R   0.568543 0.781429 0.875111 -0.153668
C53   C     C_R   0.417578 0.230236 0.868790 -0.150860
C54   C     C_R   0.416814 0.770748 0.870398 -0.156228
C55   C     C_R   0.569224 0.219587 0.874004 -0.156529
C56   C     C_R   0.893214 0.000035 0.569344 0.691627
C57   C     C_R   0.107236 0.000043 0.569367 0.675703
C58   C     C_R   0.572149 0.715795 0.900779 -0.186500
C59   C     C_R   0.420634 0.295165 0.894898 -0.185766
C60   C     C_R   0.420211 0.705432 0.895970 -0.182376
C61   C     C_R   0.572492 0.284839 0.900179 -0.184565
C62   C     C_R   0.672045 0.939043 0.662416 0.146269
C63   C     C_R   0.154883 0.949814 0.760022 0.140801
C64   C     C_R   0.190439 0.046098 0.704156 0.151534
C65   C     C_R   0.578566 0.033072 0.629166 0.156389
C66   C     C_R   0.712888 0.933267 0.620076 -0.189203
C67   C     C_R   0.071812 0.950337 0.743479 -0.157398
C68   C     C_R   0.106456 0.045699 0.688621 -0.230872
C69   C     C_R   0.621000 0.026066 0.587218 -0.200327
C70   C     C_3   0.461778 0.999541 0.784224 0.019224
C71   C     C_R   0.490723 0.809275 0.860187 0.143529
C72   C     C_R   0.491614 0.191894 0.858551 0.139826
C73   C     C_R   0.497819 0.677360 0.911819 -0.032102
C74   C     C_R   0.498026 0.323037 0.911270 -0.032129
Cu1   Cu    Cu3+1 0.415470 0.500000 0.000080 0.953570
Cu2   Cu    Cu3+1 0.584530 0.500000 0.000080 0.953110
Cu3   Cu    Cu3+1 0.000000 0.072960 0.508900 0.943248
Cu4   Cu    Cu3+1 0.000000 0.927040 0.508900 0.949850
H1    H     H_    0.632833 0.695901 0.912581 0.154667
H2    H     H_    0.362060 0.322991 0.902691 0.156744
H3    H     H_    0.361713 0.677444 0.903749 0.156674
H4    H     H_    0.633040 0.304580 0.912363 0.154797
H5    H     H_    0.764653 0.894906 0.615907 0.150648
H6    H     H_    0.025273 0.913722 0.758208 0.148368
H7    H     H_    0.086190 0.082153 0.661232 0.136683
H8    H     H_    0.602565 0.058895 0.557757 0.137184
H9    H     H_    0.626236 0.810699 0.867261 0.132052
H10   H     H_    0.357162 0.209478 0.856959 0.138500
H11   H     H_    0.356268 0.791560 0.858874 0.131392
H12   H     H_    0.627006 0.190412 0.866253 0.132499
H13   H     H_    0.648010 0.107909 0.366174 0.132002
H14   H     H_    0.351926 0.892418 0.367627 0.133382
H15   H     H_    0.270142 0.108857 0.324727 0.134834
H16   H     H_    0.727095 0.890398 0.324097 0.135162
H17   H     H_    0.615905 0.192897 0.151704 0.141036
H18   H     H_    0.371709 0.805042 0.153622 0.141822
H19   H     H_    0.368780 0.117379 0.117083 0.143932
H20   H     H_    0.616617 0.879727 0.115860 0.143143
H21   H     H_    0.539803 0.108000 0.306178 0.129131
H22   H     H_    0.458160 0.891832 0.307386 0.129764
H23   H     H_    0.376859 0.110628 0.265524 0.132757
H24   H     H_    0.618483 0.888206 0.265074 0.132896
O1    O     O_R   0.429360 0.416280 0.044700 -0.576216
O2    O     O_R   0.570640 0.583720 0.044700 -0.578295
O3    O     O_R   0.570640 0.416280 0.044700 -0.578131
O4    O     O_R   0.429360 0.583720 0.044700 -0.575978
O5    O     O_R   0.427420 0.583550 0.955440 -0.589847
O6    O     O_R   0.572580 0.416450 0.955440 -0.588049
O7    O     O_R   0.572580 0.583550 0.955440 -0.588288
O8    O     O_R   0.427420 0.416450 0.955440 -0.589656
O9    O     O_R   0.093410 0.059470 0.464300 -0.581720
O10   O     O_R   0.906590 0.940530 0.464300 -0.579803
O11   O     O_R   0.906590 0.059470 0.464300 -0.581045
O12   O     O_R   0.093410 0.940530 0.464300 -0.581003
O13   O     O_R   0.920740 0.061400 0.553530 -0.555864
O14   O     O_R   0.079260 0.938600 0.553530 -0.550770
O15   O     O_R   0.079260 0.061400 0.553530 -0.561200
O16   O     O_R   0.920740 0.938600 0.553530 -0.558226
N1    N     N_3   0.700860 0.892564 0.699425 -0.588947
H25   H     H_    0.761375 0.910286 0.708597 0.209281
H26   H     H_    0.663763 0.898095 0.728643 0.223816
N2    N     N_3   0.175475 0.899723 0.796798 -0.595678
H27   H     H_    0.175050 0.846042 0.783239 0.213274
H28   H     H_    0.235760 0.909118 0.810041 0.221795
N3    N     N_3   0.250990 0.095090 0.683749 -0.577784
H29   H     H_    0.221900 0.129110 0.659322 0.211537
H30   H     H_    0.294231 0.062349 0.665972 0.224514
N4    N     N_3   0.509028 0.083573 0.633453 -0.587779
H31   H     H_    0.495708 0.108688 0.601897 0.210927
H32   H     H_    0.527838 0.125955 0.655796 0.219806
N5    N     N_3   0.636920 0.117901 0.227211 -0.576540
H33   H     H_    0.643860 0.171904 0.239761 0.206639
H34   H     H_    0.688914 0.106687 0.206516 0.231809
N6    N     N_3   0.356391 0.879895 0.229526 -0.576931
H35   H     H_    0.350303 0.825908 0.242090 0.206759
H36   H     H_    0.302935 0.891163 0.209592 0.232455
N7    N     N_3   0.346358 0.029433 0.187073 -0.585591
H37   H     H_    0.295702 0.065851 0.190922 0.214193
H38   H     H_    0.334682 0.997661 0.157644 0.221956
N8    N     N_3   0.644383 0.967459 0.185796 -0.585399
H39   H     H_    0.695005 0.930780 0.189071 0.213938
H40   H     H_    0.654418 0.999044 0.156247 0.221593

loop_
_geom_bond_atom_site_label_1
_geom_bond_atom_site_label_2
_ccdc_geom_bond_type
C28   H18   S    
Cu2   O2    S    
Cu1   O5    S    
Cu2   O3    S    
C60   C73   A    
C27   H17   S    
C9    C14   T    
N4    H31   S    
C7    C70   S    
C53   C59   A    
C47   C49   T    
C54   C60   A    
Cu3   Cu4   S    
C15   C19   A    
C20   H14   S    
C4    C63   A    
C51   O11   A    
C32   O8    A    
C64   C68   A    
Cu4   O16   S    
N8    H40   S    
C55   H12   S    
Cu3   O15   S    
C61   H4    S    
C16   C35   A    
C32   C74   S    
C11   C71   S    
C26   C39   A    
C31   C73   S    
C45   C51   S    
C44   C50   S    
N7    H38   S    
C28   C41   A    
C4    C13   S    
C24   C39   A    
C8    C70   S    
C18   H24   S    
C37   C42   S    
Cu3   O9    S    
C17   H23   S    
C5    C69   A    
C66   H5    S    
C54   C71   A    
Cu2   O7    S    
C30   C41   A    
C23   C27   A    
C1    O1    A    
C15   C34   A    
C55   C72   A    
C16   C20   A    
C6    C68   A    
C12   C72   S    
C67   H6    S    
Cu2   O6    S    
Cu1   O1    S    
C68   H7    S    
C22   H16   S    
C3    C65   A    
C42   C44   T    
Cu3   O11   S    
C41   C47   S    
C7    C11   T    
C57   O14   A    
C46   C48   T    
N1    H26   S    
C25   C29   A    
C63   C67   A    
C62   C66   A    
C65   N4    S    
C9    C70   S    
C54   H11   S    
C16   H22   S    
N6    H36   S    
C2    O4    A    
C17   C21   A    
C50   O12   A    
C25   N7    S    
Cu1   Cu2   S    
C25   C38   A    
C43   C45   T    
C60   H3    S    
C51   O10   A    
C2    O2    A    
C27   C40   A    
C8    C12   T    
C33   C34   S    
C31   O7    A    
C23   N5    S    
C33   C39   S    
N8    H39   S    
C18   C34   A    
C59   C74   A    
C62   N1    S    
C3    C14   S    
C52   C58   A    
C58   H1    S    
C10   C70   S    
C6    C67   A    
C26   C30   A    
N3    H29   S    
C40   C46   S    
N2    H28   S    
N5    H33   S    
C63   N2    S    
C57   O15   A    
C3    C62   A    
C24   N6    S    
C30   H20   S    
Cu4   O12   S    
Cu1   O8    S    
C18   C22   A    
C31   O5    A    
C52   H9    S    
Cu4   O14   S    
C24   C28   A    
C15   H21   S    
C5    C66   A    
N5    H34   S    
C10   C13   T    
N4    H32   S    
C59   H2    S    
N1    H25   S    
N6    H35   S    
C61   C74   A    
C23   C38   A    
C22   C36   A    
N7    H37   S    
C4    C64   A    
C26   N8    S    
C33   C38   S    
C29   H19   S    
C19   C36   A    
C52   C71   A    
C56   O16   A    
C20   C37   A    
C21   H15   S    
C65   C69   A    
C55   C61   A    
C29   C40   A    
C50   O9    A    
C33   C35   S    
C56   O13   A    
C53   H10   S    
C19   H13   S    
C21   C37   A    
Cu1   O4    S    
C64   N3    S    
C32   O6    A    
N3    H30   S    
C36   C43   S    
Cu4   O10   S    
C17   C35   A    
N2    H27   S    
Cu3   O13   S    
C53   C72   A    
C69   H8    S    
C58   C73   A    
C1    O3    A    
