data_mof_unit_36390.cif
_audit_creation_date              2012-12-11T14:11:02-0500
_audit_creation_method            fapswitch 2.2
_symmetry_space_group_name_H-M    P1
_symmetry_Int_Tables_number       1
_space_group_crystal_system       triclinic
_cell_length_a                    20.111115
_cell_length_b                    17.246071
_cell_length_c                    15.516897
_cell_angle_alpha                 90.037788
_cell_angle_beta                  51.615504
_cell_angle_gamma                 89.947795
_cell_volume                      4218.61434029

loop_
_atom_site_label
_atom_site_type_symbol
_atom_type_description
_atom_site_fract_x
_atom_site_fract_y
_atom_site_fract_z
_atom_type_partial_charge
C1    C     C_R   0.381982 0.198934 0.986692 -0.155562
C2    C     C_3   0.673563 0.733000 0.451975 0.836202
C3    C     C_2   0.623010 0.252169 0.612946 0.666555
C4    C     C_2   0.023896 0.190773 0.641590 0.713882
C5    C     C_2   0.874966 0.753305 0.385256 0.721469
C6    C     C_2   0.974767 0.193727 0.360909 0.734236
C7    C     C_2   0.123011 0.752169 0.612945 0.666550
C8    C     C_3   0.772380 0.206213 0.430465 0.847662
C9    C     C_3   0.323677 0.735162 0.549296 0.835209
C10   C     C_3   0.727106 0.706403 0.568718 0.840536
C11   C     C_3   0.173562 0.232998 0.451976 0.836200
C12   C     C_3   0.272381 0.706213 0.430464 0.847661
C13   C     C_3   0.823677 0.235163 0.549296 0.835210
C14   C     C_2   0.193484 0.743734 0.082744 -0.075668
C15   C     C_2   0.747487 0.287927 0.995227 -0.060229
C16   C     C_2   0.811848 0.745509 0.909749 -0.151160
C17   C     C_R   0.650317 0.815006 0.968807 -0.157938
C18   C     C_2   0.260181 0.293657 0.993412 -0.124981
C19   C     C_2   0.693487 0.243733 0.082741 -0.075668
C20   C     C_2   0.247485 0.787929 0.995231 -0.060226
C21   C     C_2   0.311846 0.245508 0.909752 -0.151156
C22   C     C_2   0.760185 0.793660 0.993407 -0.124967
C23   C     C_R   0.389567 0.803099 0.214777 -0.092670
C24   C     C_R   0.655470 0.165519 0.778694 -0.244159
C25   C     C_R   0.609099 0.802630 0.785671 -0.115356
C26   C     C_R   0.343344 0.163874 0.221160 -0.115589
C27   C     C_R   0.889566 0.303099 0.214777 -0.092663
C28   C     C_R   0.618555 0.198698 0.011940 -0.245547
C29   C     C_R   0.155470 0.665519 0.778694 -0.244162
C30   C     C_R   0.109099 0.302630 0.785671 -0.115361
C31   C     C_R   0.843344 0.663875 0.221159 -0.115591
C32   C     C_R   0.341007 0.902700 0.933428 0.828248
C33   C     C_R   0.631229 0.111960 0.105010 0.812944
C34   C     C_R   0.662987 0.905814 0.059529 0.799289
C35   C     C_R   0.368906 0.111631 0.894614 0.844568
C36   C     C_R   0.841008 0.402699 0.933425 0.828252
C37   C     C_R   0.131228 0.611960 0.105011 0.812939
C38   C     C_R   0.162985 0.405813 0.059532 0.799290
C39   C     C_R   0.354306 0.812115 0.023676 -0.158810
C40   C     C_R   0.868906 0.611631 0.894614 0.844565
C41   C     C_R   0.354195 0.076430 0.316360 0.692644
C42   C     C_R   0.598836 0.892458 0.692109 0.825204
C43   C     C_R   0.645590 0.076883 0.683484 0.689675
C44   C     C_R   0.400585 0.892640 0.308139 0.826137
C45   C     C_R   0.854195 0.576430 0.316360 0.692642
C46   C     C_R   0.098836 0.392458 0.692109 0.825204
C47   C     C_R   0.145591 0.576883 0.683484 0.689675
C48   C     C_R   0.900585 0.392640 0.308139 0.826140
C49   C     C_R   0.353840 0.187610 0.926955 -0.192061
C50   C     C_R   0.881982 0.698934 0.986692 -0.155559
C51   C     C_R   0.699950 0.839843 0.996887 -0.169502
C52   C     C_R   0.646693 0.187758 0.071794 -0.115739
C53   C     C_R   0.306758 0.835046 0.991892 -0.204680
C54   C     C_R   0.853840 0.687610 0.926954 -0.192065
C55   C     C_R   0.199948 0.339841 0.996891 -0.169495
C56   C     C_R   0.146692 0.687758 0.071796 -0.115737
C57   C     C_R   0.806761 0.335045 0.991888 -0.204683
C58   C     C_R   0.375722 0.818483 0.311357 -0.155640
C59   C     C_R   0.698029 0.131954 0.676381 -0.032629
C60   C     C_R   0.622721 0.817891 0.689182 -0.146879
C61   C     C_R   0.150316 0.315006 0.968808 -0.157941
C62   C     C_R   0.300949 0.130579 0.323524 -0.112401
C63   C     C_R   0.875721 0.318484 0.311358 -0.155644
C64   C     C_R   0.198029 0.631954 0.676381 -0.032627
C65   C     C_R   0.122720 0.317891 0.689182 -0.146876
C66   C     C_R   0.800949 0.630580 0.323523 -0.112398
C67   C     C_3   0.186203 0.144339 0.543237 -0.177581
C68   C     C_3   0.714299 0.794865 0.478030 -0.200614
C69   C     C_3   0.813630 0.145237 0.456907 -0.183649
C70   C     C_3   0.282582 0.795917 0.522335 -0.212024
C71   C     C_3   0.686202 0.644339 0.543236 -0.177581
C72   C     C_R   0.118555 0.698699 0.011941 -0.245548
C73   C     C_3   0.214298 0.294865 0.478030 -0.200614
C74   C     C_3   0.313630 0.645237 0.456907 -0.183649
C75   C     C_3   0.782581 0.295917 0.522335 -0.212023
C76   C     C_3   0.617383 0.704363 0.572044 -0.320775
C77   C     C_3   0.282187 0.235807 0.450751 -0.344756
C78   C     C_3   0.381145 0.706269 0.429272 -0.325748
C79   C     C_3   0.715986 0.235853 0.548475 -0.316328
C80   C     C_3   0.117383 0.204361 0.572045 -0.320773
C81   C     C_3   0.782187 0.735806 0.450752 -0.344754
C82   C     C_3   0.881144 0.206270 0.429272 -0.325750
C83   C     C_R   0.854308 0.312113 0.023673 -0.158809
C84   C     C_3   0.215986 0.735853 0.548474 -0.316325
C85   C     C_3   0.658758 0.764921 0.597530 -0.166047
C86   C     C_3   0.241911 0.174533 0.423751 -0.127263
C87   C     C_3   0.339448 0.765713 0.402846 -0.161250
C88   C     C_3   0.756623 0.175705 0.576352 -0.148686
C89   C     C_3   0.158757 0.264921 0.597530 -0.166047
C90   C     C_3   0.741911 0.674534 0.423750 -0.127265
C91   C     C_3   0.839448 0.265713 0.402846 -0.161250
C92   C     C_3   0.256624 0.675705 0.576352 -0.148686
C93   C     C_2   0.410768 0.275523 0.995641 0.551795
C94   C     C_3   0.227107 0.206404 0.568717 0.840534
C95   C     C_2   0.638694 0.733468 0.952429 0.619423
C96   C     C_2   0.593030 0.274069 0.994798 0.741225
C97   C     C_2   0.369473 0.730868 0.036839 0.594297
C98   C     C_2   0.910774 0.775522 0.995633 0.551790
C99   C     C_2   0.138694 0.233468 0.952430 0.619430
C100  C     C_2   0.093029 0.774069 0.994799 0.741226
C101  C     C_2   0.869476 0.230867 0.036834 0.594295
C102  C     C_2   0.523896 0.690776 0.641587 0.713886
C103  C     C_2   0.374966 0.253306 0.385254 0.721473
C104  C     C_2   0.474768 0.693727 0.360909 0.734231
F1    F     F_    0.323620 0.937295 0.871147 -0.599868
F2    F     F_    0.577299 0.920048 0.630611 -0.597335
F3    F     F_    0.656212 0.043140 0.596981 -0.638847
F4    F     F_    0.422003 0.919817 0.369955 -0.597245
F5    F     F_    0.844064 0.543482 0.402890 -0.636548
F6    F     F_    0.077299 0.420048 0.630611 -0.597335
F7    F     F_    0.156212 0.543140 0.596981 -0.638846
F8    F     F_    0.922002 0.419817 0.369955 -0.597245
F9    F     F_    0.255847 0.193595 0.628615 -0.662129
F10   F     F_    0.646209 0.744921 0.390369 -0.668112
F11   F     F_    0.744758 0.192200 0.369517 -0.657201
F12   F     F_    0.630992 0.082198 0.185943 -0.593348
F13   F     F_    0.349864 0.748252 0.612019 -0.671101
F14   F     F_    0.755845 0.693593 0.628617 -0.662129
F15   F     F_    0.146207 0.244918 0.390371 -0.668113
F16   F     F_    0.244759 0.692199 0.369516 -0.657202
F17   F     F_    0.849863 0.248252 0.612019 -0.671101
F18   F     F_    0.682107 0.941086 0.119606 -0.609599
F19   F     F_    0.369803 0.081476 0.813293 -0.594430
F20   F     F_    0.823622 0.437294 0.871144 -0.599866
F21   F     F_    0.130992 0.582198 0.185944 -0.593350
F22   F     F_    0.182104 0.441084 0.119610 -0.609599
F23   F     F_    0.869803 0.581476 0.813292 -0.594430
F24   F     F_    0.344064 0.043482 0.402890 -0.636548
H1    H     H_    0.387394 0.746591 0.187231 0.220671
H2    H     H_    0.725702 0.856444 0.451587 0.244911
H3    H     H_    0.825778 0.083400 0.431432 0.231642
H4    H     H_    0.270090 0.857598 0.548657 0.239957
H5    H     H_    0.675166 0.582588 0.568785 0.227869
H6    H     H_    0.225700 0.356443 0.451587 0.244912
H7    H     H_    0.325778 0.583400 0.431432 0.231642
H8    H     H_    0.770089 0.357598 0.548657 0.239957
H9    H     H_    0.190456 0.743812 0.155129 0.168240
H10   H     H_    0.751744 0.286900 0.921896 0.175229
H11   H     H_    0.815692 0.743738 0.836861 0.185979
H12   H     H_    0.679646 0.212287 0.797886 0.171930
H13   H     H_    0.255629 0.294459 0.066952 0.188055
H14   H     H_    0.690459 0.243811 0.155126 0.168241
H15   H     H_    0.251742 0.786902 0.921900 0.175228
H16   H     H_    0.315691 0.243739 0.836863 0.185978
H17   H     H_    0.755635 0.794464 0.066945 0.188059
H18   H     H_    0.417344 0.323538 0.945689 0.085656
H19   H     H_    0.692097 0.696759 0.893406 0.067096
H20   H     H_    0.578008 0.278527 0.939223 0.015299
H21   H     H_    0.318872 0.688584 0.077862 0.064167
H22   H     H_    0.917363 0.823532 0.945665 0.085653
H23   H     H_    0.609892 0.745916 0.813953 0.213683
H24   H     H_    0.192096 0.196761 0.893401 0.067094
H25   H     H_    0.078008 0.778527 0.939223 0.015291
H26   H     H_    0.818877 0.188581 0.077850 0.064167
H27   H     H_    0.482031 0.737900 0.656827 0.074587
H28   H     H_    0.418180 0.208533 0.372551 0.047967
H29   H     H_    0.515650 0.741496 0.346341 0.076544
H30   H     H_    0.580815 0.206662 0.624913 0.061148
H31   H     H_    0.982030 0.237896 0.656829 0.074585
H32   H     H_    0.918180 0.708530 0.372553 0.047970
H33   H     H_    0.015650 0.241496 0.346340 0.076544
H34   H     H_    0.317397 0.208564 0.201503 0.221934
H35   H     H_    0.080816 0.706662 0.624912 0.061149
H36   H     H_    0.887392 0.246591 0.187232 0.220673
H37   H     H_    0.179646 0.712287 0.797887 0.171932
H38   H     H_    0.109891 0.245916 0.813953 0.213679
H39   H     H_    0.817398 0.708566 0.201502 0.221939
H40   H     H_    0.175168 0.082588 0.568786 0.227870
N1    N     N_R   0.408680 0.130810 0.995780 -0.096443
N2    N     N_R   0.578590 0.132790 0.846380 -0.102016
N3    N     N_R   0.578590 0.867210 0.846380 -0.098151
N4    N     N_R   0.421410 0.132790 0.153620 -0.082494
N5    N     N_R   0.921410 0.367210 0.153620 -0.097403
N6    N     N_R   0.078590 0.632790 0.846380 -0.102019
N7    N     N_R   0.078590 0.367210 0.846380 -0.098151
N8    N     N_R   0.921410 0.632790 0.153620 -0.082497
N9    N     N_R   0.403840 0.921910 0.935760 -0.144453
N10   N     N_R   0.596160 0.078090 0.064240 -0.135778
N11   N     N_R   0.596160 0.921910 0.064240 -0.138506
N12   N     N_R   0.591320 0.869190 0.004220 -0.087567
N13   N     N_R   0.403840 0.078090 0.935760 -0.143410
N14   N     N_R   0.903840 0.421910 0.935760 -0.144454
N15   N     N_R   0.096160 0.578090 0.064240 -0.135777
N16   N     N_R   0.096160 0.421910 0.064240 -0.138506
N17   N     N_R   0.903840 0.578090 0.935760 -0.143409
N18   N     N_R   0.426250 0.076100 0.213650 -0.129052
N19   N     N_R   0.573750 0.923900 0.786350 -0.148937
N20   N     N_R   0.573750 0.076100 0.786350 -0.125114
N21   N     N_R   0.426250 0.923900 0.213650 -0.150135
N22   N     N_R   0.926250 0.576100 0.213650 -0.129052
N23   N     N_R   0.591320 0.130810 0.004220 -0.108845
N24   N     N_R   0.073750 0.423900 0.786350 -0.148936
N25   N     N_R   0.073750 0.576100 0.786350 -0.125114
N26   N     N_R   0.926250 0.423900 0.213650 -0.150135
N27   N     N_R   0.408680 0.869190 0.995780 -0.085131
N28   N     N_R   0.908680 0.630810 0.995780 -0.096445
N29   N     N_R   0.091320 0.369190 0.004220 -0.087568
N30   N     N_R   0.091320 0.630810 0.004220 -0.108845
N31   N     N_R   0.908680 0.369190 0.995780 -0.085131
N32   N     N_R   0.421410 0.867210 0.153620 -0.097403
Ni1   Ni    Ni4+2 0.500000 0.131570 0.000000 0.212350
Ni2   Ni    Ni4+2 0.500000 0.868430 0.000000 0.257443
Ni3   Ni    Ni4+2 1.000000 0.631570 0.000000 0.212347
Ni4   Ni    Ni4+2 1.000000 0.368430 0.000000 0.257443
Ni5   Ni    Ni4+2 0.488900 1.000000 0.862310 0.342565
Ni6   Ni    Ni4+2 0.511100 1.000000 0.137690 0.348396
Ni7   Ni    Ni4+2 0.988900 0.500000 0.862310 0.342565
Ni8   Ni    Ni4+2 0.011100 0.500000 0.137690 0.348396
O1    O     O_2   0.425588 0.286987 0.059553 -0.578945
O2    O     O_2   0.402201 0.317601 0.345980 -0.514735
O3    O     O_2   0.505420 0.630143 0.321240 -0.529517
O4    O     O_2   0.594472 0.316321 0.652213 -0.561769
O5    O     O_2   0.994450 0.127064 0.681495 -0.543496
O6    O     O_2   0.902203 0.817599 0.345982 -0.514736
O7    O     O_2   0.005419 0.130143 0.321239 -0.529516
O8    O     O_2   0.094473 0.816321 0.652211 -0.561770
O9    O     O_2   0.567850 0.705364 0.008653 -0.510564
O10   O     O_2   0.586128 0.332008 0.045094 -0.488849
O11   O     O_2   0.441052 0.709074 0.996223 -0.525536
O12   O     O_2   0.925588 0.786989 0.059552 -0.578939
O13   O     O_2   0.067850 0.205362 0.008656 -0.510559
O14   O     O_2   0.086125 0.832007 0.045098 -0.488847
O15   O     O_2   0.941055 0.209076 0.996225 -0.525541
O16   O     O_2   0.494449 0.627067 0.681492 -0.543495

loop_
_geom_bond_atom_site_label_1
_geom_bond_atom_site_label_2
_ccdc_geom_bond_type
C78   C87   S    
C100  H25   S    
C23   C58   A    
C14   C56   S    
C99   O13   D    
C10   C85   S    
N25   Ni7   S    
C12   C74   S    
C31   C66   A    
C18   C21   D    
C28   C52   A    
C32   C53   A    
N13   Ni5   S    
C20   H15   S    
C104  H29   S    
C3    C79   S    
C58   C87   S    
C27   N5    A    
C21   C49   S    
C102  H27   S    
C102  O16   D    
C66   C90   S    
N27   Ni2   S    
C24   H12   S    
C33   C52   A    
C65   C89   S    
C62   C86   S    
C12   C84   S    
C34   C51   A    
C50   C54   A    
N5    Ni4   S    
C6    C82   S    
C68   C81   S    
C43   N20   A    
C36   F20   S    
N7    Ni4   S    
C4    C80   S    
C2    C68   S    
C98   H22   S    
C71   C76   S    
C44   N21   A    
N23   Ni1   S    
C45   F5    S    
C39   C97   S    
C4    H31   S    
C67   H40   S    
C11   C86   S    
C29   H37   S    
C37   N15   A    
C55   C61   A    
C77   C94   S    
C80   C89   S    
C38   N16   A    
C23   H1    S    
N29   Ni4   S    
N14   Ni7   S    
C74   C92   S    
C89   C94   S    
C2    C90   S    
N17   Ni7   S    
C59   C88   S    
N2    Ni1   S    
C69   C82   S    
C8    F11   S    
C5    C81   S    
C12   F16   S    
C37   C56   A    
C50   N28   A    
C19   C52   S    
C25   H23   S    
C38   C55   A    
C13   C75   S    
C44   C58   A    
C56   C72   A    
C1    C49   A    
C35   C49   A    
C3    H30   S    
C83   N31   A    
C14   H9    S    
C17   C95   S    
C25   C60   A    
C70   C84   S    
N14   N31   A    
C29   N6    A    
C7    O8    D    
C96   O10   D    
C75   C91   S    
C15   H10   S    
C10   C71   S    
C25   N3    A    
C7    C84   S    
C29   C64   A    
C26   N4    A    
C34   F18   S    
C69   C88   S    
N15   Ni8   S    
C15   C57   S    
C41   F24   S    
C17   C51   A    
C34   N11   A    
C61   C99   S    
C41   C62   A    
C70   C87   S    
C9    C92   S    
C70   H4    S    
C79   C88   S    
C38   F22   S    
C94   F9    S    
C37   F21   S    
C31   N8    A    
C44   F4    S    
C76   C102  S    
C96   H20   S    
N20   Ni5   S    
C50   C98   S    
N15   N30   A    
C6    O7    D    
C78   C104  S    
C14   C20   D    
C28   N23   A    
C95   H19   S    
C9    C70   S    
C30   H38   S    
C46   C65   A    
C11   F15   S    
C11   C73   S    
N4    N18   A    
N7    N24   A    
N18   Ni6   S    
C75   H8    S    
C48   C63   A    
C40   N17   A    
C40   F23   S    
C7    H35   S    
C23   N32   A    
C26   H34   S    
C82   C91   S    
N5    N26   A    
C15   C19   D    
C10   F14   S    
C27   H36   S    
C67   C94   S    
C13   F17   S    
C103  H28   S    
N8    N22   A    
C22   H17   S    
C100  O14   D    
N21   Ni6   S    
C69   H3    S    
C5    H32   S    
N1    N13   A    
C74   H7    S    
N19   Ni5   S    
C97   O11   D    
C8    C69   S    
C93   H18   S    
C8    C91   S    
C43   F3    S    
N28   Ni3   S    
C68   H2    S    
C42   F2    S    
N8    Ni3   S    
C6    H33   S    
C27   C63   A    
C18   C55   S    
C81   C90   S    
N21   N32   A    
N22   Ni8   S    
C48   F8    S    
C31   H39   S    
C77   C86   S    
C36   C57   A    
C19   H14   S    
C40   C54   A    
C32   F1    S    
C46   F6    S    
C93   O1    D    
N31   Ni4   S    
N24   Ni7   S    
C32   N9    A    
C77   C103  S    
C16   H11   S    
C36   N14   A    
C98   O12   D    
C64   C92   S    
N17   N28   A    
C61   N29   A    
C42   N19   A    
C42   C60   A    
C30   N7    A    
N30   Ni3   S    
C2    C76   S    
C17   N12   A    
C72   C100  S    
C3    O4    D    
C67   C86   S    
C16   C22   D    
C4    O5    D    
N9    N27   A    
C12   C87   S    
C48   N26   A    
C33   N10   A    
C47   N25   A    
C18   H13   S    
C97   H21   S    
C67   C80   S    
C21   H16   S    
C46   N24   A    
C20   C53   S    
C71   H5    S    
C60   C85   S    
C47   C64   A    
C73   C77   S    
C63   C91   S    
C43   C59   A    
C35   N13   A    
N26   Ni8   S    
C99   H24   S    
C10   C81   S    
N12   Ni2   S    
N16   Ni8   S    
N3    N19   A    
C28   C96   S    
C24   N2    A    
N3    Ni2   S    
C35   F19   S    
C26   C62   A    
C73   C89   S    
C13   C82   S    
C8    C79   S    
N10   N23   A    
C2    F10   S    
C72   N30   A    
C101  O15   D    
C39   C53   A    
C71   C90   S    
C39   N27   A    
C101  H26   S    
C24   C59   A    
C47   F7    S    
C5    O6    D    
N10   Ni6   S    
C13   C88   S    
C1    N1    A    
N6    Ni3   S    
C95   O9    D    
N9    Ni5   S    
C41   N18   A    
C68   C85   S    
C9    C78   S    
N4    Ni1   S    
C16   C54   S    
N11   Ni6   S    
C30   C65   A    
C11   C80   S    
N1    Ni1   S    
N11   N12   A    
C103  O2    D    
C45   N22   A    
C73   H6    S    
N6    N25   A    
C1    C93   S    
N16   N29   A    
C74   C78   S    
N2    N20   A    
C45   C66   A    
C83   C101  S    
C84   C92   S    
C104  O3    D    
C33   F12   S    
C75   C79   S    
C76   C85   S    
N32   Ni2   S    
C9    F13   S    
C22   C51   S    
C57   C83   A    
