data_mof_unit_9586.cif
_audit_creation_date              2012-12-10T18:36:17-0500
_audit_creation_method            fapswitch 2.2
_symmetry_space_group_name_H-M    P1
_symmetry_Int_Tables_number       1
_space_group_crystal_system       triclinic
_cell_length_a                    14.96806
_cell_length_b                    15.471883
_cell_length_c                    19.074501
_cell_angle_alpha                 89.823097
_cell_angle_beta                  105.216219
_cell_angle_gamma                 82.24327
_cell_volume                      4220.05915424

loop_
_atom_site_label
_atom_site_type_symbol
_atom_type_description
_atom_site_fract_x
_atom_site_fract_y
_atom_site_fract_z
_atom_type_partial_charge
C1    C     C_R   0.441593 0.662302 0.488572 0.975619
C2    C     C_R   0.527508 0.187959 0.488932 -0.227838
C3    C     C_R   0.442479 0.899548 0.453547 0.052495
C4    C     C_R   0.551079 0.102350 0.471265 0.052547
C5    C     C_R   0.345397 0.932366 0.435065 -0.005172
C6    C     C_R   0.646447 0.070745 0.476761 0.011872
C7    C     C_R   0.509965 0.955965 0.454963 0.099003
C8    C     C_R   0.481727 0.046520 0.452532 0.091722
C9    C     C_R   0.385098 0.078493 0.431292 -0.211346
C10   C     C_R   0.604661 0.924927 0.459089 -0.196344
C11   C     C_R   0.318367 0.022261 0.421050 -0.092808
C12   C     C_R   0.558325 0.337734 0.508836 0.880460
C13   C     C_R   0.671043 0.981594 0.468072 -0.095060
C14   C     C_R   0.831574 0.658820 0.586435 0.331473
C15   C     C_R   0.159675 0.356414 0.395829 0.339985
C16   C     C_R   0.501274 0.501032 0.634879 0.985316
C17   C     C_R   0.498180 0.500256 0.365144 0.980575
C18   C     C_R   0.746195 0.627828 0.575102 -0.008705
C19   C     C_R   0.248167 0.382263 0.413085 -0.017049
C20   C     C_R   0.797043 0.505348 0.514212 -0.042828
C21   C     C_R   0.204845 0.491156 0.489698 -0.027957
C22   C     C_R   0.884666 0.533467 0.521298 -0.033219
C23   C     C_R   0.405985 0.754857 0.472674 -0.116908
C24   C     C_R   0.112927 0.470543 0.473851 -0.036683
C25   C     C_R   0.902530 0.610643 0.560040 -0.007793
C26   C     C_R   0.091260 0.400053 0.427447 -0.003630
C27   C     C_R   0.953722 0.488415 0.490259 0.116070
C28   C     C_R   0.042889 0.517118 0.503017 0.114413
C29   C     C_R   0.058494 0.592816 0.542926 -0.200958
C30   C     C_R   0.935480 0.417242 0.445102 -0.193368
C31   C     C_R   0.989903 0.638487 0.570286 -0.066847
C32   C     C_R   0.002182 0.374958 0.413972 -0.040021
C33   C     C_R   0.461670 0.429992 0.734484 -0.307998
C34   C     C_R   0.592677 0.245735 0.503180 -0.107260
C35   C     C_R   0.581307 0.454570 0.274835 -0.314683
C36   C     C_R   0.466705 0.415465 0.807138 0.341256
C37   C     C_R   0.586221 0.439251 0.204412 0.346979
C38   C     C_R   0.525878 0.460523 0.859658 -0.249972
C39   C     C_R   0.503405 0.454066 0.147484 -0.251462
C40   C     C_R   0.579343 0.520195 0.839129 0.304650
C41   C     C_R   0.416247 0.484023 0.161505 0.301718
C42   C     C_R   0.562729 0.543632 0.764602 0.356531
C43   C     C_R   0.414909 0.511358 0.231888 0.353432
C44   C     C_R   0.507777 0.493663 0.712529 -0.286698
C45   C     C_R   0.278818 0.874240 0.432538 0.422597
C46   C     C_R   0.497584 0.491112 0.289036 -0.281154
C47   C     C_R   0.509302 0.453226 0.072720 0.444210
C48   C     C_R   0.520828 0.456562 0.934545 0.446699
C49   C     C_R   0.713922 0.129388 0.491777 0.379028
C50   C     C_R   0.310258 0.785564 0.450612 -0.193323
C51   C     C_R   0.685679 0.216828 0.504123 -0.268756
C52   C     C_R   0.470598 0.812044 0.475190 -0.200754
H1    H     H_    0.420106 0.391956 0.694247 0.222978
H2    H     H_    0.868960 0.393495 0.430584 0.144150
H3    H     H_    0.245793 0.050828 0.404712 0.246859
H4    H     H_    0.742067 0.953760 0.470699 0.235336
H5    H     H_    0.457881 0.210421 0.493433 0.173089
H6    H     H_    0.543787 0.787722 0.496643 0.179934
H7    H     H_    0.735864 0.262586 0.514116 0.192442
H8    H     H_    0.260316 0.740415 0.448058 0.216512
H9    H     H_    0.359262 0.147076 0.420143 0.187630
H10   H     H_    0.628789 0.857083 0.453009 0.165756
H11   H     H_    0.754399 0.860209 0.667145 0.402689
H12   H     H_    0.643834 0.438905 0.319263 0.209706
H13   H     H_    0.218694 0.182799 0.279098 0.406186
H14   H     H_    0.503159 0.229447 0.840074 0.361228
H15   H     H_    0.684293 0.266335 0.199732 0.359308
H16   H     H_    0.799190 0.610171 0.913072 0.404275
H17   H     H_    0.166057 0.470516 0.085437 0.407229
H18   H     H_    0.636131 0.761728 0.783325 0.403936
H19   H     H_    0.197999 0.668328 0.185080 0.402321
H20   H     H_    0.030877 0.850487 0.397896 0.414172
H21   H     H_    0.874911 0.214864 0.459783 0.351845
H22   H     H_    0.006896 0.696286 0.599584 0.227722
H23   H     H_    0.982427 0.321736 0.379428 0.227664
H24   H     H_    0.229313 0.540239 0.526865 0.144656
H25   H     H_    0.777432 0.447200 0.487236 0.135060
H26   H     H_    0.302292 0.350326 0.390243 0.189279
H27   H     H_    0.689484 0.664514 0.592176 0.226899
H28   H     H_    0.122400 0.620862 0.552264 0.157973
N1    N     N_R   0.547179 0.381025 0.975410 -0.044592
N2    N     N_R   0.483206 0.528467 0.031769 -0.082926
N3    N     N_R   0.541281 0.379330 0.043728 -0.044817
N4    N     N_R   0.488609 0.530056 0.963597 -0.081731
N5    N     N_R   0.731690 0.552730 0.540620 -0.139025
N6    N     N_R   0.268310 0.447270 0.459380 -0.131282
O1    O     O_R   0.383120 0.605620 0.479520 -0.603892
O2    O     O_2   0.868627 0.822754 0.580554 -0.281686
O3    O     O_3   0.743692 0.801589 0.648922 -0.541799
O4    O     O_2   0.114253 0.195551 0.373365 -0.279055
O5    O     O_2   0.057181 0.302446 0.270845 -0.193342
O6    O     O_3   0.232714 0.236765 0.305029 -0.564299
O7    O     O_2   0.341700 0.384173 0.879138 -0.178873
O8    O     O_2   0.330046 0.313913 0.763106 -0.252378
O9    O     O_3   0.466344 0.252434 0.873885 -0.465009
O10   O     O_2   0.714030 0.460574 0.132324 -0.173243
O11   O     O_2   0.774277 0.405133 0.258432 -0.285449
O12   O     O_R   0.616880 0.394380 0.520480 -0.624365
O13   O     O_3   0.700081 0.299968 0.161443 -0.458298
O14   O     O_2   0.629540 0.640703 0.937610 -0.207759
O15   O     O_2   0.709924 0.491654 0.968031 -0.234127
O16   O     O_3   0.757564 0.581810 0.873427 -0.445684
O17   O     O_2   0.285519 0.564460 0.047055 -0.203677
O18   O     O_2   0.324163 0.406167 0.042999 -0.233901
O19   O     O_3   0.222279 0.464485 0.127341 -0.441099
O20   O     O_2   0.695729 0.615820 0.724713 -0.235669
O21   O     O_2   0.533604 0.679122 0.667235 -0.329679
O22   O     O_3   0.605241 0.715827 0.799853 -0.445759
O23   O     O_R   0.531890 0.639510 0.505590 -0.623151
O24   O     O_2   0.253902 0.522592 0.271011 -0.230860
O25   O     O_2   0.347491 0.641230 0.306531 -0.321915
O26   O     O_3   0.254391 0.638882 0.172478 -0.446237
O27   O     O_2   0.133584 0.974851 0.461184 -0.219965
O28   O     O_2   0.127326 0.951385 0.333012 -0.236696
O29   O     O_3   0.097523 0.824466 0.409603 -0.538914
O30   O     O_2   0.876121 0.030909 0.556376 -0.178637
O31   O     O_2   0.840298 0.055846 0.424676 -0.264904
O32   O     O_3   0.893086 0.182647 0.507505 -0.493611
O33   O     O_R   0.468110 0.360490 0.494410 -0.635131
O34   O     O_R   0.425590 0.483060 0.588820 -0.629569
O35   O     O_R   0.574410 0.516940 0.411180 -0.627461
O36   O     O_R   0.574360 0.516950 0.614890 -0.554210
O37   O     O_R   0.425640 0.483050 0.385110 -0.561310
O38   O     O_2   0.920690 0.744504 0.699438 -0.222553
S1    S     S_3+6 0.843923 0.759351 0.629907 0.048220
S2    S     S_3+6 0.833157 0.096894 0.494703 0.081914
S3    S     S_3+6 0.138082 0.270642 0.334881 0.048549
S4    S     S_3+6 0.396879 0.341420 0.830059 0.100871
S5    S     S_3+6 0.697395 0.402829 0.189768 0.097760
S6    S     S_3+6 0.669893 0.559505 0.907333 0.128493
S7    S     S_3+6 0.310641 0.480213 0.091736 0.131512
S8    S     S_3+6 0.600352 0.639806 0.736703 0.105524
S9    S     S_3+6 0.315911 0.579122 0.247597 0.110134
S10   S     S_3+6 0.156524 0.909362 0.408209 0.077227
Zn1   Zn    Zn3+2 0.400660 0.477370 0.482600 1.012576
Zn2   Zn    Zn3+2 0.599340 0.522630 0.517400 1.006873

loop_
_geom_bond_atom_site_label_1
_geom_bond_atom_site_label_2
_ccdc_geom_bond_type
C25   C31   A    
H13   O6    S    
C38   C40   A    
C26   C32   A    
C7    C10   A    
C14   C18   A    
O26   S9    S    
C4    C8    A    
C19   N6    A    
C32   H23   S    
C2    H5    S    
C7    C8    A    
C39   C41   A    
C10   H10   S    
O20   S8    D    
C49   S2    S    
C30   H2    S    
C21   H24   S    
C34   C51   A    
C14   S1    S    
O5    S3    D    
C20   H25   S    
C9    H9    S    
C28   C29   A    
C35   C37   A    
O10   S5    D    
H16   O16   S    
C5    C11   A    
C3    C7    A    
C16   O34   A    
O14   S6    D    
O12   Zn2   S    
C33   C36   A    
C48   N1    A    
O19   S7    S    
C47   N2    A    
C1    O1    A    
C43   S9    S    
C16   O36   A    
C1    O23   A    
C15   C19   A    
O9    S4    S    
C17   O37   A    
C18   H27   S    
C49   C51   A    
O18   S7    D    
O4    S3    D    
C35   H12   S    
C47   N3    A    
O31   S2    D    
C16   C44   S    
C12   O12   A    
H15   O13   S    
C13   H4    S    
O15   S6    D    
C2    C34   A    
C40   C42   A    
C14   C25   A    
O30   S2    D    
H19   O26   S    
C27   C30   A    
C41   C43   A    
C36   S4    S    
C42   C44   A    
N1    N3    A    
C33   H1    S    
C18   N5    A    
O13   S5    S    
O1    Zn1   S    
C17   C46   S    
C15   S3    S    
C4    C6    A    
C41   S7    S    
H17   O19   S    
C8    C9    A    
C23   C50   A    
O3    S1    S    
C3    C5    A    
C5    C45   A    
C22   C25   A    
O33   Zn1   S    
C48   N4    A    
O37   Zn1   S    
C19   H26   S    
C2    C4    A    
O2    S1    D    
C12   O33   A    
H20   O29   S    
C20   N5    A    
H11   O3    S    
C45   S10   S    
C9    C11   A    
O36   Zn2   S    
C52   H6    S    
C17   O35   A    
C20   C22   A    
C1    C23   S    
N2    N4    A    
O27   S10   D    
C51   H7    S    
C12   C34   S    
O6    S3    S    
C11   H3    S    
C39   C47   S    
C40   S6    S    
C21   N6    A    
H21   O32   S    
C33   C44   A    
C38   C48   S    
O25   S9    D    
C24   C28   A    
C24   C26   A    
O21   S8    D    
C15   C26   A    
C10   C13   A    
C3    C52   A    
O29   S10   S    
O8    S4    D    
C22   C27   A    
O34   Zn1   S    
C50   H8    S    
C36   C38   A    
O7    S4    D    
O11   S5    D    
C37   C39   A    
H18   O22   S    
C6    C13   A    
C30   C32   A    
C23   C52   A    
C29   H28   S    
C45   C50   A    
O28   S10   D    
C37   S5    S    
O35   Zn2   S    
C31   H22   S    
C43   C46   A    
O22   S8    S    
N5    Zn2   S    
N6    Zn1   S    
C29   C31   A    
C21   C24   A    
C27   C28   A    
O38   S1    D    
O24   S9    D    
C42   S8    S    
O32   S2    S    
C35   C46   A    
O17   S7    D    
C6    C49   A    
H14   O9    S    
O23   Zn2   S    
O16   S6    S    
