data_mof_unit_37405.cif
_audit_creation_date              2012-12-11T15:43:14-0500
_audit_creation_method            fapswitch 2.2
_symmetry_space_group_name_H-M    P1
_symmetry_Int_Tables_number       1
_space_group_crystal_system       triclinic
_cell_length_a                    19.114847
_cell_length_b                    10.934183
_cell_length_c                    18.770252
_cell_angle_alpha                 89.909742
_cell_angle_beta                  89.851475
_cell_angle_gamma                 90.021957
_cell_volume                      3923.06258943

loop_
_atom_site_label
_atom_site_type_symbol
_atom_type_description
_atom_site_fract_x
_atom_site_fract_y
_atom_site_fract_z
_atom_type_partial_charge
C1    C     C_R   0.711309 0.329508 0.138706 0.549392
C2    C     C_R   0.954631 0.990383 0.053237 -0.110074
C3    C     C_R   0.755726 0.452231 0.567750 0.015001
C4    C     C_R   0.729928 0.381008 0.351385 0.556322
C5    C     C_R   0.270491 0.377743 0.647499 0.557100
C6    C     C_R   0.229925 0.880998 0.351390 0.557571
C7    C     C_R   0.770486 0.877754 0.647503 0.548042
C8    C     C_R   0.530942 0.156261 0.352804 0.579353
C9    C     C_R   0.466525 0.157140 0.645502 0.545957
C10   C     C_R   0.030935 0.656261 0.352799 0.572570
C11   C     C_R   0.966508 0.657138 0.645492 0.547291
C12   C     C_R   0.741986 0.971050 0.354222 0.557001
C13   C     C_R   0.544374 0.491903 0.947740 -0.136100
C14   C     C_R   0.260103 0.976769 0.643471 0.544870
C15   C     C_R   0.241987 0.471047 0.354221 0.553049
C16   C     C_R   0.760097 0.476749 0.643477 0.539323
C17   C     C_R   0.501058 0.162327 0.923079 0.039978
C18   C     C_R   0.507558 0.171015 0.072218 0.005763
C19   C     C_R   0.988797 0.668383 0.929417 0.000926
C20   C     C_R   0.995778 0.660820 0.078558 -0.006178
C21   C     C_R   0.515857 0.275063 0.956088 0.041954
C22   C     C_R   0.516121 0.281867 0.031679 0.017949
C23   C     C_R   0.980823 0.779531 0.969680 0.027885
C24   C     C_R   0.541308 0.501395 0.021279 -0.157038
C25   C     C_R   0.980330 0.772822 0.045251 0.006999
C26   C     C_R   0.494616 0.061642 0.036810 -0.180306
C27   C     C_R   0.497336 0.055949 0.964015 -0.163691
C28   C     C_R   0.996957 0.553327 0.038484 -0.170027
C29   C     C_R   0.997604 0.557580 0.965562 -0.172927
C30   C     C_R   0.746618 0.931085 0.919625 0.010302
C31   C     C_R   0.217719 0.835060 0.061535 -0.026211
C32   C     C_R   0.281359 0.336637 0.938369 -0.026347
C33   C     C_R   0.725567 0.354463 0.064447 0.019689
C34   C     C_R   0.709727 0.856583 0.966352 -0.009461
C35   C     C_R   0.277877 0.797239 0.025163 0.019517
C36   C     C_R   0.220763 0.300084 0.974550 0.018677
C37   C     C_R   0.289097 0.327450 0.860928 0.567107
C38   C     C_R   0.779843 0.432562 0.045744 0.038303
C39   C     C_R   0.705832 0.881378 0.037561 -0.022593
C40   C     C_R   0.287797 0.826897 0.953713 -0.024793
C41   C     C_R   0.210859 0.329761 0.045887 -0.026072
C42   C     C_R   0.792044 0.460589 0.975301 -0.023555
C43   C     C_R   0.781546 0.055706 0.021228 0.204107
C44   C     C_R   0.172164 0.914762 0.949471 0.220151
C45   C     C_R   0.327145 0.415279 0.050389 0.220573
C46   C     C_R   0.702669 0.317579 0.938183 0.210344
C47   C     C_R   0.784140 0.030064 0.947998 -0.105083
C48   C     C_R   0.210632 0.827036 0.139190 0.569884
C49   C     C_R   0.162345 0.882170 0.021322 -0.150386
C50   C     C_R   0.336833 0.382999 0.978608 -0.151748
C51   C     C_R   0.690193 0.290465 0.010462 -0.072066
C52   C     C_3   0.638244 0.803067 0.964376 -0.275978
C53   C     C_3   0.352700 0.820758 0.042766 -0.257963
C54   C     C_3   0.146042 0.324634 0.956766 -0.256490
C55   C     C_3   0.793355 0.560351 0.069696 -0.259238
C56   C     C_3   0.634352 0.828694 0.044066 -0.272458
C57   C     C_3   0.363174 0.853851 0.965111 -0.281693
C58   C     C_3   0.135471 0.357548 0.034431 -0.279704
C59   C     C_R   0.768799 0.880492 0.852150 0.551082
C60   C     C_3   0.806613 0.591052 0.992110 -0.268112
C61   C     C_R   0.737541 0.984869 0.065837 0.052258
C62   C     C_R   0.238171 0.895823 0.916390 0.051197
C63   C     C_R   0.261053 0.397098 0.083368 0.052207
C64   C     C_R   0.750316 0.412474 0.921258 0.008527
C65   C     C_R   0.532668 0.156896 0.145804 0.528495
C66   C     C_R   0.469887 0.155160 0.852127 0.534492
C67   C     C_R   0.029534 0.654958 0.148349 0.525757
C68   C     C_R   0.966488 0.656377 0.854768 0.544039
C69   C     C_R   0.485181 0.163425 0.570717 -0.011691
C70   C     C_R   0.531995 0.380188 0.915278 -0.055276
C71   C     C_R   0.495166 0.160827 0.421270 0.013971
C72   C     C_R   0.985144 0.663422 0.570700 -0.010914
C73   C     C_R   0.995146 0.660826 0.421257 0.014065
C74   C     C_R   0.480820 0.054935 0.532547 0.065033
C75   C     C_R   0.482437 0.052243 0.459753 0.024826
C76   C     C_R   0.980784 0.554930 0.532531 0.064644
C77   C     C_R   0.982413 0.552239 0.459736 0.024900
C78   C     C_R   0.487433 0.272531 0.457471 -0.180271
C79   C     C_R   0.483437 0.273878 0.532201 -0.171985
C80   C     C_R   0.987405 0.772529 0.457455 -0.180683
C81   C     C_R   0.526239 0.398809 0.062839 -0.071793
C82   C     C_R   0.983401 0.773876 0.532184 -0.171173
C83   C     C_3   0.517691 0.935951 0.541916 0.144045
C84   C     C_3   0.513172 0.924716 0.461660 0.116558
C85   C     C_3   0.017664 0.435954 0.541902 0.144370
C86   C     C_3   0.013159 0.424720 0.461647 0.116677
C87   C     C_R   0.750605 0.916157 0.576794 0.008440
C88   C     C_R   0.249691 0.934773 0.419057 0.018370
C89   C     C_R   0.250617 0.416137 0.576786 0.007202
C90   C     C_R   0.749691 0.434781 0.419055 0.017576
C91   C     C_R   0.783447 0.015470 0.544243 0.011128
C92   C     C_R   0.973011 0.897007 0.938354 -0.059857
C93   C     C_R   0.200237 0.003745 0.456937 0.012808
C94   C     C_R   0.283465 0.515444 0.544233 0.012550
C95   C     C_R   0.700237 0.503746 0.456939 0.012538
C96   C     C_R   0.783796 0.025145 0.471281 0.051309
C97   C     C_R   0.203416 0.011314 0.529651 0.025418
C98   C     C_R   0.283811 0.525120 0.471272 0.051212
C99   C     C_R   0.703413 0.511301 0.529655 0.027098
C100  C     C_R   0.714438 0.842435 0.460090 -0.109362
C101  C     C_R   0.312364 0.903196 0.529363 -0.159305
C102  C     C_R   0.214438 0.342427 0.460084 -0.108690
C103  C     C_R   0.964212 0.877735 0.085864 -0.096931
C104  C     C_R   0.812356 0.403179 0.529365 -0.159361
C105  C     C_R   0.712009 0.834039 0.534223 -0.138857
C106  C     C_R   0.309994 0.896521 0.454845 -0.161183
C107  C     C_R   0.212014 0.334027 0.534216 -0.140328
C108  C     C_R   0.809992 0.396524 0.454845 -0.161473
C109  C     C_3   0.857180 0.060812 0.549727 -0.267794
C110  C     C_3   0.121929 0.996424 0.459239 -0.267653
C111  C     C_3   0.357202 0.560775 0.549712 -0.267811
C112  C     C_3   0.621929 0.496424 0.459239 -0.266764
C113  C     C_R   0.728817 0.017354 0.140060 0.563212
C114  C     C_R   0.959400 0.000177 0.979743 -0.148381
C115  C     C_R   0.257368 0.966662 0.851976 0.557585
C116  C     C_R   0.242466 0.467049 0.147959 0.557353
C117  C     C_R   0.758099 0.466160 0.851062 0.523866
C118  C     C_3   0.858278 0.066280 0.469437 -0.269815
C119  C     C_3   0.126196 0.005336 0.539371 -0.275947
C120  C     C_3   0.358294 0.566248 0.469421 -0.269686
C121  C     C_3   0.626193 0.505323 0.539373 -0.277267
C122  C     C_R   0.751318 0.937982 0.428103 0.037542
C123  C     C_R   0.255734 0.952253 0.567745 0.014519
C124  C     C_R   0.251324 0.437967 0.428097 0.039345
Cr1   Cr    Cr6+3 0.772010 0.169670 0.250090 1.029811
Cr2   Cr    Cr6+3 0.383290 0.010760 0.749160 1.040482
Cr3   Cr    Cr6+3 0.116710 0.510760 0.250840 1.012947
Cr4   Cr    Cr6+3 0.883290 0.510760 0.749160 1.049802
Cr5   Cr    Cr6+3 0.227990 0.169670 0.749910 1.036460
Cr6   Cr    Cr6+3 0.272010 0.669670 0.250090 1.032297
Cr7   Cr    Cr6+3 0.727990 0.669670 0.749910 1.009346
Cr8   Cr    Cr6+3 0.615000 0.323260 0.249260 0.992376
Cr9   Cr    Cr6+3 0.385000 0.323260 0.750740 0.997787
Cr10  Cr    Cr6+3 0.115000 0.823260 0.249260 0.994416
Cr11  Cr    Cr6+3 0.885000 0.823260 0.750740 1.009624
Cr12  Cr    Cr6+3 0.616710 0.010760 0.250840 1.008455
H1    H     H_    0.486381 0.977008 0.065678 0.132748
H2    H     H_    0.475549 0.853514 0.443092 0.098310
H3    H     H_    0.071381 0.446851 0.563992 0.151630
H4    H     H_    0.975546 0.353508 0.443071 0.097642
H5    H     H_    0.687968 0.774669 0.427986 0.126481
H6    H     H_    0.356729 0.866842 0.557009 0.202615
H7    H     H_    0.187961 0.274669 0.427980 0.126582
H8    H     H_    0.856718 0.366820 0.557011 0.202434
H9    H     H_    0.685091 0.757115 0.557757 0.142250
H10   H     H_    0.352131 0.853700 0.425861 0.112659
H11   H     H_    0.185091 0.257111 0.557752 0.141485
H12   H     H_    0.490902 0.967085 0.939704 0.132696
H13   H     H_    0.852132 0.353715 0.425859 0.112352
H14   H     H_    0.894549 0.992996 0.570940 0.161855
H15   H     H_    0.103015 0.906013 0.441433 0.175789
H16   H     H_    0.394567 0.492950 0.570922 0.161051
H17   H     H_    0.603020 0.406014 0.441427 0.175595
H18   H     H_    0.860049 0.151998 0.575412 0.154006
H19   H     H_    0.096498 0.076927 0.433964 0.123617
H20   H     H_    0.360079 0.651963 0.575395 0.155307
H21   H     H_    0.596498 0.576929 0.433967 0.124127
H22   H     H_    0.864640 0.159532 0.448101 0.143725
H23   H     H_    0.002645 0.464502 0.063367 0.145863
H24   H     H_    0.103825 0.091631 0.560680 0.130551
H25   H     H_    0.364656 0.659501 0.448087 0.143959
H26   H     H_    0.603823 0.591615 0.560687 0.129836
H27   H     H_    0.893429 0.997325 0.444797 0.129987
H28   H     H_    0.109270 0.920703 0.567433 0.144261
H29   H     H_    0.393440 0.497290 0.444777 0.131536
H30   H     H_    0.609269 0.420686 0.567433 0.141609
H31   H     H_    0.538103 0.376265 0.858059 0.150445
H32   H     H_    0.518214 0.416713 0.118618 0.181073
H33   H     H_    0.981951 0.914841 0.882691 0.178822
H34   H     H_    0.001356 0.471214 0.937576 0.146365
H35   H     H_    0.957719 0.873188 0.143070 0.135557
H36   H     H_    0.954285 0.088865 0.954571 0.101857
H37   H     H_    0.944491 0.070606 0.085297 0.160635
H38   H     H_    0.555200 0.571461 0.915312 0.112772
H39   H     H_    0.548205 0.589542 0.046331 0.109770
H40   H     H_    0.817513 0.084715 0.913704 0.123099
H41   H     H_    0.113190 0.903840 0.047118 0.143181
H42   H     H_    0.386072 0.404224 0.952869 0.139251
H43   H     H_    0.653319 0.219281 0.024453 0.117582
H44   H     H_    0.117695 0.240432 0.940807 0.155634
H45   H     H_    0.490265 0.358208 0.428789 0.117145
H46   H     H_    0.841056 0.567140 0.103199 0.149330
H47   H     H_    0.640132 0.704153 0.951746 0.147131
H48   H     H_    0.380737 0.736228 0.058704 0.156685
H49   H     H_    0.601406 0.858351 0.931963 0.145179
H50   H     H_    0.359688 0.899731 0.079335 0.150202
H51   H     H_    0.139405 0.403856 0.920158 0.152710
H52   H     H_    0.746022 0.605653 0.091887 0.153735
H53   H     H_    0.595331 0.898307 0.059041 0.160903
H54   H     H_    0.373538 0.952558 0.956823 0.155149
H55   H     H_    0.124672 0.456200 0.042626 0.159161
H56   H     H_    0.481576 0.360356 0.559726 0.124108
H57   H     H_    0.766968 0.651110 0.968092 0.154964
H58   H     H_    0.634007 0.744548 0.077309 0.137585
H59   H     H_    0.397974 0.789536 0.935976 0.141403
H60   H     H_    0.100525 0.293098 0.063427 0.140109
H61   H     H_    0.861114 0.617446 0.980747 0.158969
H62   H     H_    0.005445 0.272048 0.576791 0.308933
H63   H     H_    0.077626 0.347797 0.397300 0.320011
H64   H     H_    0.505466 0.772060 0.576826 0.308420
H65   H     H_    0.577620 0.847775 0.397300 0.320343
H66   H     H_    0.846923 0.191475 0.010990 0.308651
H67   H     H_    0.990247 0.858208 0.428773 0.115692
H68   H     H_    0.092442 0.022457 0.949515 0.311052
H69   H     H_    0.407469 0.521642 0.050416 0.312401
H70   H     H_    0.683962 0.275584 0.839253 0.319328
H71   H     H_    0.981538 0.860355 0.559709 0.124737
H72   H     H_    0.571411 0.946837 0.563998 0.150765
O1    O     O_R   0.787520 0.042810 0.170440 -0.469394
O2    O     O_R   0.454050 0.051210 0.669140 -0.462865
O3    O     O_R   0.045950 0.551210 0.330860 -0.476332
O4    O     O_R   0.954050 0.551210 0.669140 -0.464584
O5    O     O_R   0.681390 0.959480 0.325510 -0.471236
O6    O     O_R   0.318610 0.959480 0.674490 -0.490035
O7    O     O_R   0.181390 0.459480 0.325510 -0.475676
O8    O     O_R   0.818610 0.459480 0.674490 -0.493651
O9    O     O_3   0.667900 0.167900 0.250060 -0.288772
O10   O     O_3   0.332100 0.167900 0.749940 -0.279952
O11   O     O_3   0.167900 0.667900 0.250060 -0.271065
O12   O     O_R   0.212480 0.042810 0.829560 -0.453119
O13   O     O_3   0.832100 0.667900 0.749940 -0.252560
O14   O     O_R   0.765640 0.292100 0.175020 -0.469213
O15   O     O_R   0.234360 0.292100 0.824980 -0.494017
O16   O     O_R   0.265640 0.792100 0.175020 -0.497827
O17   O     O_R   0.734360 0.792100 0.824980 -0.496820
O18   O     O_R   0.670190 0.408840 0.168540 -0.531814
O19   O     O_R   0.329810 0.408840 0.831460 -0.516135
O20   O     O_R   0.170190 0.908840 0.168540 -0.518393
O21   O     O_R   0.829810 0.908840 0.831460 -0.530932
O22   O     O_R   0.556620 0.251410 0.175160 -0.534498
O23   O     O_R   0.287520 0.542810 0.170440 -0.455324
O24   O     O_R   0.443380 0.251410 0.824840 -0.536989
O25   O     O_R   0.056620 0.751410 0.175160 -0.528571
O26   O     O_R   0.943380 0.751410 0.824840 -0.515764
O27   O     O_R   0.545960 0.049620 0.170320 -0.536167
O28   O     O_R   0.454040 0.049620 0.829680 -0.525379
O29   O     O_R   0.045960 0.549620 0.170320 -0.529754
O30   O     O_R   0.954040 0.549620 0.829680 -0.518610
O31   O     O_R   0.681390 0.958010 0.176690 -0.521260
O32   O     O_R   0.318610 0.958010 0.823310 -0.517480
O33   O     O_R   0.181390 0.458010 0.176690 -0.521452
O34   O     O_R   0.712480 0.542810 0.829560 -0.521121
O35   O     O_R   0.818610 0.458010 0.823310 -0.500229
O36   O     O_R   0.787510 0.044390 0.330970 -0.527302
O37   O     O_R   0.212490 0.044390 0.669030 -0.520101
O38   O     O_R   0.287510 0.544390 0.330970 -0.524489
O39   O     O_R   0.712490 0.544390 0.669030 -0.524060
O40   O     O_R   0.765630 0.293570 0.323840 -0.501859
O41   O     O_R   0.234370 0.293570 0.676160 -0.507745
O42   O     O_R   0.265630 0.793570 0.323840 -0.500881
O43   O     O_R   0.734370 0.793570 0.676160 -0.510545
O44   O     O_R   0.670190 0.410420 0.329080 -0.522019
O45   O     O_R   0.556610 0.252880 0.323980 -0.511022
O46   O     O_R   0.329810 0.410420 0.670920 -0.517660
O47   O     O_R   0.170190 0.910420 0.329080 -0.522354
O48   O     O_R   0.829810 0.910420 0.670920 -0.523313
O49   O     O_3   0.977408 0.348374 0.577585 -0.736878
O50   O     O_3   0.079682 0.416301 0.431882 -0.693373
O51   O     O_3   0.477430 0.848388 0.577606 -0.736822
O52   O     O_3   0.579688 0.916282 0.431880 -0.694058
O53   O     O_3   0.820511 0.150047 0.049643 -0.703993
O54   O     O_3   0.120321 0.977026 0.913841 -0.692027
O55   O     O_3   0.379292 0.476514 0.086076 -0.692720
O56   O     O_R   0.443390 0.252880 0.676020 -0.513711
O57   O     O_3   0.667402 0.251044 0.887196 -0.722991
O58   O     O_R   0.056610 0.752880 0.323980 -0.517501
O59   O     O_R   0.943390 0.752880 0.676020 -0.510845
O60   O     O_R   0.545950 0.051210 0.330860 -0.474568

loop_
_geom_bond_atom_site_label_1
_geom_bond_atom_site_label_2
_ccdc_geom_bond_type
C3    C104  A    
Cr10  O58   S    
Cr9   O56   S    
Cr11  O59   S    
H70   O57   S    
C73   C80   A    
C87   C91   A    
C7    O48   A    
C35   C53   S    
C8    O45   A    
C20   C67   S    
C19   C23   A    
C18   C26   A    
C52   H47   S    
C74   C83   S    
C72   C76   A    
C26   H1    S    
Cr2   O32   S    
C111  H16   S    
Cr6   O38   S    
C119  H28   S    
C1    C33   S    
C90   C95   A    
Cr5   O37   S    
C85   C86   S    
C68   O26   A    
C18   C65   S    
C114  H36   S    
C121  H30   S    
C82   H71   S    
C100  C105  A    
Cr5   O10   S    
C65   O22   A    
C57   H59   S    
C32   C36   A    
C96   C118  S    
C28   C29   A    
C50   H42   S    
C9    C69   S    
C41   C58   S    
C38   C42   A    
Cr5   O12   S    
C95   C112  S    
C2    H37   S    
C44   O54   S    
C115  O32   A    
C48   O20   A    
C10   C73   S    
C51   H43   S    
C75   C84   S    
C45   O55   S    
C80   H67   S    
C20   C25   A    
C94   C98   A    
C95   C99   A    
Cr4   O30   S    
Cr10  O11   S    
Cr12  O27   S    
C66   O24   A    
C94   C111  S    
C6    C88   S    
C14   O6    A    
Cr1   O36   S    
Cr8   O9    S    
C89   C94   A    
C16   O8    A    
C73   C77   A    
C4    O40   A    
C110  C119  S    
C110  H19   S    
Cr2   O6    S    
C91   C96   A    
C116  O33   A    
C52   C56   S    
Cr10  O25   S    
C7    C87   S    
C38   C55   S    
C83   C84   S    
C54   H44   S    
C27   H12   S    
C12   O36   A    
Cr3   O33   S    
C62   C115  S    
C109  C118  S    
C104  H8    S    
C83   O51   S    
C40   C57   S    
C71   C78   A    
Cr11  O48   S    
Cr2   O28   S    
C111  H20   S    
C85   H3    S    
C72   C82   A    
C4    C90   S    
C47   H40   S    
C8    O60   A    
C93   C110  S    
C99   C121  S    
C14   O37   A    
C117  O34   A    
C23   C25   A    
C40   C62   A    
C84   H2    S    
C18   C22   A    
C55   C60   S    
C88   C93   A    
C103  H35   S    
C5    C89   S    
C31   C48   S    
C36   C41   A    
C12   O5    A    
C31   C49   A    
C102  C124  A    
C9    O56   A    
C92   H33   S    
Cr7   O43   S    
C120  H29   S    
C49   H41   S    
Cr6   O42   S    
C69   C74   A    
C13   H38   S    
C39   C61   A    
Cr5   O41   S    
C118  H27   S    
C32   C37   S    
C15   C124  S    
C30   C34   A    
Cr3   O11   S    
C34   C39   A    
C17   C27   A    
C22   C81   A    
C5    O41   A    
C30   C47   A    
C19   C68   S    
C76   C77   A    
C4    O44   A    
C15   O7    A    
C110  H15   S    
Cr2   O2    S    
C53   H48   S    
C42   C60   S    
C43   O53   S    
C53   C57   S    
C11   C72   S    
C25   C103  A    
Cr12  O9    S    
C20   C28   A    
C44   C62   A    
C107  H11   S    
Cr1   O14   S    
C46   C51   A    
C67   O29   A    
C44   C49   A    
C17   C21   A    
C64   C117  S    
C13   C24   A    
C46   C64   A    
C1    O14   A    
Cr10  O20   S    
C5    O46   A    
C97   C119  S    
C98   C124  A    
C53   H50   S    
C1    O18   A    
C83   H72   S    
C6    O42   A    
Cr8   O18   S    
C11   O4    A    
C88   C106  A    
C101  H6    S    
Cr7   O17   S    
C93   C97   A    
Cr11  O21   S    
C39   C56   S    
C87   C105  A    
C15   O38   A    
C119  H24   S    
C9    O2    A    
C105  H9    S    
C30   C59   S    
C89   C107  A    
C26   C27   A    
Cr11  O26   S    
C59   O17   A    
C102  C107  A    
Cr7   O13   S    
Cr8   O44   S    
C101  C123  A    
C55   H52   S    
C59   O21   A    
C109  H18   S    
C37   O15   A    
Cr7   O39   S    
Cr8   O45   S    
Cr4   O8    S    
C86   O50   S    
C63   C116  S    
C120  H25   S    
C80   C82   A    
H69   O55   S    
C77   C86   S    
Cr3   O29   S    
C79   H56   S    
C116  O23   A    
C61   C113  S    
C29   H34   S    
C56   H58   S    
C112  H21   S    
C118  H22   S    
C24   C81   A    
C102  H7    S    
C41   C63   A    
C19   C29   A    
H66   O53   S    
C117  O35   A    
C104  C108  A    
C43   C61   A    
H64   O51   S    
C69   C79   A    
Cr12  O5    S    
C54   C58   S    
C16   O39   A    
Cr3   O3    S    
C101  C106  A    
C56   H53   S    
C67   O25   A    
Cr11  O13   S    
Cr1   O1    S    
C14   C123  S    
C10   O58   A    
C112  C121  S    
C78   C79   A    
C65   O27   A    
C112  H17   S    
Cr9   O19   S    
Cr1   O40   S    
Cr7   O34   S    
Cr8   O22   S    
Cr4   O13   S    
Cr10  O47   S    
C42   C64   A    
C98   C120  S    
C86   H4    S    
C33   C51   A    
C48   O16   A    
C35   C40   A    
C34   C52   S    
Cr9   O10   S    
C106  H10   S    
C96   C122  A    
C21   C70   A    
C54   H51   S    
C78   H45   S    
C60   H57   S    
C91   C109  S    
Cr6   O16   S    
C109  H14   S    
H65   O52   S    
C113  O1    A    
C57   H54   S    
C97   C123  A    
C68   O30   A    
C70   H31   S    
Cr4   O4    S    
H63   O50   S    
C71   C75   A    
C2    C114  A    
Cr3   O7    S    
Cr9   O46   S    
C43   C47   A    
Cr6   O23   S    
C46   O57   S    
C81   H32   S    
C121  H26   S    
C76   C85   S    
C31   C35   A    
C58   H60   S    
C55   H46   S    
C45   C63   A    
C6    O47   A    
C32   C50   A    
C100  C122  A    
C28   H23   S    
Cr12  O60   S    
C60   H61   S    
Cr6   O11   S    
C115  O12   A    
C2    C103  A    
Cr9   O24   S    
C100  H5    S    
C36   C54   S    
C90   C108  A    
C108  H13   S    
C3    C99   A    
C10   O3    A    
C113  O31   A    
C12   C122  S    
C74   C75   A    
H68   O54   S    
C52   H49   S    
C13   C70   A    
Cr12  O31   S    
C66   O28   A    
C58   H55   S    
C17   C66   S    
Cr4   O35   S    
C11   O59   A    
C23   C92   A    
C111  C120  S    
C33   C38   A    
C45   C50   A    
C37   O19   A    
C85   O49   S    
C7    O43   A    
C21   C22   A    
C24   H39   S    
C92   C114  A    
Cr5   O15   S    
H62   O49   S    
C84   O52   S    
C3    C16   S    
Cr2   O10   S    
C8    C71   S    
Cr1   O9    S    
