data_mof_unit_24084.cif
_audit_creation_date              2012-12-10T19:46:51-0500
_audit_creation_method            fapswitch 2.2
_symmetry_space_group_name_H-M    P1
_symmetry_Int_Tables_number       1
_space_group_crystal_system       triclinic
_cell_length_a                    10.901638
_cell_length_b                    10.89214
_cell_length_c                    13.121771
_cell_angle_alpha                 90.402686
_cell_angle_beta                  90.359803
_cell_angle_gamma                 89.979348
_cell_volume                      1558.03824681

loop_
_atom_site_label
_atom_site_type_symbol
_atom_type_description
_atom_site_fract_x
_atom_site_fract_y
_atom_site_fract_z
_atom_type_partial_charge
C1    C     C_R   0.494212 0.259613 0.499460 0.868815
C2    C     C_R   0.505794 0.740388 0.500540 0.868767
C3    C     C_R   0.872939 0.492280 0.501600 -0.069059
C4    C     C_R   0.127061 0.507717 0.498399 -0.069043
C5    C     C_R   0.940851 0.459175 0.589258 0.011156
C6    C     C_R   0.059148 0.540823 0.410742 0.011177
C7    C     C_R   0.248477 0.221861 0.223779 -0.222434
C8    C     C_R   0.751557 0.778267 0.776256 -0.222501
C9    C     C_R   0.292710 0.170526 0.314295 0.412692
C10   C     C_R   0.707309 0.829551 0.685730 0.412679
C11   C     C_R   0.410575 0.117010 0.316832 -0.043421
C12   C     C_R   0.589418 0.882998 0.683175 -0.043410
C13   C     C_R   0.481553 0.114823 0.227840 -0.228263
C14   C     C_R   0.518416 0.885141 0.772153 -0.228223
C15   C     C_R   0.436678 0.166866 0.137856 0.468616
C16   C     C_R   0.563302 0.833136 0.862145 0.468641
C17   C     C_R   0.320301 0.220667 0.136015 -0.234332
C18   C     C_R   0.679714 0.779424 0.864009 -0.234301
C19   C     C_R   0.468246 0.932789 0.412922 -0.216170
C20   C     C_R   0.531763 0.067212 0.587080 -0.216116
C21   C     C_R   0.506509 0.872929 0.501450 -0.060944
C22   C     C_R   0.493493 0.127072 0.498552 -0.060945
C23   C     C_R   0.259647 0.506991 0.499469 0.854464
C24   C     C_R   0.740353 0.493015 0.500531 0.854455
C25   C     C_R   0.540496 0.940480 0.589288 0.083365
C26   C     C_R   0.459499 0.059520 0.410717 0.083369
C27   C     C_1   0.499992 0.500055 0.173574 0.174512
C28   C     C_1   0.500008 0.499942 0.826426 0.174533
C29   C     C_1   0.499991 0.500042 0.050684 -0.012150
C30   C     C_1   0.500010 0.499951 0.949316 -0.012144
C31   C     C_R   0.234818 0.741320 0.226584 -0.097190
C32   C     C_R   0.765173 0.258773 0.773472 -0.097179
C33   C     C_R   0.185385 0.696284 0.317116 -0.098199
C34   C     C_R   0.814637 0.303745 0.682929 -0.098266
C35   C     C_R   0.115549 0.587740 0.315969 0.120647
C36   C     C_R   0.884443 0.412301 0.684039 0.120638
C37   C     C_R   0.094300 0.526688 0.222815 -0.144878
C38   C     C_R   0.905631 0.473432 0.777165 -0.144766
C39   C     C_R   0.145050 0.571241 0.132817 -0.165401
C40   C     C_R   0.854851 0.428940 0.867174 -0.165431
C41   C     C_R   0.215231 0.678474 0.134710 -0.086349
C42   C     C_R   0.784700 0.321695 0.865318 -0.086404
C43   C     C_R   0.932425 0.531398 0.413484 -0.170785
C44   C     C_R   0.067574 0.468592 0.586516 -0.170749
Cu1   Cu    Cu3+1 0.499990 0.499990 0.592680 1.004909
Cu2   Cu    Cu3+1 0.500010 0.500010 0.407320 1.004899
H1    H     H_    0.253533 0.713349 0.064806 0.187517
H2    H     H_    0.746372 0.286874 0.935232 0.187467
H3    H     H_    0.571743 0.072990 0.228645 0.190139
H4    H     H_    0.428201 0.926914 0.771331 0.190129
H5    H     H_    0.442024 0.880478 0.345772 0.154316
H6    H     H_    0.557999 0.119523 0.654227 0.154321
H7    H     H_    0.287499 0.825426 0.227246 0.150646
H8    H     H_    0.712509 0.174664 0.772840 0.150683
H9    H     H_    0.200756 0.746154 0.387762 0.126420
H10   H     H_    0.799307 0.253822 0.612304 0.126474
H11   H     H_    0.038191 0.444748 0.219991 0.129032
H12   H     H_    0.961715 0.555386 0.779959 0.129035
H13   H     H_    0.129126 0.523161 0.061478 0.135355
H14   H     H_    0.870726 0.477081 0.938490 0.135338
H15   H     H_    0.879607 0.558554 0.346997 0.159577
H16   H     H_    0.120388 0.441439 0.653005 0.159584
H17   H     H_    0.285105 0.260904 0.066502 0.177371
H18   H     H_    0.714922 0.739225 0.933530 0.177370
H19   H     H_    0.157673 0.261586 0.221132 0.174873
H20   H     H_    0.842384 0.738608 0.778921 0.174872
N1    N     N_1   0.500030 0.500030 0.268070 -0.137766
N2    N     N_1   0.499970 0.499970 0.731930 -0.137762
O1    O     O_R   0.499980 0.319630 0.578260 -0.585861
O2    O     O_R   0.500020 0.680370 0.421740 -0.585869
O3    O     O_R   0.500000 0.319650 0.421740 -0.580031
O4    O     O_R   0.500000 0.680350 0.578260 -0.580030
O5    O     O_R   0.319630 0.500000 0.578260 -0.584790
O6    O     O_R   0.680370 0.500000 0.421740 -0.584804
O7    O     O_R   0.319650 0.500020 0.421740 -0.568372
O8    O     O_R   0.680350 0.499980 0.578260 -0.568372
Cl1   Cl    Cl    0.525947 0.163851 0.027116 -0.640119
Cl2   Cl    Cl    0.473998 0.836086 0.972866 -0.640162
Cl3   Cl    Cl    0.197279 0.172046 0.422091 -0.637935
Cl4   Cl    Cl    0.802750 0.828056 0.577943 -0.637931

loop_
_geom_bond_atom_site_label_1
_geom_bond_atom_site_label_2
_ccdc_geom_bond_type
C33   H9    S    
C34   H10   S    
C40   H14   S    
C27   C29   S    
C24   O6    A    
C39   C41   A    
C15   Cl1   S    
Cu1   Cu2   S    
C8    H20   S    
C3    C43   A    
C1    O3    A    
Cu1   O8    S    
C19   C21   A    
C23   O5    A    
C20   C25   A    
C5    C36   S    
C6    C35   S    
Cu1   O5    S    
C9    Cl3   S    
C19   C26   A    
C38   H12   S    
C7    C17   A    
C31   C33   A    
C16   Cl2   S    
C40   C42   A    
C1    C22   S    
Cu1   O4    S    
C3    C24   S    
C2    C21   S    
C2    O4    A    
C32   H8    S    
Cu2   O7    S    
Cu1   O1    S    
C4    C6    A    
C23   O7    A    
C4    C23   S    
C10   Cl4   S    
C24   O8    A    
C4    C44   A    
C11   C26   S    
C44   H16   S    
C8    C18   A    
C32   C34   A    
C29   C30   T    
C19   H5    S    
C7    H19   S    
C39   H13   S    
Cu1   N2    S    
C41   H1    S    
C16   C18   A    
C42   H2    S    
C31   H7    S    
C9    C11   A    
Cu2   O3    S    
C10   C12   A    
C13   H3    S    
C8    C10   A    
C5    C44   A    
C12   C14   A    
C6    C43   A    
C13   C15   A    
C14   C16   A    
Cu2   O6    S    
C43   H15   S    
C35   C37   A    
C15   C17   A    
C21   C25   A    
C31   C41   A    
C28   N2    T    
C20   C22   A    
C3    C5    A    
C12   C25   S    
C36   C38   A    
Cu2   N1    S    
C20   H6    S    
C17   H17   S    
C38   C40   A    
C11   C13   A    
C18   H18   S    
C14   H4    S    
C28   C30   S    
C33   C35   A    
C34   C36   A    
C1    O1    A    
Cu2   O2    S    
C27   N1    T    
C7    C9    A    
C37   C39   A    
C22   C26   A    
C32   C42   A    
C2    O2    A    
C37   H11   S    
