data_mof_unit_31593.cif
_audit_creation_date              2012-12-10T16:43:00-0500
_audit_creation_method            fapswitch 2.2
_symmetry_space_group_name_H-M    P1
_symmetry_Int_Tables_number       1
_space_group_crystal_system       triclinic
_cell_length_a                    7.470101
_cell_length_b                    8.692846
_cell_length_c                    12.940404
_cell_angle_alpha                 87.803947
_cell_angle_beta                  79.397779
_cell_angle_gamma                 102.554335
_cell_volume                      803.519708884

loop_
_atom_site_label
_atom_site_type_symbol
_atom_type_description
_atom_site_fract_x
_atom_site_fract_y
_atom_site_fract_z
_atom_type_partial_charge
C1    C     C_R   0.453027 0.199856 0.503208 0.881720
C2    C     C_R   0.546975 0.800146 0.496788 0.883327
C3    C     C_R   0.466518 0.492936 0.701181 0.812826
C4    C     C_R   0.533546 0.507374 0.298841 0.818112
C5    C     C_R   0.552144 0.520485 0.185497 -0.120453
C6    C     C_R   0.448353 0.480617 0.814571 -0.076615
C7    C     C_R   0.273570 0.368757 0.987155 0.264210
C8    C     C_R   0.729428 0.632058 0.013303 0.253749
C9    C     C_R   0.288498 0.384700 0.878205 -0.265477
C10   C     C_R   0.711761 0.617336 0.122299 -0.222475
C11   C     C_R   0.594768 0.561058 0.858500 -0.273754
C12   C     C_R   0.407570 0.438549 0.141020 -0.249953
C13   C     C_R   0.583125 0.548849 0.967320 0.049584
C14   C     C_R   0.420169 0.451813 0.032268 0.102199
C15   C     C_2   0.426505 0.032143 0.504778 -0.371609
C16   C     C_2   0.573501 0.967861 0.495216 -0.371966
Cu1   Cu    Cu3+1 0.686350 0.517570 0.488220 0.946525
Cu2   Cu    Cu3+1 0.313650 0.482430 0.511780 0.947546
H1    H     H_    0.285810 0.363673 0.191966 0.195675
H2    H     H_    0.715990 0.634522 0.806686 0.167599
H3    H     H_    0.823282 0.681922 0.157671 0.168735
H4    H     H_    0.176593 0.319900 0.843203 0.150901
H5    H     H_    0.934461 0.376404 0.583140 0.223736
H6    H     H_    0.065536 0.623575 0.416846 0.225564
H7    H     H_    0.284555 0.961133 0.513824 0.180140
H8    H     H_    0.715449 0.038872 0.486173 0.180562
N1    N     N_2   0.033570 0.455950 0.529530 -0.218890
N2    N     N_2   0.966430 0.544050 0.470470 -0.217970
O1    O     O_R   0.621060 0.286250 0.492350 -0.582019
O2    O     O_R   0.378940 0.713750 0.507650 -0.582398
O3    O     O_R   0.306310 0.256580 0.512240 -0.588571
O4    O     O_R   0.693690 0.743420 0.487760 -0.588363
O5    O     O_R   0.631800 0.512400 0.642670 -0.593415
O6    O     O_R   0.368200 0.487600 0.357330 -0.589572
O7    O     O_R   0.317060 0.482730 0.662570 -0.585924
O8    O     O_R   0.682940 0.517270 0.337430 -0.586778
N3    N     N_2   0.114635 0.264389 0.050539 -0.453724
H9    H     H_    0.073879 0.159911 0.017457 0.252524
C17   C     C_3   0.959587 0.336613 0.085502 -0.673610
H10   H     H_    0.902767 0.371035 0.016787 0.227835
H11   H     H_    0.004884 0.442367 0.128033 0.246463
H12   H     H_    0.847054 0.250862 0.140296 0.231240
N4    N     N_2   0.896372 0.729413 0.952258 -0.431082
H13   H     H_    0.957944 0.678510 0.888606 0.253739
C18   C     C_3   0.883767 0.889835 0.927607 -0.704179
H14   H     H_    0.784859 0.892261 0.873460 0.224637
H15   H     H_    0.023765 0.961039 0.888523 0.222249
H16   H     H_    0.834693 0.943577 0.000963 0.237402

loop_
_geom_bond_atom_site_label_1
_geom_bond_atom_site_label_2
_ccdc_geom_bond_type
N4    H13   S    
C4    O8    A    
C8    C13   A    
C1    C15   S    
Cu1   O8    S    
H5    N1    S    
C7    C14   A    
C11   C13   A    
Cu2   O7    S    
C8    N4    S    
C3    O7    A    
C2    O2    A    
C3    C6    S    
C6    C9    A    
C1    O1    A    
Cu1   Cu2   S    
C7    N3    S    
C5    C10   A    
C17   H11   S    
C13   C14   A    
N4    C18   S    
C6    C11   A    
N3    H9    S    
Cu1   O5    S    
Cu2   O2    S    
C12   H1    S    
C2    O4    A    
C12   C14   A    
C17   H12   S    
Cu2   O6    S    
C10   H3    S    
C16   H8    S    
Cu1   O1    S    
C11   H2    S    
C4    O6    A    
C9    H4    S    
C15   H7    S    
C3    O5    A    
C15   C16   D    
C1    O3    A    
C2    C16   S    
C5    C12   A    
N3    C17   S    
C18   H15   S    
C17   H10   S    
C7    C9    A    
Cu1   O4    S    
Cu2   O3    S    
C18   H16   S    
C18   H14   S    
Cu1   N2    S    
C8    C10   A    
Cu2   N1    S    
H6    N2    S    
C4    C5    S    
N1    N2    D    
