data_mof_unit_53348.cif
_audit_creation_date              2012-12-11T16:11:46-0500
_audit_creation_method            fapswitch 2.2
_symmetry_space_group_name_H-M    P1
_symmetry_Int_Tables_number       1
_space_group_crystal_system       triclinic
_cell_length_a                    6.939465
_cell_length_b                    14.293699
_cell_length_c                    15.79477
_cell_angle_alpha                 89.966525
_cell_angle_beta                  90.026447
_cell_angle_gamma                 90.00942
_cell_volume                      1566.69263575

loop_
_atom_site_label
_atom_site_type_symbol
_atom_type_description
_atom_site_fract_x
_atom_site_fract_y
_atom_site_fract_z
_atom_type_partial_charge
O1    O     O_R   0.638960 0.835150 0.161940 -0.534575
O2    O     O_R   0.361040 0.164850 0.838060 -0.532391
O3    O     O_R   0.309170 0.846340 0.337470 -0.533316
O4    O     O_R   0.690830 0.153660 0.662530 -0.540906
O5    O     O_R   0.138810 0.664830 0.338070 -0.544734
O6    O     O_R   0.861190 0.335170 0.661930 -0.543098
C1    C     C_R   0.477911 0.868380 0.366579 0.798824
C2    C     C_R   0.522066 0.131537 0.633482 0.796161
O7    O     O_R   0.309250 0.846350 0.162570 -0.540677
O8    O     O_R   0.690750 0.153650 0.837430 -0.541027
O9    O     O_R   0.138880 0.664840 0.161920 -0.546096
O10   O     O_R   0.861120 0.335160 0.838080 -0.544749
C3    C     C_R   0.478071 0.868795 0.133592 0.728656
C4    C     C_R   0.521930 0.131170 0.866373 0.730823
O11   O     O_R   0.638880 0.835150 0.338090 -0.523291
O12   O     O_R   0.361120 0.164850 0.661910 -0.526438
O13   O     O_3   0.472380 0.690440 0.250000 -0.387405
O14   O     O_3   0.527620 0.309560 0.750000 -0.383183
V1    V     V_3+5 0.197550 0.761040 0.250010 1.486743
V2    V     V_3+5 0.802450 0.238960 0.749990 1.464663
O15   O     O_R   0.809160 0.653640 0.162540 -0.548629
O16   O     O_R   0.190840 0.346360 0.837460 -0.547102
C5    C     C_R   0.977925 0.631340 0.133443 0.661062
C6    C     C_R   0.022077 0.368644 0.866569 0.666746
O17   O     O_R   0.809090 0.653640 0.337440 -0.547751
O18   O     O_R   0.190910 0.346360 0.662560 -0.546283
C7    C     C_R   0.977887 0.631379 0.366564 0.674475
C8    C     C_R   0.022109 0.368694 0.633493 0.679538
V3    V     V_3+5 0.697540 0.738950 0.250000 1.465937
V4    V     V_3+5 0.302460 0.261050 0.750000 1.460370
O19   O     O_3   0.972580 0.809550 0.250010 -0.341828
O20   O     O_3   0.027420 0.190450 0.749990 -0.347677
C9    C     C_3   0.079544 0.581335 0.524374 -0.127607
C10   C     C_3   0.920480 0.418861 0.475771 -0.140717
C11   C     C_3   0.905552 0.533254 0.567887 -0.127992
C12   C     C_3   0.094467 0.466921 0.432258 -0.138395
H1    H     H_    0.827903 0.560164 0.624272 0.122511
H2    H     H_    0.172080 0.439985 0.375872 0.114331
H3    H     H_    0.145101 0.648822 0.543847 0.156618
H4    H     H_    0.854822 0.351401 0.456400 0.153503
C13   C     C_3   0.011745 0.438911 0.562736 -0.018355
C14   C     C_3   0.988273 0.561263 0.437399 -0.021238
C15   C     C_3   0.185947 0.486169 0.520042 -0.115984
C16   C     C_3   0.814077 0.514013 0.480102 -0.119327
H5    H     H_    0.339337 0.474400 0.536939 0.113929
H6    H     H_    0.660685 0.525768 0.463199 0.113335
C17   C     C_3   0.922159 0.418451 0.024642 -0.140616
C18   C     C_3   0.077841 0.581513 0.975387 -0.133306
C19   C     C_3   0.096045 0.467225 0.067626 -0.140973
C20   C     C_3   0.903954 0.532741 0.932404 -0.133269
H7    H     H_    0.175037 0.440635 0.123836 0.107575
H8    H     H_    0.824957 0.559330 0.876195 0.115455
H9    H     H_    0.858031 0.350736 0.044469 0.106383
H10   H     H_    0.141972 0.649229 0.955563 0.115387
C21   C     C_3   0.988255 0.561173 0.062643 -0.009148
C22   C     C_3   0.011746 0.438794 0.937384 -0.008440
C23   C     C_3   0.814169 0.513214 0.020465 -0.119311
C24   C     C_3   0.185831 0.486751 0.979564 -0.116890
H11   H     H_    0.660846 0.524392 0.037732 0.107710
H12   H     H_    0.339155 0.475573 0.962298 0.108362
C25   C     C_3   0.576801 0.036176 0.430957 0.562885
C26   C     C_3   0.423110 0.963657 0.569154 0.486128
C27   C     C_3   0.403400 0.078367 0.478654 -0.241388
C28   C     C_3   0.596555 0.921502 0.521432 -0.241055
H13   H     H_    0.325838 0.143343 0.460675 0.166162
H14   H     H_    0.674211 0.856551 0.539406 0.164696
C29   C     C_3   0.511909 0.061623 0.562802 -0.189951
C30   C     C_3   0.488006 0.938233 0.437305 -0.177008
C31   C     C_3   0.686827 0.020908 0.514685 -0.237781
C32   C     C_3   0.313050 0.978962 0.485405 -0.256025
H15   H     H_    0.840292 0.039095 0.525675 0.146248
H16   H     H_    0.159533 0.961013 0.474092 0.166532
C33   C     C_3   0.562440 0.916182 0.973238 -0.132835
C34   C     C_3   0.437593 0.083741 0.026682 -0.136253
C35   C     C_3   0.390114 0.970877 0.935140 -0.084873
C36   C     C_3   0.609927 0.029048 0.064770 -0.090414
H17   H     H_    0.298568 0.947382 0.881592 0.192487
H18   H     H_    0.701649 0.052552 0.118253 0.181480
H19   H     H_    0.613789 0.846630 0.951629 0.127336
H20   H     H_    0.386250 0.153294 0.048294 0.121275
C37   C     C_3   0.511504 0.060992 0.937151 -0.029670
C38   C     C_3   0.488521 0.938936 0.062772 -0.027262
C39   C     C_3   0.683995 0.007109 0.974436 -0.138606
C40   C     C_3   0.316030 0.992815 0.025477 -0.138201
H21   H     H_    0.835888 0.013172 0.953059 0.127769
H22   H     H_    0.164132 0.986756 0.046846 0.126039
S1    S     S_3+6 0.678813 0.085887 0.337855 -0.041564
O21   O     O_2   0.843216 0.025996 0.308011 -0.342704
O22   O     O_2   0.526857 0.091078 0.270229 -0.362395
O23   O     O_3   0.759605 0.193984 0.359951 -0.529509
H23   H     H_    0.815208 0.217136 0.306131 0.354923
S2    S     S_3+6 0.321871 0.913649 0.662396 -0.016998
O24   O     O_2   0.245578 0.817639 0.642981 -0.347585
O25   O     O_2   0.475865 0.906352 0.728950 -0.335196
O26   O     O_3   0.142000 0.981465 0.698549 -0.488552
H24   H     H_    0.048897 0.985224 0.651103 0.325486

loop_
_geom_bond_atom_site_label_1
_geom_bond_atom_site_label_2
_ccdc_geom_bond_type
C18   C21   S    
S1    O21   D    
C27   H13   S    
O13   V3    S    
C12   C14   S    
O26   H24   S    
C7    C14   S    
C6    C22   S    
O4    C2    A    
V1    O19   S    
C17   C19   S    
C18   H10   S    
O9    V1    S    
C9    H3    S    
C34   C36   S    
C26   C29   S    
C10   H4    S    
C9    C14   S    
C28   C30   S    
C11   H1    S    
C40   H22   S    
O3    C1    A    
C35   C40   S    
C23   H11   S    
C24   H12   S    
C8    C13   S    
C26   C32   S    
C25   C27   S    
C31   H15   S    
O7    C3    A    
C26   C28   S    
C25   S1    S    
C9    C11   S    
C1    C30   S    
O5    C7    A    
O7    V1    S    
O6    C8    A    
O8    V2    S    
C19   H7    S    
C26   S2    S    
C20   H8    S    
O3    V1    S    
O14   V4    S    
C10   C12   S    
C17   H9    S    
C18   C20   S    
C2    O12   A    
C34   H20   S    
C13   C15   S    
C10   C13   S    
C14   C16   S    
C11   C13   S    
C36   C39   S    
O1    V3    S    
C37   C39   S    
C16   H6    S    
O11   V3    S    
O17   V3    S    
C27   C29   S    
C36   H18   S    
C9    C15   S    
C10   C16   S    
O8    C4    A    
C36   C38   S    
C35   C37   S    
C1    O11   A    
C19   C21   S    
O15   V3    S    
C3    C38   S    
S2    O26   S    
C20   C22   S    
C19   C24   S    
C29   C31   S    
C28   H14   S    
C17   C23   S    
C35   H17   S    
C27   C32   S    
O10   V2    S    
S2    O25   D    
C33   H19   S    
C28   C31   S    
C18   C24   S    
C11   C16   S    
C15   H5    S    
C39   H21   S    
O18   V4    S    
C38   C40   S    
C21   C23   S    
O16   C6    A    
O1    C3    A    
C33   C35   S    
C34   C37   S    
C12   H2    S    
C33   C38   S    
V2    O20   S    
C25   C31   S    
O16   V4    S    
C20   C23   S    
C34   C40   S    
C5    C21   S    
O5    V1    S    
O17   C7    A    
O6    V2    S    
O10   C6    A    
O18   C8    A    
O2    V4    S    
O15   C5    A    
V3    O19   S    
V4    O20   S    
C25   C30   S    
O23   H23   S    
O9    C5    A    
S2    O24   D    
O13   V1    S    
C22   C24   S    
O14   V2    S    
O2    C4    A    
O4    V2    S    
C2    C29   S    
C30   C32   S    
S1    O23   S    
S1    O22   D    
C12   C15   S    
C32   H16   S    
C4    C37   S    
O12   V4    S    
C33   C39   S    
C17   C22   S    
