data_mof_unit_16330.cif
_audit_creation_date              2012-10-26T18:43:48-0400
_audit_creation_method            fapswitch 2.2
_symmetry_space_group_name_H-M    P1
_symmetry_Int_Tables_number       1
_space_group_crystal_system       triclinic
_cell_length_a                    9.534779
_cell_length_b                    10.821869
_cell_length_c                    17.336618
_cell_angle_alpha                 90.225295
_cell_angle_beta                  85.779558
_cell_angle_gamma                 89.920594
_cell_volume                      1783.99663295

loop_
_atom_site_label
_atom_site_type_symbol
_atom_type_description
_atom_site_fract_x
_atom_site_fract_y
_atom_site_fract_z
_atom_type_partial_charge
C1    C     C_R   0.500063 0.737630 0.498597 0.539193
C2    C     C_R   0.528797 0.518641 0.266064 0.014464
C3    C     C_R   0.374379 0.936189 0.493507 0.014834
C4    C     C_R   0.481438 0.499799 0.649894 0.552318
C5    C     C_R   0.500675 0.870532 0.491066 -0.030773
C6    C     C_R   0.628002 0.935049 0.478081 -0.158019
C7    C     C_R   0.628039 0.063812 0.478294 -0.159574
C8    C     C_R   0.500857 0.128994 0.491378 0.023613
C9    C     C_R   0.374488 0.063418 0.494136 -0.012725
C10   C     C_3   0.248426 0.070324 0.550781 0.173401
C11   C     C_3   0.248928 0.929806 0.550337 0.269911
C12   C     C_R   0.344204 0.529167 0.776243 -0.143190
C13   C     C_R   0.935141 0.464255 0.435608 0.165608
C14   C     C_R   0.917483 0.547904 0.560400 0.000473
C15   C     C_R   0.066343 0.547821 0.560428 0.005914
C16   C     C_R   0.500211 0.262246 0.498694 0.577200
C17   C     C_R   0.082506 0.464849 0.435497 0.184489
C18   C     C_3   0.095418 0.343129 0.395318 -0.270737
C19   C     C_3   0.936038 0.341295 0.396411 -0.282603
C20   C     C_R   0.518425 0.504283 0.350167 0.546422
C21   C     C_R   0.471313 0.499470 0.734290 0.012483
C22   C     C_R   0.589881 0.469186 0.773562 -0.130946
C23   C     C_R   0.426434 0.577161 0.147676 -0.090548
C24   C     C_R   0.582507 0.470775 0.853720 -0.107832
C25   C     C_R   0.456789 0.504707 0.895804 0.044418
C26   C     C_R   0.337001 0.531208 0.856712 -0.119178
C27   C     C_3   0.169420 0.184944 0.658115 -0.012394
C28   C     C_3   0.203146 0.222386 0.739283 -0.357885
C29   C     C_3   0.304318 0.733980 0.286011 -0.015650
C30   C     C_3   0.174883 0.774423 0.336325 -0.320625
C31   C     C_R   0.416041 0.569276 0.228033 0.251236
C32   C     C_R   0.653830 0.485728 0.223134 -0.176236
C33   C     C_R   0.664152 0.496241 0.143037 -0.134616
C34   C     C_R   0.549219 0.538362 0.104911 -0.004621
C35   C     C_2   0.447226 0.511490 0.980499 -0.134600
C36   C     C_2   0.558787 0.538305 0.020268 -0.135130
Cu1   Cu    Cu3+1 0.359330 0.500020 0.500000 0.967071
Cu2   Cu    Cu3+1 0.640670 0.499980 0.500000 0.940549
F1    F     F_    0.133280 0.881387 0.517118 -0.680594
H1    H     H_    0.688297 0.443425 0.742388 0.119438
H2    H     H_    0.138895 0.270060 0.431445 0.132512
H3    H     H_    0.896865 0.346271 0.337754 0.122587
H4    H     H_    0.887691 0.267945 0.434115 0.139577
H5    H     H_    0.742708 0.449578 0.251292 0.128002
H6    H     H_    0.661325 0.554719 0.990692 0.117770
H7    H     H_    0.238696 0.555715 0.888454 0.099447
H8    H     H_    0.338581 0.614720 0.119181 0.114438
H9    H     H_    0.251089 0.551919 0.746965 0.113593
H10   H     H_    0.345068 0.494960 0.010623 0.115597
H11   H     H_    0.674952 0.444053 0.882262 0.098813
H12   H     H_    0.760246 0.467567 0.110589 0.114295
H13   H     H_    0.072276 0.127424 0.662638 0.131515
H14   H     H_    0.150541 0.270213 0.624591 0.150703
H15   H     H_    0.303585 0.274294 0.736920 0.179321
H16   H     H_    0.117721 0.281799 0.766085 0.086763
H17   H     H_    0.213414 0.138833 0.775439 0.153642
H18   H     H_    0.310323 0.789887 0.232058 0.116763
H19   H     H_    0.398643 0.752972 0.318574 0.132342
H20   H     H_    0.167679 0.721670 0.391251 0.224229
H21   H     H_    0.182111 0.874484 0.349909 0.131094
H22   H     H_    0.078530 0.757748 0.305534 0.143170
H23   H     H_    0.727753 0.886725 0.471439 0.165251
H24   H     H_    0.727742 0.111449 0.471978 0.131343
H25   H     H_    0.156202 0.112439 0.524598 0.113341
H26   H     H_    0.270741 0.885926 0.606143 0.141256
H27   H     H_    0.855466 0.585224 0.609793 0.122936
H28   H     H_    0.115183 0.584959 0.609826 0.122344
H29   H     H_    0.147790 0.351390 0.336128 0.154725
N1    N     N_R   0.852130 0.499070 0.499500 -0.237675
N2    N     N_R   0.148040 0.499110 0.499500 -0.245565
O1    O     O_R   0.381190 0.680360 0.500000 -0.480941
O2    O     O_3   0.293003 0.606979 0.268567 -0.555615
O3    O     O_R   0.618770 0.680320 0.499990 -0.501233
O4    O     O_R   0.367430 0.500040 0.613600 -0.519126
O5    O     O_R   0.605020 0.500000 0.613590 -0.514031
O6    O     O_R   0.381230 0.319680 0.500010 -0.500812
O7    O     O_R   0.618810 0.319640 0.500000 -0.512947
O8    O     O_R   0.394980 0.500000 0.386410 -0.460117
O9    O     O_R   0.632570 0.499960 0.386400 -0.518583
O10   O     O_3   0.284234 0.118521 0.622699 -0.575284

loop_
_geom_bond_atom_site_label_1
_geom_bond_atom_site_label_2
_ccdc_geom_bond_type
Cu1   O4    S    
C35   C36   D    
C12   H9    S    
C28   H17   S    
C7    C8    A    
C29   C30   S    
C1    C5    S    
C18   C19   S    
C5    C6    A    
Cu2   O9    S    
C18   H29   S    
C2    C32   A    
C16   O7    A    
C4    O5    A    
C8    C9    A    
C30   H21   S    
C35   H10   S    
C9    C10   S    
C4    O4    A    
C19   H3    S    
C29   O2    S    
Cu2   N1    S    
C15   H28   S    
C17   N2    A    
C8    C16   S    
Cu1   N2    S    
C28   H16   S    
C19   H4    S    
C33   C34   A    
Cu2   O5    S    
C24   H11   S    
C23   H8    S    
C13   C19   S    
C2    C20   S    
C24   C25   A    
C27   O10   S    
C18   H2    S    
C28   H15   S    
C25   C26   A    
C12   C21   A    
C12   C26   A    
C2    C31   A    
C23   C31   A    
Cu1   Cu2   S    
C3    C9    A    
C23   C34   A    
C22   H1    S    
C30   H20   S    
C17   C18   S    
C14   H27   S    
C36   H6    S    
C1    O1    A    
C11   F1    S    
C7    H24   S    
C25   C35   S    
C31   O2    S    
Cu1   O6    S    
C29   H18   S    
Cu1   O1    S    
C14   N1    A    
C22   C24   A    
C27   H13   S    
C15   N2    A    
C10   O10   S    
C20   O9    A    
C16   O6    A    
C10   H25   S    
C3    C5    A    
C27   H14   S    
C6    C7    A    
Cu2   O7    S    
C20   O8    A    
C33   H12   S    
Cu1   O8    S    
C13   C17   A    
C1    O3    A    
C32   C33   A    
C6    H23   S    
C4    C21   S    
C13   N1    A    
C34   C36   S    
C3    C11   S    
C10   C11   S    
C26   H7    S    
C29   H19   S    
C32   H5    S    
C30   H22   S    
C27   C28   S    
C14   C15   A    
C21   C22   A    
C11   H26   S    
Cu2   O3    S    
