data_mof_unit_12573.cif
_audit_creation_date              2013-03-05T16:30:58-0500
_audit_creation_method            fapswitch 2.2
_symmetry_space_group_name_H-M    P1
_symmetry_Int_Tables_number       1
_space_group_crystal_system       triclinic
_cell_length_a                    12.988593
_cell_length_b                    10.848152
_cell_length_c                    9.556979
_cell_angle_alpha                 90.714062
_cell_angle_beta                  96.437429
_cell_angle_gamma                 90.540704
_cell_volume                      1337.92574592

loop_
_atom_site_label
_atom_site_type_symbol
_atom_site_description
_atom_site_fract_x
_atom_site_fract_y
_atom_site_fract_z
_atom_type_partial_charge
O1    O     O_R   0.500000 0.319640 0.618810 -0.583933
O2    O     O_R   0.500010 0.319680 0.381230 -0.578186
C1    C     C_R   0.497195 0.262491 0.498691 0.789428
O3    O     O_R   0.348990 0.499960 0.599490 -0.598083
O4    O     O_R   0.349000 0.500000 0.361910 -0.530434
C2    C     C_R   0.300519 0.499113 0.473425 0.805392
Cu1   Cu    Cu3+1 0.499990 0.499980 0.640670 0.961856
Cu2   Cu    Cu3+1 0.500010 0.500020 0.359330 0.981063
O5    O     O_R   0.499990 0.680320 0.618770 -0.575736
O6    O     O_R   0.500000 0.680360 0.381190 -0.589430
O7    O     O_R   0.651000 0.500000 0.638090 -0.559014
O8    O     O_R   0.651010 0.500040 0.400510 -0.587071
C3    C     C_R   0.498235 0.737887 0.500186 0.810874
C4    C     C_R   0.699468 0.498173 0.526347 0.828234
C5    C     C_R   0.812277 0.492410 0.540756 -0.062770
C6    C     C_R   0.187625 0.498555 0.457774 -0.053067
C7    C     C_R   0.023935 0.527024 0.314875 -0.202390
C8    C     C_R   0.131503 0.522589 0.327014 -0.180658
C9    C     C_R   0.135459 0.475898 0.575692 -0.252632
C10   C     C_R   0.027953 0.479660 0.564307 0.159507
C11   C     C_R   0.971863 0.506680 0.433192 0.166573
C12   C     C_R   0.864535 0.513237 0.422522 -0.248706
C13   C     C_R   0.868069 0.462521 0.669781 -0.101930
C14   C     C_R   0.975647 0.457064 0.681922 -0.188179
H1    H     H_    0.821937 0.534662 0.321883 0.168333
H2    H     H_    0.828463 0.441646 0.760430 0.196361
H3    H     H_    0.981625 0.547114 0.213588 0.181346
H4    H     H_    0.017762 0.434689 0.782647 0.147382
H5    H     H_    0.170684 0.539900 0.234834 0.189972
H6    H     H_    0.178337 0.455752 0.676659 0.145671
C15   C     C_R   0.471211 0.065990 0.616945 0.126655
C16   C     C_R   0.485490 0.129643 0.494730 -0.091827
C17   C     C_R   0.485494 0.062838 0.367870 -0.226047
H7    H     H_    0.490965 0.109135 0.269203 0.154870
C18   C     C_R   0.486135 0.934295 0.369179 -0.204543
H8    H     H_    0.490746 0.885267 0.270847 0.158133
C19   C     C_R   0.487833 0.871278 0.497468 -0.088941
C20   C     C_R   0.472779 0.938988 0.618711 0.123807
C21   C     C_3   0.531070 0.939184 0.762597 -0.477490
C22   C     C_3   0.527929 0.078614 0.760843 -0.449722
H9    H     H_    0.484377 0.899433 0.841974 0.188584
H10   H     H_    0.610992 0.903561 0.762331 0.233693
H11   H     H_    0.478663 0.118444 0.837484 0.188563
H12   H     H_    0.605684 0.122564 0.761217 0.209587
C23   C     C_R   0.584729 0.540433 0.087389 0.135964
N1    N     N_R   0.500660 0.500930 0.148010 -0.223828
C24   C     C_R   0.421937 0.443702 0.061717 0.529801
C25   C     C_R   0.421150 0.447342 0.912129 -0.177928
H13   H     H_    0.356148 0.408723 0.844954 0.161463
N2    N     N_R   0.500660 0.500890 0.852110 -0.234689
C26   C     C_R   0.586113 0.537402 0.940186 0.180422
C27   C     C_3   0.636849 0.661580 0.944935 0.142310
C28   C     C_3   0.632846 0.665546 0.103295 -0.515914
H14   H     H_    0.587825 0.730318 0.886663 0.106858
H15   H     H_    0.709541 0.665510 0.167578 0.224803
H16   H     H_    0.578495 0.735899 0.136015 0.173105
O9    O     O_3   0.338296 0.394490 0.120455 -0.561595
C29   C     C_3   0.320313 0.269198 0.080926 0.052736
H17   H     H_    0.324920 0.214206 0.178601 0.176149
H18   H     H_    0.377551 0.228948 0.014898 0.098066
C30   C     C_3   0.211380 0.253635 0.004892 -0.819311
H19   H     H_    0.203469 0.306351 0.905535 0.226633
H20   H     H_    0.195454 0.154625 0.979421 0.217362
H21   H     H_    0.153520 0.287496 0.073178 0.260618
N3    N     N_R   0.742534 0.657300 0.905927 0.149094
O10   O     O_R   0.769090 0.728402 0.807150 -0.373209
O11   O     O_R   0.811471 0.585771 0.971485 -0.414005

loop_
_geom_bond_atom_site_label_1
_geom_bond_atom_site_label_2
_geom_bond_distance
_ccdc_geom_bond_type
O4    Cu2   1.964322 S    
C13   C14   1.390953 A    
O6    C3    1.292959 A    
Cu1   O5    1.970111 S    
C19   C20   1.397381 A    
C30   H21   1.111223 S    
C1    C16   1.447302 S    
C3    C19   1.454894 S    
C9    C10   1.389401 A    
C4    C5    1.458232 S    
C15   C20   1.378372 A    
C6    C8    1.403018 A    
Cu2   O8    1.956631 S    
C16   C17   1.404715 A    
C10   C14   1.400025 A    
C29   C30   1.523262 S    
C5    C13   1.401713 A    
C17   H7    1.082863 S    
C23   C28   1.487741 S    
Cu1   Cu2   2.688795 S    
C21   H9    1.111585 S    
C8    H5    1.083134 S    
C15   C16   1.393454 A    
C23   N1    1.360453 A    
C10   C11   1.412566 A    
Cu1   O7    1.964324 S    
O9    C29   1.416358 S    
O4    C2    1.297330 A    
O3    Cu1   1.956631 S    
C25   N2    1.364843 A    
C25   H13   1.079608 S    
C18   C19   1.409304 A    
C27   H14   1.100656 S    
C7    C8    1.390280 A    
C21   H10   1.111343 S    
O2    C1    1.293264 A    
C28   H15   1.110190 S    
C6    C9    1.401593 A    
C30   H19   1.109961 S    
C17   C18   1.394761 A    
O7    C4    1.299089 A    
Cu2   N1    2.020691 S    
C13   H2    1.081240 S    
O3    C2    1.295184 A    
C24   O9    1.383342 S    
C23   C26   1.408933 A    
C2    C6    1.457113 S    
C26   C27   1.491980 S    
C7    H3    1.083864 S    
C14   H4    1.084001 S    
C22   H12   1.112366 S    
C20   C21   1.493518 S    
C27   C28   1.520239 S    
Cu2   O6    1.964890 S    
N3    O10   1.300464 A    
C5    C12   1.401437 A    
C28   H16   1.110112 S    
C21   C22   1.513751 S    
C30   H20   1.110708 S    
O5    C3    1.298847 A    
N1    C24   1.377397 A    
O1    Cu1   1.964892 S    
N3    O11   1.302246 A    
C15   C22   1.489611 S    
N2    C26   1.367928 A    
C29   H17   1.110357 S    
C11   C12   1.388872 A    
C9    H6    1.084480 S    
C29   H18   1.116250 S    
C12   H1    1.083461 S    
C22   H11   1.111340 S    
O2    Cu2   1.970111 S    
C27   N3    1.463197 S    
C24   C25   1.429536 A    
Cu1   N2    2.019672 S    
O8    C4    1.293823 A    
O1    C1    1.294601 A    
C18   H8    1.081834 S    
C7    C11   1.399876 A    
