data_mof_unit_50441.cif
_audit_creation_date              2012-12-10T19:32:15-0500
_audit_creation_method            fapswitch 2.2
_symmetry_space_group_name_H-M    P1
_symmetry_Int_Tables_number       1
_space_group_crystal_system       triclinic
_cell_length_a                    23.468718
_cell_length_b                    15.731117
_cell_length_c                    14.93203
_cell_angle_alpha                 90.088915
_cell_angle_beta                  89.970959
_cell_angle_gamma                 89.991436
_cell_volume                      5512.73603559

loop_
_atom_site_label
_atom_site_type_symbol
_atom_type_description
_atom_site_fract_x
_atom_site_fract_y
_atom_site_fract_z
_atom_type_partial_charge
C1    C     C_R   0.500008 0.337585 0.499924 0.895917
C2    C     C_R   0.499972 0.662417 0.500072 0.895465
C3    C     C_R   0.237982 0.505149 0.582094 0.441836
C4    C     C_R   0.761911 0.501407 0.582541 0.435934
C5    C     C_R   0.297244 0.505642 0.581081 -0.246636
C6    C     C_R   0.702652 0.501457 0.581429 -0.241365
C7    C     C_R   0.326949 0.499615 0.500066 -0.184603
C8    C     C_R   0.673068 0.499892 0.500103 -0.181773
C9    C     C_R   0.297230 0.493228 0.419127 -0.249149
C10   C     C_R   0.702924 0.497915 0.418999 -0.256003
C11   C     C_R   0.237959 0.492976 0.418317 0.351140
C12   C     C_R   0.762199 0.497216 0.418350 0.350436
C13   C     C_R   0.208252 0.498814 0.500254 0.026775
C14   C     C_R   0.791767 0.499245 0.500551 0.035251
C15   C     C_3   0.498430 0.972909 0.585423 0.265227
C16   C     C_3   0.501148 0.027110 0.414395 0.264984
C17   C     C_3   0.546197 0.027437 0.544381 0.268482
C18   C     C_3   0.453381 0.972570 0.455436 0.267914
C19   C     C_1   0.499957 0.248935 0.499776 -0.129112
C20   C     C_1   0.499868 0.751071 0.500192 -0.129932
C21   C     C_3   0.452066 0.027557 0.540790 0.263259
C22   C     C_3   0.547512 0.972462 0.459028 0.263046
C23   C     C_R   0.389068 0.499917 0.500030 0.933429
C24   C     C_R   0.610938 0.500035 0.499982 0.933466
C25   C     C_3   0.499835 0.083232 0.499755 -0.161962
C26   C     C_3   0.499747 0.916779 0.500070 -0.161679
C27   C     C_1   0.499901 0.173828 0.499713 0.176447
C28   C     C_1   0.499785 0.826180 0.500185 0.176099
C29   C     C_3   0.485713 0.422940 0.969628 0.304535
C30   C     C_3   0.514172 0.576995 0.030349 0.264705
C31   C     C_3   0.537807 0.442538 0.029606 0.283529
C32   C     C_3   0.462077 0.557325 0.970390 0.307612
C33   C     C_3   0.447428 0.479677 0.029615 0.226234
C34   C     C_3   0.552498 0.520210 0.970440 0.116464
C35   C     C_3   0.499638 0.499503 0.090030 -0.347058
C36   C     C_3   0.500287 0.500401 0.909987 -0.320428
C37   C     C_1   0.499882 0.499844 0.189929 0.387304
C38   C     C_1   0.500092 0.500112 0.810075 0.394428
C39   C     C_R   0.880466 0.574482 0.496455 0.710216
C40   C     C_R   0.119711 0.422949 0.503913 0.707460
C41   C     C_R   0.880180 0.423159 0.505984 0.697319
C42   C     C_R   0.119628 0.574391 0.497456 0.715985
C43   C     C_R   0.940051 0.420089 0.502029 -0.166052
C44   C     C_R   0.059864 0.576542 0.492635 -0.187470
C45   C     C_R   0.970030 0.498518 0.502202 -0.072826
C46   C     C_R   0.029973 0.498566 0.501922 -0.089464
C47   C     C_R   0.940157 0.576999 0.502337 -0.172924
C48   C     C_R   0.059964 0.420679 0.510564 -0.156149
C49   C     C_R   0.970742 0.342111 0.501785 0.231121
C50   C     C_R   0.029205 0.653818 0.483186 0.358153
C51   C     C_R   0.029401 0.343435 0.521400 0.359512
C52   C     C_R   0.970809 0.654768 0.503869 0.332047
H1    H     H_    0.320329 0.511026 0.643581 0.227653
H2    H     H_    0.679487 0.502675 0.644134 0.232018
H3    H     H_    0.320297 0.488207 0.356531 0.233234
H4    H     H_    0.679965 0.496725 0.356147 0.223392
N1    N     N_R   0.852516 0.498943 0.500832 -0.340148
N2    N     N_R   0.147506 0.498697 0.500385 -0.345579
N3    N     N_1   0.500020 0.500000 0.268010 -0.085939
N4    N     N_1   0.499980 0.500000 0.731990 -0.085660
O1    O     O_R   0.500000 0.376780 0.574460 -0.605723
O2    O     O_R   0.500000 0.623220 0.425540 -0.607747
O3    O     O_R   0.500010 0.376780 0.425520 -0.594973
O4    O     O_R   0.499990 0.623220 0.574480 -0.594660
O5    O     O_R   0.416150 0.499970 0.574490 -0.613909
O6    O     O_R   0.583850 0.500030 0.425510 -0.617034
O7    O     O_R   0.416160 0.499980 0.425550 -0.609581
O8    O     O_R   0.583840 0.500020 0.574450 -0.610486
O9    O     O_2   0.849978 0.646014 0.483511 -0.462109
O10   O     O_2   0.150394 0.350750 0.498106 -0.459910
O11   O     O_2   0.849122 0.352018 0.517510 -0.459081
O12   O     O_2   0.150281 0.646688 0.502102 -0.425179
Zn1   Zn    Zn3+2 0.499990 0.500000 0.599450 1.060410
Zn2   Zn    Zn3+2 0.500010 0.500000 0.400550 1.055248
S1    S     S_3+6 0.939759 0.245818 0.459708 0.188688
O13   O     O_2   0.900363 0.266315 0.383407 -0.163788
O14   O     O_2   0.985079 0.186880 0.425055 -0.165310
O15   O     O_3   0.902478 0.195178 0.539973 -0.419544
H5    H     H_    0.905551 0.231150 0.594230 0.384618
S2    S     S_3+6 0.059786 0.744402 0.429041 0.161813
O16   O     O_2   0.099418 0.715580 0.355922 -0.206033
O17   O     O_2   0.014302 0.798899 0.387691 -0.199371
O18   O     O_3   0.096549 0.802649 0.503860 -0.436556
H6    H     H_    0.113266 0.849802 0.468685 0.390666
S3    S     S_3+6 0.587753 0.366073 0.070526 0.084207
O19   O     O_2   0.638147 0.411115 0.110492 -0.209538
O20   O     O_2   0.560131 0.312011 0.141153 -0.331185
O21   O     O_3   0.609450 0.304278 0.985151 -0.481695
H7    H     H_    0.634833 0.261453 0.012865 0.387680
S4    S     S_3+6 0.411683 0.632953 0.929135 0.092591
O22   O     O_2   0.438714 0.686439 0.857463 -0.337635
O23   O     O_2   0.361317 0.586862 0.890391 -0.181683
O24   O     O_3   0.390107 0.695512 0.013964 -0.486500
H8    H     H_    0.364109 0.737415 0.986096 0.385388
O25   O     O_3   0.474051 0.343560 0.929171 -0.566257
C53   C     C_3   0.451012 0.285776 0.991571 0.246741
H9    H     H_    0.403818 0.289475 0.989195 0.202171
H10   H     H_    0.465256 0.297428 0.061550 0.182091
C54   C     C_3   0.468591 0.195953 0.965641 -0.803626
H11   H     H_    0.515653 0.189502 0.969121 0.285067
H12   H     H_    0.448945 0.149572 0.012342 0.206516
H13   H     H_    0.454189 0.181395 0.896438 0.255789
O26   O     O_3   0.525977 0.656384 0.070695 -0.581328
C55   C     C_3   0.547744 0.714723 0.007703 0.216364
H14   H     H_    0.532996 0.702733 0.938056 0.191670
H15   H     H_    0.594985 0.712214 0.008828 0.181955
C56   C     C_3   0.529510 0.804125 0.034123 -0.783190
H16   H     H_    0.544396 0.818938 0.103012 0.251252
H17   H     H_    0.548276 0.850971 0.987055 0.206176
H18   H     H_    0.482368 0.809562 0.031709 0.284863
S5    S     S_3+6 0.622092 0.542777 0.927341 0.124030
O27   O     O_2   0.644805 0.464561 0.881844 -0.145075
O28   O     O_2   0.618522 0.613573 0.860167 -0.304719
O29   O     O_3   0.666789 0.570929 0.010342 -0.422610
H19   H     H_    0.642361 0.581143 0.063354 0.351143
S6    S     S_3+6 0.377971 0.457124 0.072727 0.086832
O30   O     O_2   0.381675 0.387598 0.141378 -0.342886
O31   O     O_2   0.354221 0.535846 0.115943 -0.174292
O32   O     O_3   0.335085 0.426495 0.988529 -0.486136
H20   H     H_    0.297501 0.416755 0.016920 0.412088
S7    S     S_3+6 0.060897 0.253145 0.574882 0.133918
O33   O     O_2   0.092055 0.200253 0.506666 -0.190690
O34   O     O_2   0.102167 0.282119 0.645569 -0.204229
O35   O     O_3   0.011152 0.192779 0.624886 -0.519466
H21   H     H_    0.031956 0.142118 0.646761 0.403468
S8    S     S_3+6 0.940354 0.750010 0.548626 0.153636
O36   O     O_2   0.909061 0.796981 0.476116 -0.183956
O37   O     O_2   0.899482 0.728527 0.622752 -0.203431
O38   O     O_3   0.991285 0.813401 0.591192 -0.468603
H22   H     H_    0.971272 0.866432 0.608327 0.399315
S9    S     S_3+6 0.202012 0.513647 0.686156 0.084898
O39   O     O_2   0.159879 0.442316 0.695281 -0.249856
O40   O     O_2   0.243644 0.509620 0.762533 -0.218029
O41   O     O_3   0.167104 0.606876 0.690497 -0.498768
H23   H     H_    0.142822 0.603195 0.744625 0.402957
S10   S     S_3+6 0.797736 0.502824 0.687027 0.093752
O42   O     O_2   0.840285 0.574131 0.688583 -0.246390
O43   O     O_2   0.756071 0.514945 0.762486 -0.186644
O44   O     O_3   0.832082 0.410055 0.701317 -0.518985
H24   H     H_    0.856389 0.418766 0.754754 0.401921
S11   S     S_3+6 0.201972 0.484577 0.314289 0.102991
O45   O     O_2   0.159796 0.555841 0.305356 -0.188161
O46   O     O_2   0.243349 0.489066 0.237535 -0.218602
O47   O     O_3   0.166687 0.391753 0.309116 -0.478064
H25   H     H_    0.196515 0.347590 0.315262 0.374851
S12   S     S_3+6 0.798403 0.494125 0.314141 0.106639
O48   O     O_2   0.839426 0.420863 0.313048 -0.183420
O49   O     O_2   0.757041 0.483543 0.238069 -0.218579
O50   O     O_3   0.835189 0.584670 0.299333 -0.474771
H26   H     H_    0.806080 0.630260 0.300626 0.375689
O51   O     O_3   0.593401 0.063947 0.588687 -0.608061
C57   C     C_3   0.626924 0.999542 0.628294 0.085962
H27   H     H_    0.636247 0.946566 0.581055 0.183748
H28   H     H_    0.605366 0.972924 0.688067 0.186822
C58   C     C_3   0.683299 0.037610 0.658455 -0.714988
H29   H     H_    0.675551 0.089223 0.707829 0.270623
H30   H     H_    0.709943 0.987738 0.690248 0.230604
H31   H     H_    0.706591 0.064010 0.600018 0.266691
O52   O     O_3   0.406180 0.936053 0.411129 -0.607171
C59   C     C_3   0.372649 0.000454 0.371530 0.088069
H32   H     H_    0.394195 0.027063 0.311742 0.185692
H33   H     H_    0.363336 0.053437 0.418764 0.181446
C60   C     C_3   0.316267 0.962382 0.341405 -0.730634
H34   H     H_    0.292984 0.935994 0.399858 0.262124
H35   H     H_    0.289618 0.012250 0.309614 0.226455
H36   H     H_    0.324003 0.910760 0.292038 0.273639
O53   O     O_3   0.497525 0.936656 0.671926 -0.599121
C61   C     C_3   0.492533 0.001203 0.737438 0.127398
H37   H     H_    0.448895 0.028155 0.737946 0.179534
H38   H     H_    0.523337 0.053942 0.726560 0.177678
C62   C     C_3   0.503917 0.963191 0.829319 -0.822217
H39   H     H_    0.547741 0.936676 0.831878 0.257588
H40   H     H_    0.499664 0.013083 0.881600 0.212080
H41   H     H_    0.472845 0.911636 0.843375 0.283185
O54   O     O_3   0.502047 0.063415 0.327916 -0.599260
C63   C     C_3   0.507033 0.998918 0.262351 0.126530
H42   H     H_    0.476236 0.946165 0.273201 0.177285
H43   H     H_    0.550674 0.971977 0.261809 0.179068
C64   C     C_3   0.495630 0.037002 0.170503 -0.821496
H44   H     H_    0.526698 0.088568 0.156471 0.284279
H45   H     H_    0.499871 0.987151 0.118178 0.211505
H46   H     H_    0.451806 0.063522 0.167982 0.256028
O55   O     O_3   0.595543 0.935818 0.417008 -0.614749
C65   C     C_3   0.634121 0.000153 0.390884 0.098912
H47   H     H_    0.656398 0.026970 0.449954 0.192255
H48   H     H_    0.612724 0.053008 0.354641 0.184544
C66   C     C_3   0.678801 0.961889 0.329029 -0.732223
H49   H     H_    0.658113 0.935279 0.268269 0.246481
H50   H     H_    0.709641 0.011703 0.308432 0.239296
H51   H     H_    0.702172 0.910400 0.364174 0.275884
O56   O     O_3   0.404034 0.064211 0.582796 -0.612505
C67   C     C_3   0.365452 0.999882 0.608928 0.096052
H52   H     H_    0.386844 0.947055 0.645225 0.184233
H53   H     H_    0.343199 0.973022 0.549858 0.189737
C68   C     C_3   0.320746 0.038172 0.670718 -0.735902
H54   H     H_    0.297380 0.089631 0.635516 0.278185
H55   H     H_    0.289905 0.988363 0.691323 0.232469
H56   H     H_    0.341409 0.064826 0.731478 0.250028

loop_
_geom_bond_atom_site_label_1
_geom_bond_atom_site_label_2
_ccdc_geom_bond_type
C62   H39   S    
O24   H8    S    
C31   S3    S    
C58   H30   S    
C18   C21   S    
C56   H17   S    
S5    O27   D    
C18   C26   S    
O55   C65   S    
S9    O41   S    
C42   N2    A    
C55   H15   S    
O29   H19   S    
C45   C46   A    
S6    O30   D    
C62   H40   S    
C29   C36   S    
S8    O36   D    
C40   O10   S    
C30   C35   S    
C3    S9    S    
C32   C36   S    
C5    H1    S    
C60   H35   S    
O38   H22   S    
C50   S2    S    
S10   O44   S    
O52   C59   S    
S2    O16   D    
C21   O56   S    
C23   O7    A    
O6    Zn2   S    
C53   C54   S    
C29   C33   S    
N4    Zn1   S    
O5    Zn1   S    
C65   H47   S    
C7    C9    A    
C45   C47   A    
C12   S12   S    
C66   H51   S    
C18   O52   S    
C33   C35   S    
C48   C51   A    
C32   S4    S    
O18   H6    S    
C44   C46   A    
C49   C51   A    
C53   H10   S    
C30   O26   S    
C50   C52   A    
O51   C57   S    
C49   S1    S    
C9    H3    S    
C19   C27   T    
C3    C13   A    
C24   O6    A    
C41   O11   S    
C68   H56   S    
C61   H38   S    
C58   H31   S    
C34   S5    S    
C41   C43   A    
C15   O53   S    
C17   O51   S    
C42   C44   A    
C6    H2    S    
S2    O18   S    
C1    O3    A    
C55   H14   S    
S1    O15   S    
C2    O4    A    
C58   H29   S    
S12   O49   D    
S3    O20   D    
C62   H41   S    
C46   C48   A    
C1    C19   S    
C40   N2    A    
C30   C34   S    
C2    C20   S    
O56   C67   S    
C67   C68   S    
C60   H36   S    
C4    C6    A    
S11   O47   S    
O53   C61   S    
C5    C7    A    
C52   S8    S    
O15   H5    S    
C43   C49   A    
C15   C26   S    
C6    C8    A    
C13   N2    S    
C20   C28   T    
S8    O38   S    
O1    Zn1   S    
O8    Zn1   S    
S3    O19   D    
C64   H44   S    
C16   C22   S    
S11   O46   D    
C67   H53   S    
S1    O13   D    
C59   C60   S    
C22   O55   S    
S12   O50   S    
C43   C45   A    
S4    O23   D    
C54   H11   S    
C57   C58   S    
O4    Zn1   S    
C53   H9    S    
C42   O12   S    
S10   O43   D    
C39   O9    S    
C31   C34   S    
S5    O28   D    
O7    Zn2   S    
O21   H7    S    
O32   H20   S    
S1    O14   D    
N3    Zn2   S    
S7    O33   D    
C37   N3    T    
C10   C12   A    
C38   N4    T    
C16   O54   S    
S2    O17   D    
C61   H37   S    
C54   H12   S    
C12   C14   A    
C9    C11   A    
C51   S7    S    
C56   H18   S    
C31   C35   S    
C56   H16   S    
S9    O39   D    
C3    C5    A    
O26   C55   S    
S7    O34   D    
C10   H4    S    
S4    O24   S    
C39   C47   A    
S12   O48   D    
S3    O21   S    
C44   C50   A    
C16   C25   S    
C40   C48   A    
C14   N1    S    
C21   C25   S    
C63   H42   S    
C33   S6    S    
S8    O37   D    
C35   C37   S    
C16   C18   S    
C57   H28   S    
S10   O42   D    
S9    O40   D    
C1    O1    A    
C64   H46   S    
O44   H24   S    
C65   C66   S    
C15   C17   S    
C47   C52   A    
O3    Zn2   S    
C25   C27   S    
C11   S11   S    
O41   H23   S    
C26   C28   S    
C17   C22   S    
C65   H48   S    
S6    O32   S    
C4    S10   S    
O47   H25   S    
C17   C25   S    
C32   C33   S    
C63   C64   S    
C36   C38   S    
C41   N1    A    
C66   H49   S    
C29   C31   S    
O54   C63   S    
O50   H26   S    
C67   H52   S    
C30   C32   S    
C11   C13   A    
C23   O5    A    
S4    O22   D    
C7    C23   S    
C63   H43   S    
C8    C24   S    
S6    O31   D    
S5    O29   S    
C34   C36   S    
C4    C14   A    
C59   H32   S    
C66   H50   S    
C60   H34   S    
C24   O8    A    
C29   O25   S    
C68   H54   S    
C15   C21   S    
C54   H13   S    
C57   H27   S    
C8    C10   A    
C22   C26   S    
O25   C53   S    
S7    O35   S    
O2    Zn2   S    
C61   C62   S    
C68   H55   S    
S11   O45   D    
C55   C56   S    
C2    O2    A    
C59   H33   S    
O35   H21   S    
C64   H45   S    
C39   N1    A    
