data_mof_unit_36555.cif
_audit_creation_date              2012-12-10T17:30:25-0500
_audit_creation_method            fapswitch 2.2
_symmetry_space_group_name_H-M    P1
_symmetry_Int_Tables_number       1
_space_group_crystal_system       triclinic
_cell_length_a                    12.031991
_cell_length_b                    12.858828
_cell_length_c                    15.003772
_cell_angle_alpha                 90.778011
_cell_angle_beta                  86.477417
_cell_angle_gamma                 93.8717
_cell_volume                      2311.5658134

loop_
_atom_site_label
_atom_site_type_symbol
_atom_type_description
_atom_site_fract_x
_atom_site_fract_y
_atom_site_fract_z
_atom_type_partial_charge
C1    C     C_R   0.522381 0.700400 0.499715 0.889914
C2    C     C_R   0.363962 0.136947 0.535206 -0.209416
C3    C     C_R   0.444130 0.867561 0.526488 -0.275764
C4    C     C_R   0.556280 0.132359 0.475038 -0.274248
C5    C     C_R   0.450099 0.974131 0.518229 0.186359
C6    C     C_R   0.550551 0.025851 0.483824 0.186683
C7    C     C_R   0.950545 0.393067 0.426136 -0.319217
C8    C     C_R   0.049287 0.609581 0.573361 -0.344268
C9    C     C_R   0.835898 0.404452 0.431514 -0.041773
C10   C     C_R   0.164564 0.597537 0.566950 -0.003072
C11   C     C_R   0.858647 0.548989 0.530811 0.209454
C12   C     C_R   0.477659 0.299575 0.500618 0.882342
C13   C     C_R   0.138375 0.450430 0.471212 0.180404
C14   C     C_R   0.976392 0.541314 0.526535 0.013888
C15   C     C_R   0.022112 0.461396 0.473976 0.095679
C16   C     C_R   0.500347 0.500137 0.673303 0.898851
C17   C     C_R   0.499664 0.499914 0.326695 0.891400
C18   C     C_R   0.398111 0.500561 0.189873 -0.261487
C19   C     C_R   0.601956 0.499793 0.810112 -0.256988
C20   C     C_R   0.499411 0.500009 0.230748 -0.074070
C21   C     C_R   0.500635 0.500209 0.769247 -0.076948
C22   C     C_R   0.600915 0.499533 0.179956 -0.258849
C23   C     C_R   0.703422 0.499367 0.943913 -0.219062
C24   C     C_R   0.399143 0.500756 0.820044 -0.260065
C25   C     C_R   0.601925 0.499654 0.087776 0.117174
C26   C     C_R   0.398154 0.500762 0.912220 0.117825
C27   C     C_R   0.499902 0.500191 0.046364 0.061155
C28   C     C_R   0.500184 0.500264 0.953628 0.061760
C29   C     C_R   0.397603 0.500633 0.097674 0.120576
C30   C     C_R   0.602480 0.499812 0.902315 0.118162
C31   C     C_R   0.703145 0.499273 0.036523 -0.218608
C32   C     C_R   0.296939 0.501188 0.963471 -0.220013
C33   C     C_R   0.296665 0.501119 0.056077 -0.217326
C34   C     C_R   0.464146 0.187979 0.502163 -0.049401
C35   C     C_R   0.536168 0.811965 0.499137 -0.050510
C36   C     C_R   0.643953 0.970460 0.459337 -0.220877
C37   C     C_R   0.356868 0.029559 0.543099 -0.215657
C38   C     C_R   0.636794 0.863045 0.467094 -0.204709
H1    H     H_    0.319685 0.500754 0.229574 0.160146
H2    H     H_    0.217828 0.501440 0.095095 0.146178
H3    H     H_    0.633437 0.172008 0.448359 0.152608
H4    H     H_    0.366834 0.827841 0.552806 0.152157
H5    H     H_    0.292726 0.179943 0.557045 0.153308
H6    H     H_    0.708312 0.819997 0.445935 0.160641
H7    H     H_    0.721445 0.009909 0.433396 0.138574
H8    H     H_    0.279535 0.990153 0.569418 0.137527
H9    H     H_    0.219775 0.650937 0.602552 0.134048
H10   H     H_    0.781257 0.351683 0.394789 0.137700
H11   H     H_    0.247904 0.388514 0.379369 0.226297
H12   H     H_    0.680376 0.499608 0.770398 0.161965
H13   H     H_    0.205315 0.310376 0.468587 0.203529
H14   H     H_    0.839049 0.700121 0.563528 0.160668
H15   H     H_    0.826480 0.616864 0.651285 0.156909
H16   H     H_    0.982313 0.330875 0.384627 0.173741
H17   H     H_    0.018470 0.672382 0.614543 0.146316
H18   H     H_    0.679328 0.499271 0.211936 0.163553
H19   H     H_    0.320719 0.500954 0.788071 0.163776
H20   H     H_    0.781796 0.498887 0.068032 0.144881
H21   H     H_    0.218286 0.501561 0.931964 0.144684
H22   H     H_    0.782261 0.499054 0.904895 0.143961
N1    N     N_R   0.207800 0.519350 0.516680 -0.113902
N2    N     N_R   0.792200 0.480650 0.483320 -0.095447
N3    N     N_3   0.181259 0.363641 0.422965 -0.488844
N4    N     N_3   0.806835 0.626591 0.585135 -0.402729
O1    O     O_R   0.421700 0.658830 0.504450 -0.628907
O2    O     O_R   0.578300 0.341170 0.495550 -0.625900
O3    O     O_R   0.609310 0.646410 0.493750 -0.605650
O4    O     O_R   0.390690 0.353590 0.506250 -0.644181
O5    O     O_R   0.406180 0.506230 0.637500 -0.631002
O6    O     O_R   0.593820 0.493770 0.362500 -0.628743
O7    O     O_R   0.593800 0.493820 0.626800 -0.606741
O8    O     O_R   0.406200 0.506180 0.373200 -0.639144
Zn1   Zn    Zn3+2 0.374730 0.508290 0.507150 0.929910
Zn2   Zn    Zn3+2 0.625270 0.491710 0.492850 0.958815

loop_
_geom_bond_atom_site_label_1
_geom_bond_atom_site_label_2
_ccdc_geom_bond_type
C25   C31   A    
C3    H4    S    
C26   C32   A    
C16   C21   S    
H11   N3    S    
C5    C37   A    
C27   C29   A    
C19   H12   S    
C11   N2    A    
C12   O4    A    
C31   H20   S    
C19   C21   A    
C24   C26   A    
C5    C6    A    
H15   N4    S    
C4    H3    S    
O2    Zn2   S    
C29   C33   A    
C17   C20   S    
O1    Zn1   S    
C24   H19   S    
C22   C25   A    
O6    Zn2   S    
C1    O1    A    
O5    Zn1   S    
C2    C34   A    
C7    C15   A    
C17   O6    A    
C16   O7    A    
C8    H17   S    
C23   H22   S    
C4    C34   A    
C33   H2    S    
C9    N2    A    
C23   C30   A    
C35   C38   A    
H13   N3    S    
C4    C6    A    
C11   N4    S    
H14   N4    S    
C11   C14   A    
O3    Zn2   S    
C22   H18   S    
N1    Zn1   S    
O4    Zn1   S    
C12   O2    A    
C23   C31   A    
C18   H1    S    
C38   H6    S    
C13   N3    S    
C3    C35   A    
C2    H5    S    
C36   H7    S    
C18   C29   A    
C17   O8    A    
C20   C22   A    
C13   C15   A    
C10   N1    A    
C12   C34   S    
C10   H9    S    
C1    C35   S    
C7    C9    A    
C8    C14   A    
C16   O5    A    
O8    Zn1   S    
C3    C5    A    
O7    Zn2   S    
C25   C27   A    
C26   C28   A    
C32   H21   S    
C32   C33   A    
C36   C38   A    
C2    C37   A    
C28   C30   A    
C1    O3    A    
C6    C36   A    
C18   C20   A    
C13   N1    A    
C9    H10   S    
C8    C10   A    
C21   C24   A    
C27   C28   A    
C14   C15   A    
N2    Zn2   S    
C7    H16   S    
C37   H8    S    
C19   C30   A    
