data_mof_unit_13563.cif
_audit_creation_date              2013-03-05T16:47:54-0500
_audit_creation_method            fapswitch 2.2
_symmetry_space_group_name_H-M    P1
_symmetry_Int_Tables_number       1
_space_group_crystal_system       triclinic
_cell_length_a                    10.952839
_cell_length_b                    10.894657
_cell_length_c                    9.715296
_cell_angle_alpha                 90.829412
_cell_angle_beta                  90.506629
_cell_angle_gamma                 92.743322
_cell_volume                      1157.79855982

loop_
_atom_site_label
_atom_site_type_symbol
_atom_site_description
_atom_site_fract_x
_atom_site_fract_y
_atom_site_fract_z
_atom_type_partial_charge
O1    O     O_R   0.499990 0.319640 0.618810 -0.534701
O2    O     O_R   0.500000 0.319660 0.381240 -0.499120
C1    C     C_R   0.511962 0.263708 0.499432 0.873056
O3    O     O_R   0.319640 0.500000 0.618780 -0.543037
O4    O     O_R   0.319650 0.500020 0.381210 -0.574212
C2    C     C_R   0.262376 0.506360 0.498926 0.871027
Cu1   Cu    Cu3+1 0.499990 0.499990 0.640660 1.026128
Cu2   Cu    Cu3+1 0.500010 0.500010 0.359340 1.095395
O5    O     O_R   0.500000 0.680340 0.618760 -0.640433
O6    O     O_R   0.500010 0.680360 0.381190 -0.527397
O7    O     O_R   0.680350 0.499980 0.618790 -0.588106
O8    O     O_R   0.680360 0.500000 0.381220 -0.526505
C3    C     C_R   0.494943 0.737406 0.501734 0.877591
C4    C     C_R   0.736889 0.495218 0.500765 0.871726
H1    H     H_    0.253323 0.572349 0.878769 0.239270
C5    C     C_R   0.208425 0.657925 0.071321 0.234447
C6    C     C_R   0.159224 0.638312 0.201673 0.608101
C7    C     C_R   0.112433 0.521568 0.237043 -0.111869
C8    C     C_R   0.111188 0.424327 0.142351 -0.232910
H2    H     H_    0.073008 0.334964 0.171498 0.231234
C9    C     C_R   0.159568 0.441784 0.011206 0.325305
C10   C     C_R   0.209057 0.559119 0.976516 -0.361125
C11   C     C_R   0.931230 0.499920 0.375977 -0.156666
H3    H     H_    0.880284 0.500845 0.280068 0.179791
C12   C     C_R   0.870702 0.494562 0.501367 -0.140615
C13   C     C_R   0.939737 0.500694 0.624404 -0.064543
C14   C     C_R   0.063099 0.541324 0.617030 0.330760
C15   C     C_R   0.126976 0.515745 0.495640 -0.128539
C16   C     C_R   0.058003 0.504012 0.372067 0.052059
C17   C     C_R   0.866643 0.462039 0.865809 -0.155320
H4    H     H_    0.856579 0.558832 0.882542 0.199438
C18   C     C_R   0.842252 0.381292 0.973809 -0.235347
H5    H     H_    0.810251 0.416198 0.071000 0.158075
C19   C     C_R   0.862314 0.256201 0.957448 0.703951
C20   C     C_R   0.902024 0.210882 0.831085 -0.049771
H6    H     H_    0.917125 0.113954 0.818005 0.168768
C21   C     C_R   0.921769 0.290779 0.721236 -0.104566
H7    H     H_    0.953266 0.254626 0.624039 0.161538
C22   C     C_R   0.905676 0.417419 0.738336 0.140090
C23   C     C_R   0.592241 0.124409 0.746736 0.582126
C24   C     C_R   0.580323 0.067345 0.873027 -0.158236
H8    H     H_    0.619727 0.111384 0.964086 0.244721
C25   C     C_R   0.516439 0.954977 0.881799 -0.126012
H9    H     H_    0.502401 0.912693 0.980743 0.218025
C26   C     C_R   0.477612 0.892706 0.762220 -0.082712
H10   H     H_    0.426835 0.806940 0.775741 0.229431
C27   C     C_R   0.503060 0.942260 0.631188 -0.002462
C28   C     C_R   0.541919 0.067452 0.625629 -0.047737
C29   C     C_R   0.530155 0.129973 0.499461 -0.198508
C30   C     C_R   0.517912 0.060372 0.376009 0.333749
H11   H     H_    0.501743 0.882405 0.284335 0.204210
C31   C     C_R   0.503753 0.933461 0.380825 -0.156994
C32   C     C_R   0.494263 0.872594 0.506184 -0.106445
C33   C     C_R   0.655737 0.679910 0.139693 0.622223
C34   C     C_R   0.722965 0.766328 0.064254 -0.197377
H12   H     H_    0.783239 0.834160 0.116343 0.229433
C35   C     C_R   0.720789 0.762027 0.923576 -0.318733
H13   H     H_    0.778494 0.825977 0.865945 0.221950
C36   C     C_R   0.649040 0.672508 0.856114 -0.158070
H14   H     H_    0.663665 0.669925 0.748746 0.227813
C37   C     C_R   0.571200 0.587756 0.926082 0.108051
C38   C     C_R   0.573111 0.588636 0.075350 -0.043552
N1    N     N_R   0.501190 0.501210 0.147910 -0.254811
C39   C     C_R   0.440889 0.410625 0.071534 0.702526
H15   H     H_    0.399806 0.332484 0.869183 0.223236
C40   C     C_R   0.444233 0.408817 0.924703 -0.078828
N2    N     N_R   0.501230 0.501290 0.852040 -0.226771
F1    F     F_    0.844968 0.179050 0.064426 -0.639643
N3    N     N_R   0.525229 0.115958 0.243862 0.142648
O9    O     O_R   0.442328 0.087604 0.150701 -0.270378
O10   O     O_R   0.622335 0.182174 0.211013 -0.334051
F2    F     F_    0.661628 0.230283 0.742530 -0.690802
F3    F     F_    0.374935 0.321275 0.136602 -0.583539
N4    N     N_R   0.256972 0.777831 0.035948 0.140657
O11   O     O_R   0.236421 0.821371 0.914736 -0.263665
O12   O     O_R   0.305439 0.851092 0.130371 -0.292594
F4    F     F_    0.686855 0.687359 0.272781 -0.659117
F5    F     F_    0.154035 0.733028 0.293775 -0.594811
N5    N     N_R   0.164589 0.338690 0.917747 0.109626
O13   O     O_R   0.183850 0.355058 0.787465 -0.414585
O14   O     O_R   0.157203 0.226952 0.963724 -0.273917
N6    N     N_R   0.104748 0.644342 0.702245 0.136331
O15   O     O_R   0.033298 0.686809 0.796086 -0.354909
O16   O     O_R   0.197252 0.714614 0.663473 -0.320469

loop_
_geom_bond_atom_site_label_1
_geom_bond_atom_site_label_2
_geom_bond_distance
_ccdc_geom_bond_type
C34   H12   1.083798 S    
C24   H8    1.077136 S    
C20   H6    1.082509 S    
C1    C29   1.479989 S    
Cu1   Cu2   2.733112 S    
C26   H10   1.074593 S    
Cu1   O7    1.988720 S    
C13   C14   1.404311 A    
C38   N1    1.407881 A    
N4    O12   1.300005 A    
C5    N4    1.434255 S    
C11   C16   1.387982 A    
C15   C16   1.413738 A    
C8    C9    1.396299 A    
C30   N3    1.428675 S    
C7    C8    1.392491 A    
O4    C2    1.311781 A    
O7    C4    1.309537 A    
C13   C22   1.480351 S    
C35   C36   1.377438 A    
C23   C28   1.416985 A    
C19   C20   1.397333 A    
N3    O10   1.301039 A    
O5    C3    1.305710 A    
H1    C10   1.078458 S    
C2    C15   1.491499 S    
C8    H2    1.083520 S    
C5    C6    1.395972 A    
C30   C31   1.385438 A    
C39   F3    1.351900 S    
C27   C32   1.422847 A    
C33   F4    1.334574 S    
C40   N2    1.367927 A    
C36   H14   1.056915 S    
C9    C10   1.410993 A    
C24   C25   1.384781 A    
C37   C38   1.450040 A    
O3    Cu1   1.984885 S    
C3    C32   1.473206 S    
C26   C27   1.414749 A    
C36   C37   1.412286 A    
N4    O11   1.297746 A    
H11   C31   1.082600 S    
O3    C2    1.321976 A    
Cu2   N1    2.054487 S    
C19   F1    1.355099 S    
N5    O14   1.301899 A    
C33   C38   1.443764 A    
C12   C13   1.407805 A    
N1    C39   1.366924 A    
O1    C1    1.312828 A    
C18   C19   1.397797 A    
C25   H9    1.080996 S    
C21   H7    1.083444 S    
C37   N2    1.376118 A    
C27   C28   1.411143 A    
Cu2   O8    1.984885 S    
C9    N5    1.437449 S    
C6    C7    1.397064 A    
C7    C16   1.457052 S    
C25   C26   1.389815 A    
C28   C29   1.418738 A    
O8    C4    1.314184 A    
N6    O15   1.301056 A    
N6    O16   1.302071 A    
C34   C35   1.366807 A    
C29   C30   1.411584 A    
C31   C32   1.397441 A    
Cu1   O5    1.979392 S    
C33   C34   1.388863 A    
C23   C24   1.387847 A    
C5    C10   1.406862 A    
C23   F2    1.351936 S    
C20   C21   1.398700 A    
O1    Cu1   1.973228 S    
C14   N6    1.438940 S    
O2    Cu2   1.979392 S    
O6    C3    1.320701 A    
O4    Cu2   1.988720 S    
C18   H5    1.080399 S    
O2    C1    1.316251 A    
C21   C22   1.406911 A    
C17   C18   1.398352 A    
C35   H13   1.083404 S    
C17   H4    1.075674 S    
C6    F5    1.359588 S    
C17   C22   1.401657 A    
C11   C12   1.392676 A    
C4    C12   1.465949 S    
N3    O9    1.299834 A    
C11   H3    1.082269 S    
Cu1   N2    2.053384 S    
N5    O13   1.298466 A    
Cu2   O6    1.973227 S    
H15   C40   1.078402 S    
C14   C15   1.407741 A    
C39   C40   1.427183 A    
