data_mof_unit_32634.cif
_audit_creation_date              2013-03-05T15:45:43-0500
_audit_creation_method            fapswitch 2.2
_symmetry_space_group_name_H-M    P1
_symmetry_Int_Tables_number       1
_space_group_crystal_system       triclinic
_cell_length_a                    6.937057
_cell_length_b                    16.702857
_cell_length_c                    16.919758
_cell_angle_alpha                 101.460899
_cell_angle_beta                  88.881843
_cell_angle_gamma                 91.623752
_cell_volume                      1920.41474369

loop_
_atom_site_label
_atom_site_type_symbol
_atom_site_description
_atom_site_fract_x
_atom_site_fract_y
_atom_site_fract_z
_atom_type_partial_charge
O1    O     O_R   0.506340 0.439070 0.579550 -0.602061
O2    O     O_R   0.170010 0.404890 0.412100 -0.605484
O3    O     O_R   0.005010 0.560930 0.420450 -0.586630
C1    C     C_R   0.339369 0.381456 0.383329 0.963116
O4    O     O_R   0.176280 0.429360 0.578400 -0.608455
O5    O     O_R   0.011320 0.585570 0.587940 -0.596324
C2    C     C_R   0.341523 0.413002 0.604951 0.913231
O6    O     O_R   0.500030 0.414430 0.412060 -0.584142
O7    O     O_3   0.340950 0.551220 0.502940 -0.239750
V1    V     V_3+5 0.064020 0.490500 0.499460 1.180570
O8    O     O_R   0.681910 0.595110 0.587900 -0.589448
C3    C     C_R   0.851408 0.618436 0.616618 0.926802
O9    O     O_R   0.675640 0.570640 0.421600 -0.548887
C4    C     C_R   0.847879 0.587079 0.395622 1.028166
V2    V     V_3+5 0.564670 0.509500 0.500540 1.224900
O10   O     O_3   0.837610 0.448780 0.497060 -0.292151
C5    C     C_R   0.890498 0.865354 0.169370 -0.155335
C6    C     C_R   0.873028 0.640695 0.335321 -0.335465
C7    C     C_R   0.071474 0.678886 0.227627 -0.107529
C8    C     C_R   0.029348 0.626777 0.280728 -0.095964
C9    C     C_R   0.755074 0.708472 0.335350 0.324197
C10   C     C_R   0.797253 0.762473 0.281044 -0.076378
C11   C     C_R   0.958525 0.746823 0.227246 0.107880
C12   C     C_R   0.004901 0.798580 0.172799 -0.240591
C13   C     C_R   0.733372 0.881804 0.223142 -0.347724
C14   C     C_R   0.685667 0.831992 0.279093 0.555909
H1    H     H_    0.125577 0.785070 0.130998 0.133482
H2    H     H_    0.645257 0.933901 0.221065 0.136695
H3    H     H_    0.194268 0.666150 0.186885 0.123095
H4    H     H_    0.121620 0.575274 0.279623 0.157871
C15   C     C_3   0.813544 0.817897 0.730992 -0.115005
C16   C     C_3   0.982898 0.768280 0.686768 -0.100669
H5    H     H_    0.064765 0.782873 0.634175 0.138647
H6    H     H_    0.756541 0.874364 0.715864 0.118235
C17   C     C_3   0.865505 0.688769 0.687344 -0.089377
C18   C     C_3   0.696013 0.737559 0.730739 -0.076936
C19   C     C_3   0.783195 0.731856 0.813014 -0.146817
C20   C     C_3   0.952561 0.682252 0.768803 -0.148601
C21   C     C_3   0.070093 0.762584 0.769047 -0.105523
C22   C     C_3   0.900602 0.811370 0.812463 -0.098735
H7    H     H_    0.541938 0.726886 0.714394 0.116184
H8    H     H_    0.701265 0.717237 0.865577 0.108926
H9    H     H_    0.009556 0.625774 0.783911 0.105182
H10   H     H_    0.224189 0.773254 0.785356 0.113487
C23   C     C_3   0.474929 0.234103 0.314173 -0.191094
C24   C     C_3   0.311353 0.180079 0.267930 -0.080936
H11   H     H_    0.253166 0.122003 0.282419 0.107012
H12   H     H_    0.549031 0.221018 0.367604 0.127067
C25   C     C_3   0.409778 0.189074 0.187285 -0.142813
C26   C     C_3   0.573963 0.242088 0.232742 -0.219725
C27   C     C_3   0.452871 0.317723 0.232396 0.581846
C28   C     C_3   0.290557 0.265607 0.185491 -0.245326
C29   C     C_3   0.192877 0.257489 0.267136 -0.148674
C30   C     C_3   0.356082 0.310776 0.312839 -0.157838
H13   H     H_    0.729767 0.236665 0.217356 0.125450
H14   H     H_    0.217747 0.279490 0.132109 0.124215
H15   H     H_    0.037122 0.263799 0.282311 0.128676
C31   C     C_R   0.432148 0.141331 0.834491 -0.134681
C32   C     C_R   0.334400 0.358778 0.665499 -0.125862
C33   C     C_R   0.143568 0.297148 0.762315 -0.238468
C34   C     C_R   0.162184 0.351947 0.709763 -0.156462
C35   C     C_R   0.489616 0.309625 0.676104 -0.292078
C36   C     C_R   0.470658 0.253346 0.728360 0.218454
C37   C     C_R   0.295935 0.246781 0.771645 0.222023
C38   C     C_R   0.276956 0.190495 0.823889 -0.290156
C39   C     C_R   0.604391 0.148173 0.790247 -0.148851
C40   C     C_R   0.623027 0.202980 0.737699 -0.231848
H16   H     H_    0.143854 0.186608 0.857720 0.139378
H17   H     H_    0.726664 0.111121 0.796547 0.136577
H18   H     H_    0.009115 0.293852 0.795316 0.129440
H19   H     H_    0.757486 0.206277 0.704704 0.132820
H20   H     H_    0.039898 0.388994 0.703468 0.133519
H21   H     H_    0.622702 0.313508 0.642262 0.139611
O11   O     O_R   0.266070 0.085680 0.087850 -0.590835
O12   O     O_R   0.590090 0.070660 0.921580 -0.603029
O13   O     O_R   0.754780 0.914400 0.912080 -0.590907
C41   C     C_R   0.424905 0.087072 0.895005 0.933689
O14   O     O_R   0.596110 0.095130 0.087880 -0.596803
O15   O     O_R   0.760850 0.939050 0.079570 -0.594013
C42   C     C_R   0.426733 0.118631 0.116602 0.933941
O16   O     O_R   0.260010 0.061030 0.920360 -0.590498
O17   O     O_3   0.425070 0.948840 0.997010 -0.271381
V3    V     V_3+5 0.702100 0.009490 0.000550 1.146940
O18   O     O_R   0.090200 0.929250 0.078500 -0.597786
C43   C     C_R   0.917878 0.914467 0.105672 0.963984
O19   O     O_R   0.084180 0.904770 0.912200 -0.597654
C44   C     C_R   0.914711 0.881601 0.883320 0.911429
V4    V     V_3+5 0.201420 0.990350 0.999580 1.149242
O20   O     O_3   0.928580 0.051150 0.002990 -0.275239
O21   O     O_3   0.525883 0.391168 0.214786 -0.776748
H22   H     H_    0.580679 0.376686 0.159400 0.301464
O22   O     O_3   0.529872 0.850423 0.331069 -0.703013
H23   H     H_    0.467885 0.900186 0.321059 0.310313
N1    N     N_R   0.600142 0.724070 0.393090 0.271456
O23   O     O_R   0.426092 0.698086 0.372667 -0.360768
O24   O     O_R   0.636803 0.755368 0.468190 -0.397653

loop_
_geom_bond_atom_site_label_1
_geom_bond_atom_site_label_2
_geom_bond_distance
_ccdc_geom_bond_type
C6    C9    1.415408 A    
C4    C6    1.490193 S    
O2    C1    1.303254 A    
C7    C8    1.391496 A    
C12   H1    1.084487 S    
C1    O6    1.289088 A    
C8    H4    1.083719 S    
C29   C30   1.541261 S    
C13   H2    1.084068 S    
C24   C25   1.545915 S    
C35   C36   1.414723 A    
C5    C43   1.484954 S    
C22   C44   1.504052 S    
C18   C19   1.549691 S    
C19   C22   1.539684 S    
C27   O21   1.397980 S    
O5    C3    1.294230 A    
C20   C21   1.549536 S    
O14   C42   1.303404 A    
C39   H17   1.083203 S    
C9    N1    1.432189 S    
C14   O22   1.382162 S    
V2    O10   2.167434 S    
C15   C22   1.540362 S    
C16   C21   1.549759 S    
C19   H8    1.110096 S    
C31   C41   1.495458 S    
O8    V2    2.007993 S    
O14   V3    1.986784 S    
C31   C39   1.411555 A    
C17   C18   1.538986 S    
C11   C12   1.410205 A    
C35   H21   1.084047 S    
O1    V2    1.977774 S    
C41   O16   1.307109 A    
O7    V1    2.143099 S    
C40   H19   1.083381 S    
C25   C28   1.547691 S    
C39   C40   1.399094 A    
O11   C42   1.289087 A    
O9    C4    1.305790 A    
C18   H7    1.109866 S    
O13   V3    1.990876 S    
C2    C32   1.495475 S    
C10   C11   1.425042 A    
V3    O20   1.698065 S    
C36   C40   1.399873 A    
C32   C34   1.411563 A    
C5    C12   1.398142 A    
O19   V4    2.007922 S    
C27   C28   1.536297 S    
C16   C17   1.539668 S    
C17   C20   1.540129 S    
O18   C43   1.307006 A    
C21   C22   1.539078 S    
O4    C2    1.295023 A    
C29   H15   1.108755 S    
O19   C44   1.300804 A    
C13   C14   1.408226 A    
C23   C24   1.552453 S    
C33   C34   1.399036 A    
C7    C11   1.398247 A    
C19   C20   1.549508 S    
C31   C38   1.407724 A    
C15   C16   1.549627 S    
C33   H18   1.083384 S    
C38   H16   1.084049 S    
C26   C27   1.537832 S    
C15   H6    1.110173 S    
C3    C17   1.503675 S    
N1    O24   1.301420 A    
O12   C41   1.295104 A    
O13   C44   1.294309 A    
O3    C4    1.293502 A    
C34   H20   1.083206 S    
C23   C30   1.546719 S    
O17   V3    2.143146 S    
O6    V2    2.001239 S    
O9    V2    1.968957 S    
O2    V1    1.986794 S    
O15   C43   1.290906 A    
C28   C29   1.555167 S    
C23   H12   1.110106 S    
C24   H11   1.110157 S    
C32   C35   1.407758 A    
C1    C30   1.507473 S    
O1    C2    1.307099 A    
O18   V4    1.968895 S    
O5    V1    1.990782 S    
O8    C3    1.300599 A    
C21   H10   1.109859 S    
C26   H13   1.108755 S    
C25   C42   1.507200 S    
C33   C37   1.399830 A    
C27   C30   1.529542 S    
C5    C13   1.403657 A    
C16   H5    1.110142 S    
O7    V2    1.715634 S    
O4    V1    2.015189 S    
O3    V1    2.003041 S    
V1    O10   1.698029 S    
C37   C38   1.414665 A    
O15   V3    2.002873 S    
O12   V3    2.015190 S    
O21   H22   0.991158 S    
C23   C26   1.555299 S    
O17   V4    1.713482 S    
C24   C29   1.554011 S    
O22   H23   0.991727 S    
C6    C8    1.404660 A    
N1    O23   1.300982 A    
O16   V4    1.983917 S    
C36   C37   1.416763 A    
C20   H9    1.110173 S    
V4    O20   2.167570 S    
C25   C26   1.542489 S    
C10   C14   1.419781 A    
C15   C18   1.549588 S    
O11   V4    2.001921 S    
C9    C10   1.430855 A    
C28   H14   1.110117 S    
C7    H3    1.084038 S    
