data_mof_unit_64951.cif
_audit_creation_date              2012-12-10T18:50:47-0500
_audit_creation_method            fapswitch 2.2
_symmetry_space_group_name_H-M    P1
_symmetry_Int_Tables_number       1
_space_group_crystal_system       triclinic
_cell_length_a                    17.329436
_cell_length_b                    18.18548
_cell_length_c                    19.445055
_cell_angle_alpha                 89.287927
_cell_angle_beta                  91.23324
_cell_angle_gamma                 85.80581
_cell_volume                      6109.56506417

loop_
_atom_site_label
_atom_site_type_symbol
_atom_type_description
_atom_site_fract_x
_atom_site_fract_y
_atom_site_fract_z
_atom_type_partial_charge
C1    C     C_R   0.499809 0.499663 0.632411 0.818944
C2    C     C_R   0.500176 0.500339 0.367588 0.818866
C3    C     C_R   0.516002 0.564624 0.255350 -0.142834
C4    C     C_R   0.483767 0.435446 0.744648 -0.142656
C5    C     C_R   0.515935 0.564607 0.183710 -0.163140
C6    C     C_R   0.483796 0.435479 0.816287 -0.161986
C7    C     C_R   0.500580 0.500596 0.147834 0.096485
C8    C     C_R   0.499257 0.499463 0.852164 0.096313
C9    C     C_R   0.485709 0.436522 0.184635 -0.159746
C10   C     C_R   0.514266 0.563495 0.815358 -0.159879
C11   C     C_R   0.485825 0.436501 0.256197 -0.156936
C12   C     C_R   0.514204 0.563493 0.743798 -0.156675
C13   C     C_R   0.500587 0.500655 0.292126 -0.028743
C14   C     C_R   0.499348 0.499364 0.707872 -0.028724
C15   C     C_R   0.441972 0.466879 0.035413 -0.165897
C16   C     C_R   0.557852 0.533190 0.964592 -0.165594
C17   C     C_R   0.441738 0.466416 0.963812 -0.161776
C18   C     C_R   0.558080 0.533660 0.036192 -0.161868
C19   C     C_R   0.499667 0.499583 0.927865 0.098312
C20   C     C_R   0.500155 0.500488 0.072137 0.098169
C21   C     C_R   0.552674 0.272877 0.539816 0.107804
C22   C     C_R   0.447068 0.727155 0.460464 0.111132
C23   C     C_R   0.649901 0.490566 0.497873 0.835684
C24   C     C_R   0.350100 0.509434 0.502124 0.835432
C25   C     C_R   0.553637 0.194611 0.538525 -0.132029
C26   C     C_R   0.445942 0.805374 0.461952 -0.129214
C27   C     C_R   0.499709 0.161066 0.496126 0.071041
C28   C     C_R   0.500243 0.838925 0.504000 0.069042
C29   C     C_R   0.446458 0.206692 0.456572 -0.229605
C30   C     C_R   0.553796 0.793283 0.543222 -0.229417
C31   C     C_R   0.447675 0.283919 0.459082 0.084888
C32   C     C_R   0.552563 0.716057 0.540690 0.084290
C33   C     C_R   0.525542 0.034834 0.439733 0.039490
C34   C     C_R   0.474349 0.965151 0.560377 0.031002
C35   C     C_R   0.526886 0.957232 0.445510 -0.207097
C36   C     C_R   0.472990 0.042753 0.554593 -0.206384
C37   C     C_R   0.502267 0.921472 0.504887 0.025985
C38   C     C_R   0.497655 0.078520 0.495233 0.033713
C39   C     C_R   0.734129 0.487938 0.492525 -0.126605
C40   C     C_R   0.265872 0.512061 0.507463 -0.126885
C41   C     C_R   0.771430 0.545312 0.523636 -0.213870
C42   C     C_R   0.228573 0.454714 0.476303 -0.213944
C43   C     C_R   0.849949 0.552635 0.515252 0.218850
C44   C     C_R   0.150054 0.447381 0.484678 0.218283
C45   C     C_R   0.893332 0.498211 0.478432 0.142886
C46   C     C_R   0.106667 0.501775 0.521531 0.142773
C47   C     C_R   0.856866 0.440324 0.447806 -0.240401
C48   C     C_R   0.143134 0.559634 0.552207 -0.240510
C49   C     C_R   0.777077 0.435109 0.453022 -0.016456
C50   C     C_R   0.222924 0.564852 0.547006 -0.016359
C51   C     C_2   0.977106 0.498733 0.472008 -0.209758
C52   C     C_2   0.022893 0.501248 0.527950 -0.209239
Cu1   Cu    Cu3+1 0.500020 0.426640 0.500000 0.996611
Cu2   Cu    Cu3+1 0.499980 0.573360 0.500000 0.996400
H1    H     H_    0.738475 0.586538 0.553054 0.154607
H2    H     H_    0.261532 0.413515 0.446859 0.154815
H3    H     H_    0.396086 0.441866 0.062086 0.134496
H4    H     H_    0.603748 0.558194 0.937925 0.134584
H5    H     H_    0.395649 0.441129 0.936501 0.136636
H6    H     H_    0.604166 0.558950 0.063507 0.136685
H7    H     H_    0.404041 0.182557 0.423817 0.145638
H8    H     H_    0.596439 0.817402 0.575745 0.143306
H9    H     H_    0.406564 0.318026 0.427785 0.117587
H10   H     H_    0.593868 0.681931 0.571775 0.117589
H11   H     H_    0.547764 0.923520 0.403256 0.185134
H12   H     H_    0.452101 0.076466 0.596841 0.185528
H13   H     H_    0.998267 0.508160 0.578607 0.172069
H14   H     H_    0.001727 0.491826 0.421349 0.171832
H15   H     H_    0.890914 0.399849 0.418450 0.173408
H16   H     H_    0.109085 0.600081 0.581592 0.173384
H17   H     H_    0.528506 0.614541 0.281853 0.191666
H18   H     H_    0.471158 0.385559 0.718145 0.191517
H19   H     H_    0.527035 0.614831 0.156319 0.141952
H20   H     H_    0.472586 0.385284 0.843676 0.142400
H21   H     H_    0.474786 0.386213 0.158044 0.137734
H22   H     H_    0.525262 0.613790 0.841941 0.137607
H23   H     H_    0.474011 0.386311 0.283326 0.159059
H24   H     H_    0.526136 0.613649 0.716667 0.159063
N1    N     N_R   0.500010 0.316380 0.499980 -0.215303
N2    N     N_R   0.499990 0.683620 0.500020 -0.216152
O1    O     O_R   0.500030 0.438020 0.599820 -0.574486
O2    O     O_R   0.499970 0.561980 0.400180 -0.573972
O3    O     O_R   0.500000 0.561930 0.599810 -0.572439
O4    O     O_R   0.500000 0.438070 0.400190 -0.572629
O5    O     O_R   0.613620 0.430860 0.500010 -0.547554
O6    O     O_R   0.386380 0.569140 0.499990 -0.548415
O7    O     O_R   0.613580 0.554770 0.500010 -0.609776
O8    O     O_R   0.386420 0.445230 0.499990 -0.609474
C53   C     C_2   0.612014 0.306173 0.582369 0.926829
O9    O     O_2   0.677917 0.307458 0.561379 -0.578623
O10   O     O_R   0.595203 0.328174 0.649246 -0.753189
H25   H     H_    0.641206 0.348086 0.673971 0.329842
C54   C     C_2   0.387573 0.693915 0.418047 0.930055
O11   O     O_2   0.321632 0.693027 0.439035 -0.581213
O12   O     O_R   0.404340 0.671346 0.351325 -0.749549
H26   H     H_    0.358231 0.651519 0.326694 0.328212
C55   C     C_2   0.611789 0.147819 0.580354 0.862019
O13   O     O_2   0.623193 0.161278 0.641035 -0.564659
O14   O     O_R   0.653049 0.088055 0.550248 -0.733276
H27   H     H_    0.690244 0.060141 0.583924 0.342472
C56   C     C_2   0.387367 0.851827 0.420286 0.857177
O15   O     O_2   0.350522 0.903603 0.446683 -0.558882
O16   O     O_R   0.374622 0.836382 0.350883 -0.738549
H28   H     H_    0.333540 0.871768 0.328209 0.346484
C57   C     C_2   0.555633 0.067328 0.375788 0.854266
O17   O     O_2   0.575939 0.130305 0.374726 -0.571179
O18   O     O_R   0.562219 0.024829 0.316432 -0.761690
H29   H     H_    0.583746 0.052496 0.276412 0.344343
C58   C     C_2   0.444343 0.932645 0.624361 0.853772
O19   O     O_2   0.424436 0.869530 0.625555 -0.573115
O20   O     O_R   0.437410 0.975275 0.683613 -0.758923
H30   H     H_    0.415993 0.947581 0.723670 0.344716
C59   C     C_2   0.258641 0.623211 0.586722 0.900910
O21   O     O_2   0.320358 0.609896 0.617652 -0.590284
O22   O     O_R   0.219536 0.692945 0.591305 -0.729840
H31   H     H_    0.249091 0.727971 0.620205 0.353453
C60   C     C_2   0.741361 0.376706 0.413366 0.901100
O23   O     O_2   0.679666 0.389999 0.382396 -0.590171
O24   O     O_R   0.780446 0.306952 0.408885 -0.730140
H32   H     H_    0.750895 0.271894 0.380017 0.353454
C61   C     C_3   0.116537 0.379415 0.456207 -0.865595
H33   H     H_    0.155571 0.329868 0.469562 0.237713
H34   H     H_    0.059444 0.369618 0.477765 0.253117
H35   H     H_    0.110869 0.384476 0.399340 0.229803
C62   C     C_3   0.883472 0.620618 0.543681 -0.867243
H36   H     H_    0.844456 0.670162 0.530274 0.236974
H37   H     H_    0.889111 0.615608 0.600552 0.230046
H38   H     H_    0.940581 0.630380 0.522137 0.253099

loop_
_geom_bond_atom_site_label_1
_geom_bond_atom_site_label_2
_ccdc_geom_bond_type
C54   O11   D    
C27   C29   A    
C34   C37   A    
C41   C43   A    
C2    O4    A    
O12   H26   S    
C4    H18   S    
C43   C62   S    
C55   O13   D    
C39   C41   A    
C21   C53   S    
Cu1   Cu2   S    
C57   O18   S    
C56   O15   D    
Cu1   O4    S    
C35   C37   A    
C60   O24   S    
C26   C56   S    
Cu2   O7    S    
C33   C35   A    
C36   H12   S    
C45   C51   S    
C27   C38   S    
C1    O1    A    
O22   H31   S    
C46   C52   S    
C44   C61   S    
Cu1   O1    S    
C2    C13   S    
C41   H1    S    
C61   H35   S    
C11   H23   S    
C58   O20   S    
C42   H2    S    
C10   H22   S    
C47   H15   S    
O20   H30   S    
C12   H24   S    
C62   H38   S    
O18   H29   S    
C53   O10   S    
C18   C20   A    
C3    C13   A    
C48   C50   A    
C56   O16   S    
C23   O7    A    
C5    H19   S    
C15   H3    S    
C42   C44   A    
Cu2   O3    S    
C55   O14   S    
C44   C46   A    
C6    H20   S    
Cu2   N2    S    
C45   C47   A    
C15   C20   A    
C29   H7    S    
C8    C19   S    
C51   C52   D    
C31   H9    S    
C33   C57   S    
C32   H10   S    
C47   C49   A    
O10   H25   S    
Cu2   O6    S    
C17   C19   A    
C6    C8    A    
C3    H17   S    
C32   N2    A    
C43   C45   A    
O14   H27   S    
C21   N1    A    
C16   C18   A    
C16   H4    S    
C9    C11   A    
C61   H33   S    
C52   H13   S    
C10   C12   A    
C17   H5    S    
C18   H6    S    
C39   C49   A    
C12   C14   A    
C30   H8    S    
C23   O5    A    
C62   H36   S    
C22   C54   S    
C49   C60   S    
C2    O2    A    
C4    C6    A    
C1    O3    A    
Cu2   O2    S    
C5    C7    A    
C59   O21   D    
C25   C55   S    
C15   C17   A    
C21   C25   A    
Cu1   N1    S    
C24   O8    A    
C48   H16   S    
C3    C5    A    
O24   H32   S    
C31   N1    A    
C25   C27   A    
C57   O17   D    
C26   C28   A    
C33   C38   A    
C50   C59   S    
C36   C38   A    
C22   N2    A    
C28   C30   A    
C29   C31   A    
C58   O19   D    
C30   C32   A    
C11   C13   A    
C54   O12   S    
C28   C37   S    
C16   C19   A    
C40   C50   A    
C40   C42   A    
C24   C40   S    
Cu1   O8    S    
C34   C36   A    
C51   H14   S    
C4    C14   A    
C61   H34   S    
C46   C48   A    
C7    C9    A    
C8    C10   A    
C7    C20   S    
C22   C26   A    
O16   H28   S    
C62   H37   S    
C34   C58   S    
C35   H11   S    
Cu1   O5    S    
C1    C14   S    
C9    H21   S    
C53   O9    D    
C60   O23   D    
C24   O6    A    
C23   C39   S    
C59   O22   S    
