data_mof_unit_48848.cif
_audit_creation_date              2012-12-11T15:56:02-0500
_audit_creation_method            fapswitch 2.2
_symmetry_space_group_name_H-M    P1
_symmetry_Int_Tables_number       1
_space_group_crystal_system       triclinic
_cell_length_a                    11.009551
_cell_length_b                    11.032392
_cell_length_c                    18.791467
_cell_angle_alpha                 89.910045
_cell_angle_beta                  90.2493
_cell_angle_gamma                 59.792664
_cell_volume                      1972.4737904

loop_
_atom_site_label
_atom_site_type_symbol
_atom_type_description
_atom_site_fract_x
_atom_site_fract_y
_atom_site_fract_z
_atom_type_partial_charge
C1    C     C_R   0.358180 0.773035 0.397861 0.541633
C2    C     C_R   0.228009 0.406963 0.207290 -0.160678
C3    C     C_R   0.231561 0.431072 0.279544 -0.041071
C4    C     C_R   0.381540 0.351615 0.390348 0.531131
C5    C     C_R   0.943079 0.831856 0.370146 -0.099372
C6    C     C_R   0.960047 0.709725 0.401473 -0.099408
C7    C     C_R   0.050446 0.579792 0.370959 -0.055160
C8    C     C_R   0.124947 0.570332 0.308542 0.040595
C9    C     C_R   0.340889 0.324691 0.320854 -0.003451
C10   C     C_R   0.897667 0.320483 0.190261 0.007980
C11   C     C_R   0.881607 0.218834 0.225469 0.007951
C12   C     C_R   0.560010 0.036172 0.191215 0.052465
C13   C     C_R   0.855873 0.227863 0.297743 -0.000017
C14   C     C_R   0.888343 0.427154 0.303166 -0.173648
C15   C     C_R   0.914933 0.416585 0.230845 -0.171911
C16   C     C_R   0.777941 0.378784 0.403584 0.534352
C17   C     C_3   0.776565 0.178033 0.209177 -0.281817
C18   C     C_3   0.741092 0.194585 0.287078 -0.249719
C19   C     C_R   0.852312 0.336543 0.336970 0.005116
C20   C     C_R   0.310804 0.920660 0.185438 0.027493
C21   C     C_R   0.413743 0.785055 0.204244 0.037493
C22   C     C_R   0.434167 0.741870 0.273990 0.007854
C23   C     C_R   0.329051 0.280878 0.175517 0.000958
C24   C     C_R   0.254684 0.971960 0.311198 -0.168536
C25   C     C_R   0.238317 0.017351 0.240032 -0.170742
C26   C     C_3   0.451804 0.643709 0.176758 -0.264827
C27   C     C_3   0.476383 0.594918 0.254157 -0.282310
C28   C     C_R   0.346197 0.765183 0.605335 0.525827
C29   C     C_R   0.347769 0.830412 0.327598 0.023160
C30   C     C_R   0.312020 0.333241 0.816352 0.012032
C31   C     C_R   0.444914 0.273392 0.786029 0.012946
C32   C     C_R   0.458011 0.273170 0.713961 0.032049
C33   C     C_R   0.207238 0.408469 0.698377 -0.180081
C34   C     C_R   0.436246 0.196290 0.289953 -0.155022
C35   C     C_R   0.193146 0.411169 0.772573 -0.168485
C36   C     C_3   0.574604 0.131569 0.793275 -0.268561
C37   C     C_3   0.586217 0.131378 0.713160 -0.260371
C38   C     C_R   0.341555 0.332384 0.668557 0.015262
C39   C     C_R   0.917411 0.288738 0.820376 -0.034337
C40   C     C_R   0.370328 0.349354 0.595635 0.535797
C41   C     C_R   0.890099 0.410809 0.785263 0.001920
C42   C     C_R   0.858244 0.429867 0.714699 -0.019581
C43   C     C_R   0.906043 0.191605 0.704065 0.220443
C44   C     C_R   0.933990 0.174663 0.778572 -0.136229
C45   C     C_R   0.439351 0.173697 0.217367 -0.032376
C46   C     C_3   0.789576 0.561177 0.802738 -0.256856
C47   C     C_3   0.754191 0.582494 0.724545 -0.263451
C48   C     C_R   0.848439 0.328403 0.674962 0.007432
C49   C     C_R   0.304209 0.848284 0.825126 0.011134
C50   C     C_R   0.202368 0.835564 0.788117 0.019698
C51   C     C_R   0.210052 0.820801 0.715563 0.054051
C52   C     C_R   0.765128 0.376525 0.609752 0.537937
C53   C     C_R   0.410438 0.853150 0.712163 -0.179600
C54   C     C_R   0.405705 0.863296 0.786137 -0.158501
C55   C     C_3   0.157728 0.729859 0.798023 -0.278265
C56   C     C_R   0.102358 0.694789 0.275854 -0.091064
C57   C     C_3   0.167147 0.712841 0.718038 -0.244014
C58   C     C_R   0.318072 0.821364 0.676820 -0.002389
C59   C     C_R   0.922040 0.310994 0.114515 0.537620
C60   C     C_R   0.305299 0.258585 0.101707 0.543103
C61   C     C_R   0.272978 0.960788 0.111909 0.542889
C62   C     C_R   0.945389 0.282043 0.896943 0.575957
C63   C     C_R   0.295893 0.289928 0.886239 0.555618
C64   C     C_R   0.794777 0.776997 0.151599 -0.102205
C65   C     C_R   0.276400 0.894228 0.898201 0.547629
C66   C     C_R   0.714034 0.784913 0.210244 -0.105124
C67   C     C_R   0.013456 0.824517 0.307112 -0.086259
C68   C     C_R   0.599616 0.912905 0.230296 -0.100596
C69   C     C_3   0.989373 0.058241 0.601018 0.029249
C70   C     C_3   0.954419 0.971924 0.550683 -0.327862
C71   C     C_R   0.649200 0.026999 0.135068 -0.051412
C72   C     C_R   0.762894 0.898448 0.114322 -0.121729
Cr1   Cr    Cr6+3 0.601740 0.606840 0.505840 0.994217
Cr2   Cr    Cr6+3 0.291500 0.601560 0.495070 0.995924
Cr3   Cr    Cr6+3 0.606780 0.291630 0.499130 0.988652
Cr4   Cr    Cr6+3 0.062440 0.063060 0.008240 0.993890
Cr5   Cr    Cr6+3 0.062950 0.375000 0.998920 0.988878
Cr6   Cr    Cr6+3 0.374550 0.061770 0.992470 1.004606
H1    H     H_    0.519184 0.115541 0.322296 0.137844
H2    H     H_    0.761408 0.096002 0.312654 0.137281
H3    H     H_    0.191595 0.045027 0.352333 0.115927
H4    H     H_    0.828542 0.893923 0.070505 0.102556
H5    H     H_    0.165177 0.125690 0.227292 0.117662
H6    H     H_    0.550082 0.596229 0.145063 0.151982
H7    H     H_    0.361619 0.641388 0.151386 0.151541
H8    H     H_    0.402656 0.561894 0.273912 0.149207
H9    H     H_    0.588709 0.521208 0.266500 0.144941
H10   H     H_    0.115204 0.467207 0.664966 0.125188
H11   H     H_    0.089892 0.467875 0.795447 0.142813
H12   H     H_    0.877035 0.931471 0.395672 0.089573
H13   H     H_    0.555425 0.047521 0.812234 0.155778
H14   H     H_    0.661286 0.136644 0.821094 0.144951
H15   H     H_    0.678769 0.135836 0.694651 0.215033
H16   H     H_    0.002512 0.918621 0.283263 0.123036
H17   H     H_    0.568344 0.051578 0.686627 0.129936
H18   H     H_    0.962352 0.075843 0.803844 0.149805
H19   H     H_    0.843338 0.617683 0.821639 0.132699
H20   H     H_    0.700097 0.575321 0.836069 0.159621
H21   H     H_    0.645309 0.606749 0.713085 0.165851
H22   H     H_    0.787167 0.651377 0.697983 0.134147
H23   H     H_    0.905688 0.715371 0.450308 0.088889
H24   H     H_    0.492495 0.859255 0.683656 0.122815
H25   H     H_    0.481889 0.882279 0.812630 0.134875
H26   H     H_    0.048425 0.777730 0.818194 0.140481
H27   H     H_    0.883705 0.678148 0.135665 0.121100
H28   H     H_    0.237073 0.635257 0.827529 0.142254
H29   H     H_    0.255357 0.610707 0.700601 0.163395
H30   H     H_    0.063995 0.748010 0.691807 0.149461
H31   H     H_    0.738398 0.692897 0.240790 0.118690
H32   H     H_    0.541615 0.915257 0.276949 0.116118
H33   H     H_    0.157493 0.691480 0.227729 0.104235
H34   H     H_    0.066560 0.485468 0.397477 0.102616
H35   H     H_    0.635124 0.119804 0.108120 0.136062
H36   H     H_    0.144654 0.488812 0.175588 0.129533
H37   H     H_    0.102247 0.003967 0.612008 0.139761
H38   H     H_    0.970336 0.153423 0.571978 0.112686
H39   H     H_    0.841685 0.032088 0.535249 0.151079
H40   H     H_    0.019198 0.946875 0.501919 0.115916
H41   H     H_    0.975708 0.872785 0.576771 0.151638
H42   H     H_    0.875652 0.518494 0.329889 0.143759
H43   H     H_    0.939402 0.489767 0.206319 0.129832
H44   H     H_    0.832740 0.067535 0.191398 0.149662
H45   H     H_    0.689965 0.256445 0.174836 0.133028
H46   H     H_    0.635363 0.285855 0.297828 0.160539
O1    O     O_R   0.748670 0.497520 0.427970 -0.529981
O2    O     O_R   0.417470 0.174910 0.067830 -0.526872
O3    O     O_R   0.375160 0.946380 0.070880 -0.492905
O4    O     O_R   0.476470 0.723930 0.429450 -0.499996
O5    O     O_R   0.160500 0.919670 0.926690 -0.521683
O6    O     O_R   0.933140 0.190380 0.936050 -0.502591
O7    O     O_R   0.909010 0.403210 0.925030 -0.512890
O8    O     O_R   0.179590 0.361290 0.918480 -0.518278
O9    O     O_R   0.391360 0.170840 0.907510 -0.521404
O10   O     O_R   0.350950 0.942600 0.922260 -0.508588
O11   O     O_3   0.166650 0.166610 0.999880 -0.308062
O12   O     O_R   0.300170 0.471020 0.567120 -0.512583
O13   O     O_R   0.264730 0.744140 0.416740 -0.507875
O14   O     O_R   0.309440 0.472410 0.418220 -0.492365
O15   O     O_R   0.501630 0.260530 0.414310 -0.541981
O16   O     O_R   0.727920 0.305730 0.428950 -0.512744
O17   O     O_R   0.738670 0.496020 0.588600 -0.532124
O18   O     O_R   0.467190 0.722540 0.578350 -0.507499
O19   O     O_R   0.254720 0.742640 0.577370 -0.538438
O20   O     O_3   0.913801 0.080760 0.665381 -0.582839
O21   O     O_R   0.491630 0.259030 0.574940 -0.518076
O22   O     O_R   0.718640 0.304340 0.577850 -0.485023
O23   O     O_3   0.500010 0.500010 0.500020 -0.244232
O24   O     O_R   0.186620 0.923750 0.087000 -0.517381
O25   O     O_R   0.957350 0.194160 0.084660 -0.511535
O26   O     O_R   0.935120 0.407280 0.085350 -0.533039
O27   O     O_R   0.203800 0.365060 0.067090 -0.510719

loop_
_geom_bond_atom_site_label_1
_geom_bond_atom_site_label_2
_ccdc_geom_bond_type
C66   C68   A    
Cr2   O19   S    
C69   H38   S    
C23   C45   A    
C22   C29   A    
C11   C13   A    
C41   C42   A    
C62   O6    A    
C1    O4    A    
C21   C26   S    
Cr5   O27   S    
C7    C8    A    
C39   C41   A    
Cr1   O17   S    
C53   C54   A    
Cr3   O21   S    
C69   O20   S    
Cr2   O14   S    
C71   H35   S    
C26   C27   S    
C49   C65   S    
C40   O21   A    
Cr1   O23   S    
C3    C9    A    
C63   O9    A    
C36   C37   S    
C61   O24   A    
Cr3   O16   S    
C26   H7    S    
C30   C31   A    
C20   C25   A    
C70   H39   S    
C49   C54   A    
C47   H21   S    
C7    H34   S    
C37   H17   S    
Cr5   O7    S    
C6    H23   S    
C51   C58   A    
C20   C61   S    
C24   C29   A    
Cr4   O6    S    
C17   H45   S    
C11   C17   S    
Cr2   O12   S    
C67   H16   S    
C52   O22   A    
C41   C46   S    
C51   C57   S    
C32   C38   A    
Cr6   O11   S    
C53   H24   S    
C56   H33   S    
C65   O10   A    
C5    C67   A    
C36   H14   S    
C46   H20   S    
C16   O1    A    
C21   C22   A    
C8    C56   A    
C43   O20   S    
C16   O16   A    
C46   H19   S    
Cr6   O3    S    
C14   C19   A    
C52   O17   A    
Cr4   O11   S    
C50   C51   A    
Cr1   O18   S    
C59   O25   A    
Cr3   O22   S    
C23   C60   S    
Cr2   O13   S    
C13   C19   A    
C55   H28   S    
Cr2   O23   S    
C64   H27   S    
C24   C25   A    
C3    C8    S    
C28   O19   A    
C42   C48   A    
Cr3   O23   S    
C63   O8    A    
C55   H26   S    
C47   H22   S    
Cr5   O8    S    
C64   C66   A    
C27   H8    S    
C43   C44   A    
C44   H18   S    
C34   H1    S    
C12   C68   A    
Cr4   O5    S    
C54   H25   S    
C31   C32   A    
C24   H3    S    
C70   H41   S    
C1    C29   S    
C17   C18   S    
C37   H15   S    
C61   O3    A    
C34   C45   A    
C68   H32   S    
C32   C37   S    
C27   H9    S    
Cr6   O10   S    
C6    C7    A    
C13   C18   S    
C36   H13   S    
C57   H29   S    
C12   C71   A    
C14   H42   S    
C22   C27   S    
C55   C57   S    
C9    C34   A    
Cr5   O11   S    
C28   O18   A    
C56   C67   A    
C35   H11   S    
C1    O13   A    
C43   C48   A    
C59   O26   A    
C39   C62   S    
C46   C47   S    
C69   H37   S    
C26   H6    S    
C15   H43   S    
C31   C36   S    
C62   O7    A    
C33   H10   S    
C5    H12   S    
C12   C45   S    
Cr5   O26   S    
C65   O5    A    
C53   C58   A    
C39   C44   A    
C28   C58   S    
Cr1   O4    S    
C30   C35   A    
C50   C55   S    
C10   C15   A    
C60   O2    A    
C2    C3    A    
C71   C72   A    
Cr3   O15   S    
C4    O15   A    
C38   C40   S    
C2    H36   S    
C5    C6    A    
Cr4   O25   S    
C70   H40   S    
C16   C19   S    
Cr1   O1    S    
C33   C35   A    
C10   C59   S    
C42   C47   S    
C64   C72   A    
C66   H31   S    
C69   C70   S    
Cr6   O9    S    
C10   C11   A    
C4    O14   A    
C17   H44   S    
C48   C52   S    
C57   H30   S    
C20   C21   A    
Cr4   O24   S    
C18   H2    S    
C49   C50   A    
C2    C23   A    
C25   H5    S    
C14   C15   A    
C33   C38   A    
C40   O12   A    
C4    C9    S    
C30   C63   S    
C60   O27   A    
C72   H4    S    
C18   H46   S    
Cr6   O2    S    
