data_mof_unit_68347.cif
_audit_creation_date              2012-12-11T17:17:04-0500
_audit_creation_method            fapswitch 2.2
_symmetry_space_group_name_H-M    P1
_symmetry_Int_Tables_number       1
_space_group_crystal_system       triclinic
_cell_length_a                    6.97524
_cell_length_b                    13.159976
_cell_length_c                    14.981629
_cell_angle_alpha                 98.445637
_cell_angle_beta                  89.841662
_cell_angle_gamma                 90.715448
_cell_volume                      1360.20347707

loop_
_atom_site_label
_atom_site_type_symbol
_atom_type_description
_atom_site_fract_x
_atom_site_fract_y
_atom_site_fract_z
_atom_type_partial_charge
O1    O     O_R   0.354890 0.151580 0.148210 -0.550424
O2    O     O_R   0.645110 0.848420 0.851790 -0.550422
O3    O     O_R   0.682370 0.152980 0.336770 -0.554585
O4    O     O_R   0.317630 0.847020 0.663230 -0.554586
O5    O     O_R   0.854980 0.348430 0.351800 -0.522679
O6    O     O_R   0.145020 0.651570 0.648200 -0.522678
C1    C     C_R   0.512592 0.126627 0.362135 0.756008
C2    C     C_R   0.487409 0.873374 0.637865 0.756011
O7    O     O_R   0.684450 0.139580 0.148000 -0.530692
O8    O     O_R   0.315550 0.860420 0.852000 -0.530694
O9    O     O_R   0.857080 0.334940 0.161680 -0.495026
O10   O     O_R   0.142920 0.665060 0.838320 -0.495020
C3    C     C_R   0.515226 0.112359 0.114274 0.764174
C4    C     C_R   0.484774 0.887641 0.885726 0.764167
O11   O     O_R   0.352790 0.165070 0.338330 -0.536982
O12   O     O_R   0.647210 0.834930 0.661670 -0.536978
O13   O     O_3   0.522170 0.314120 0.254710 -0.340393
O14   O     O_3   0.477830 0.685880 0.745290 -0.340391
V1    V     V_3+5 0.796120 0.238110 0.249130 1.625280
V2    V     V_3+5 0.203880 0.761890 0.750870 1.625278
O15   O     O_R   0.186930 0.347040 0.163240 -0.540058
O16   O     O_R   0.813070 0.652960 0.836760 -0.540064
C5    C     C_R   0.019132 0.371025 0.135795 0.874350
C6    C     C_R   0.980868 0.628974 0.864204 0.874352
O17   O     O_R   0.184850 0.360440 0.352010 -0.525133
O18   O     O_R   0.815150 0.639560 0.647990 -0.525133
C7    C     C_R   0.016220 0.387458 0.385944 0.783061
C8    C     C_R   0.983780 0.612542 0.614056 0.783059
V3    V     V_3+5 0.296410 0.261900 0.250880 1.638614
V4    V     V_3+5 0.703590 0.738100 0.749120 1.638607
O19   O     O_3   0.020490 0.185890 0.245290 -0.408925
O20   O     O_3   0.979510 0.814110 0.754710 -0.408926
C9    C     C_1   0.005651 0.467047 0.466405 0.003215
C10   C     C_1   0.994349 0.532953 0.533595 0.003211
C11   C     C_3   0.099537 0.586410 0.023489 0.412296
C12   C     C_3   0.900461 0.413586 0.976508 0.412267
C13   C     C_3   0.928333 0.550008 0.076024 0.312843
C14   C     C_3   0.071665 0.449988 0.923973 0.312849
C15   C     C_3   0.011899 0.441285 0.065293 -0.323737
C16   C     C_3   0.988099 0.558712 0.934704 -0.323736
C17   C     C_3   0.186171 0.477541 0.012758 -0.325923
C18   C     C_3   0.813827 0.522455 0.987239 -0.325985
H1    H     H_    0.339008 0.460532 0.023380 0.233396
H2    H     H_    0.660991 0.539465 0.976617 0.233381
C19   C     C_3   0.336169 0.985024 0.453271 -0.013035
C20   C     C_3   0.663834 0.014977 0.546730 -0.013041
C21   C     C_3   0.481471 0.901316 0.466741 0.496515
C22   C     C_3   0.518532 0.098685 0.533260 0.496522
C23   C     C_3   0.497267 0.943960 0.567424 -0.188988
C24   C     C_3   0.502734 0.056040 0.432577 -0.188983
C25   C     C_3   0.350685 0.028443 0.554981 -0.319593
C26   C     C_3   0.649316 0.971558 0.445020 -0.319589
H3    H     H_    0.237294 0.054388 0.603250 0.163563
H4    H     H_    0.762708 0.945613 0.396751 0.163556
C27   C     C_1   0.504575 0.032928 0.033675 -0.102691
C28   C     C_1   0.495425 0.967072 0.966325 -0.102704
S1    S     S_3+6 0.826404 0.615421 0.176583 0.095228
O21   O     O_2   0.670963 0.548392 0.207152 -0.305759
O22   O     O_2   0.977247 0.636270 0.248542 -0.280665
O23   O     O_3   0.732575 0.726774 0.156175 -0.466118
H5    H     H_    0.769218 0.733767 0.093480 0.346375
S2    S     S_3+6 0.173593 0.384578 0.823411 0.095217
O24   O     O_2   0.022741 0.363710 0.751458 -0.280685
O25   O     O_2   0.329001 0.451620 0.792834 -0.305754
O26   O     O_3   0.267472 0.273238 0.843822 -0.466095
H6    H     H_    0.230585 0.266166 0.906469 0.346367
S3    S     S_3+6 0.237348 0.702047 0.047473 0.000215
O27   O     O_2   0.413945 0.693428 0.989372 -0.355492
O28   O     O_2   0.120275 0.791019 0.027399 -0.388465
O29   O     O_3   0.302208 0.721143 0.155891 -0.456805
H7    H     H_    0.379119 0.785530 0.162044 0.378820
S4    S     S_3+6 0.762640 0.297951 0.952527 0.000219
O30   O     O_2   0.879703 0.208978 0.972605 -0.388517
O31   O     O_2   0.586040 0.306576 0.010625 -0.355427
O32   O     O_3   0.697785 0.278851 0.844108 -0.456778
H8    H     H_    0.620905 0.214453 0.837952 0.378833
S5    S     S_3+6 0.464839 0.766138 0.429717 0.014415
O33   O     O_2   0.606815 0.711166 0.480122 -0.321683
O34   O     O_2   0.265499 0.729103 0.447410 -0.350944
O35   O     O_3   0.514115 0.740710 0.319485 -0.458672
H9    H     H_    0.450635 0.673482 0.299988 0.435366
S6    S     S_3+6 0.535165 0.233863 0.570283 0.014412
O36   O     O_2   0.734501 0.270898 0.552584 -0.350942
O37   O     O_2   0.393178 0.288834 0.519883 -0.321689
O38   O     O_3   0.485907 0.259291 0.680517 -0.458668
H10   H     H_    0.549341 0.326533 0.700006 0.435376
C29   C     C_3   0.147230 0.968697 0.402158 -0.351645
C30   C     C_3   0.177290 0.927303 0.302193 -0.288501
C31   C     C_3   0.990895 0.922120 0.248943 -0.626865
H11   H     H_    0.895225 0.862009 0.269805 0.291879
H12   H     H_    0.917276 0.997077 0.259671 0.200325
H13   H     H_    0.021767 0.902034 0.175977 0.260940
H14   H     H_    0.282116 0.975440 0.270942 0.165420
H15   H     H_    0.233561 0.848805 0.296982 0.281888
H16   H     H_    0.061078 0.912332 0.433992 0.209243
H17   H     H_    0.071227 0.043148 0.409193 0.187130
C32   C     C_3   0.852774 0.031303 0.597842 -0.351646
C33   C     C_3   0.822717 0.072704 0.697806 -0.288433
C34   C     C_3   0.009105 0.077870 0.751060 -0.627006
H18   H     H_    0.082708 0.002909 0.740329 0.200361
H19   H     H_    0.104795 0.137977 0.730206 0.291855
H20   H     H_    0.978228 0.097952 0.824026 0.260902
H21   H     H_    0.766479 0.151208 0.703012 0.281907
H22   H     H_    0.717865 0.024580 0.729055 0.165411
H23   H     H_    0.928772 0.956852 0.590809 0.187132
H24   H     H_    0.938929 0.087665 0.566005 0.209237

loop_
_geom_bond_atom_site_label_1
_geom_bond_atom_site_label_2
_ccdc_geom_bond_type
C4    C28   S    
C27   C28   T    
O13   V3    S    
C12   C18   S    
O4    C2    A    
V1    O19   S    
C32   C33   S    
C21   C23   S    
S5    O33   D    
C7    C9    S    
C20   C23   S    
O9    V1    S    
C19   C29   S    
O3    C1    A    
C5    C15   S    
S1    O22   D    
C19   C25   S    
O12   V4    S    
C33   H21   S    
C20   C26   S    
C19   C21   S    
C13   C18   S    
O7    C3    A    
S2    O25   D    
O13   V1    S    
O5    C7    A    
O7    V1    S    
C22   C25   S    
O6    C8    A    
O8    V2    S    
C23   C25   S    
C29   H16   S    
C24   C26   S    
O3    V1    S    
O29   H7    S    
O14   V4    S    
C31   H12   S    
C32   H23   S    
C22   C24   S    
C8    C10   S    
C2    O12   A    
C14   C16   S    
C17   H1    S    
C18   H2    S    
S4    O32   S    
C11   C17   S    
C26   H4    S    
O11   V3    S    
C30   H15   S    
S5    O34   D    
O17   V3    S    
C20   C22   S    
S3    O27   D    
C14   C17   S    
S4    O31   D    
O8    C4    A    
S4    O30   D    
S1    O23   S    
C1    O11   A    
O38   H10   S    
O15   V3    S    
S6    O36   D    
C14   S2    S    
O23   H5    S    
C25   H3    S    
O32   H8    S    
S2    O24   D    
C16   C18   S    
C34   H18   S    
C11   S3    S    
C29   H17   S    
O10   V2    S    
O1    V3    S    
C9    C10   T    
C31   H13   S    
C32   H24   S    
C34   H19   S    
C20   C32   S    
O18   V4    S    
S6    O37   D    
O15   C5    A    
O16   C6    A    
O1    C3    A    
C21   S5    S    
V2    O20   S    
S5    O35   S    
C30   H14   S    
O16   V4    S    
S2    O26   S    
C11   C13   S    
C12   C15   S    
C1    C24   S    
O35   H9    S    
C21   C26   S    
O5    V1    S    
O17   C7    A    
S6    O38   S    
O6    V2    S    
O10   C6    A    
O18   C8    A    
O2    V4    S    
S3    O29   S    
C12   C14   S    
C11   C16   S    
C13   C15   S    
V4    O20   S    
S1    O21   D    
C19   C24   S    
C33   H22   S    
O9    C5    A    
C6    C16   S    
C22   S6    S    
O14   V2    S    
O26   H6    S    
O2    C4    A    
O4    V2    S    
C34   H20   S    
C30   C31   S    
C15   C17   S    
C29   C30   S    
V3    O19   S    
C33   C34   S    
S3    O28   D    
C31   H11   S    
C2    C23   S    
C13   S1    S    
C12   S4    S    
C3    C27   S    
