data_mof_unit_17637.cif
_audit_creation_date              2012-10-26T20:03:21-0400
_audit_creation_method            fapswitch 2.2
_symmetry_space_group_name_H-M    P1
_symmetry_Int_Tables_number       1
_space_group_crystal_system       triclinic
_cell_length_a                    10.605283
_cell_length_b                    12.327919
_cell_length_c                    13.187302
_cell_angle_alpha                 116.656324
_cell_angle_beta                  77.764745
_cell_angle_gamma                 101.050158
_cell_volume                      1496.6347552

loop_
_atom_site_label
_atom_site_type_symbol
_atom_type_description
_atom_site_fract_x
_atom_site_fract_y
_atom_site_fract_z
_atom_type_partial_charge
C1    C     C_R   0.511562 0.854882 0.286602 0.526462
C2    C     C_R   0.499588 0.566543 0.009315 0.031824
C3    C     C_R   0.460423 0.650516 0.123447 0.023984
C4    C     C_R   0.740344 0.999177 0.499664 0.548177
C5    C     C_R   0.456911 0.440222 0.975877 0.028224
C6    C     C_R   0.366334 0.401467 0.052462 0.051337
C7    C     C_R   0.317307 0.487401 0.159196 -0.141298
C8    C     C_R   0.362123 0.610181 0.193642 -0.124845
C9    C     C_R   0.502396 0.350818 0.868708 -0.136487
C10   C     C_R   0.365893 0.190743 0.911262 -0.138883
C11   C     C_R   0.519641 0.772993 0.163549 -0.002697
C12   C     C_3   0.018203 0.013510 0.602661 -0.124601
C13   C     C_R   0.707372 0.346535 0.329158 -0.149023
C14   C     C_R   0.324194 0.759680 0.645062 0.050115
C15   C     C_R   0.286120 0.663254 0.676588 -0.160773
C16   C     C_R   0.480743 0.145115 0.713360 0.544085
C17   C     C_R   0.352271 0.559777 0.621940 -0.137467
C18   C     C_R   0.458157 0.551539 0.534572 -0.006049
C19   C     C_R   0.493868 0.653037 0.505432 0.180029
C20   C     C_R   0.529968 0.447102 0.475304 -0.013547
C21   C     C_R   0.635352 0.446755 0.388693 0.037271
C22   C     C_R   0.668695 0.546450 0.361959 -0.176227
C23   C     C_3   0.933439 0.906097 0.521325 -0.115449
C24   C     C_R   0.599832 0.647183 0.419100 -0.099893
C25   C     C_R   0.502470 0.342156 0.497743 0.038883
C26   C     C_R   0.675370 0.246583 0.355401 0.042797
C27   C     C_R   0.259685 0.000533 0.499953 0.547431
C28   C     C_3   0.981813 0.985593 0.396414 -0.127052
C29   C     C_3   0.040469 0.893593 0.418076 -0.125921
C30   C     C_3   0.122893 0.000976 0.499432 0.046497
C31   C     C_3   0.066574 0.093012 0.477740 -0.112281
C32   C     C_3   0.959609 0.105518 0.581003 -0.121483
C33   C     C_3   0.877149 0.998207 0.499680 0.045011
C34   C     C_R   0.323297 0.277068 0.020257 -0.132820
C35   C     C_R   0.453318 0.228187 0.834421 -0.002233
C36   C     C_R   0.599003 0.814651 0.085668 -0.135205
C37   C     C_R   0.625315 0.735521 0.970887 -0.142390
C38   C     C_R   0.578647 0.612529 0.932948 -0.122097
Cu1   Cu    Cu3+1 0.529830 0.098270 0.475420 0.920389
Cu2   Cu    Cu3+1 0.470170 0.901730 0.524580 0.908516
H1    H     H_    0.076950 0.807065 0.351416 0.103012
H2    H     H_    0.424191 0.334394 0.561943 0.118488
H3    H     H_    0.272359 0.839664 0.687999 0.122286
H4    H     H_    0.963546 0.973993 0.312088 0.103191
H5    H     H_    0.318606 0.487959 0.649828 0.098474
H6    H     H_    0.205044 0.668732 0.743629 0.100115
H7    H     H_    0.633768 0.718675 0.392491 0.184034
H8    H     H_    0.123738 0.169597 0.459963 0.118960
H9    H     H_    0.923222 0.192056 0.647697 0.109980
H10   H     H_    0.036463 0.025096 0.686988 0.103547
H11   H     H_    0.876192 0.829461 0.538981 0.121820
H12   H     H_    0.575361 0.373942 0.808967 0.117035
H13   H     H_    0.243915 0.459630 0.216529 0.105162
H14   H     H_    0.253863 0.247037 0.078237 0.103081
H15   H     H_    0.326514 0.095912 0.885564 0.118993
H16   H     H_    0.643648 0.908235 0.113967 0.124980
H17   H     H_    0.603845 0.556733 0.842791 0.104109
H18   H     H_    0.685761 0.768967 0.911380 0.116264
H19   H     H_    0.315802 0.672937 0.274882 0.147395
H20   H     H_    0.730517 0.168861 0.309794 0.116770
H21   H     H_    0.749438 0.546878 0.296006 0.107610
H22   H     H_    0.788010 0.345606 0.262794 0.088326
N1    N     N_R   0.575030 0.246270 0.438190 -0.232975
N2    N     N_R   0.425760 0.754330 0.561190 -0.235438
O1    O     O_R   0.537510 0.972500 0.318130 -0.502757
O2    O     O_R   0.487140 0.806530 0.359650 -0.527448
O3    O     O_R   0.708330 0.082950 0.479220 -0.501922
O4    O     O_R   0.657960 0.916980 0.520740 -0.522321
O5    O     O_R   0.512860 0.193470 0.640350 -0.508915
O6    O     O_R   0.462490 0.027500 0.681870 -0.503795
O7    O     O_R   0.342040 0.083020 0.479260 -0.506601
O8    O     O_R   0.291670 0.917050 0.520780 -0.513771

loop_
_geom_bond_atom_site_label_1
_geom_bond_atom_site_label_2
_ccdc_geom_bond_type
C1    C11   S    
C7    C8    A    
C12   C23   S    
C37   C38   A    
Cu2   O6    S    
C23   C29   S    
C36   C37   A    
C17   H5    S    
C8    H19   S    
C5    C6    A    
C20   C25   A    
C18   C19   A    
C25   N1    A    
C13   H22   S    
C23   C33   S    
C1    O1    A    
C10   C35   A    
C37   H18   S    
C12   C30   S    
Cu2   O2    S    
C21   C22   A    
C12   C32   S    
C27   C30   S    
Cu1   O1    S    
C9    H12   S    
C17   C18   A    
C16   O6    A    
C3    C8    A    
Cu1   Cu2   S    
C4    O4    A    
C28   H4    S    
C6    C34   A    
C11   C36   A    
C26   N1    A    
C5    C9    A    
C29   C30   S    
C36   H16   S    
C38   H17   S    
C2    C38   A    
C23   H11   S    
C31   C32   S    
C19   N2    A    
C14   N2    A    
C1    O2    A    
Cu1   O5    S    
C13   C21   A    
C10   C34   A    
C10   H15   S    
C28   C33   S    
C34   H14   S    
C31   H8    S    
C22   C24   A    
C13   C26   A    
C2    C5    A    
C7    H13   S    
C27   O7    A    
C15   C17   A    
C4    C33   S    
C28   C29   S    
Cu2   O8    S    
C29   H1    S    
C24   H7    S    
Cu1   O3    S    
C28   C31   S    
C16   O5    A    
C25   H2    S    
C4    O3    A    
C12   H10   S    
C6    C7    A    
Cu1   N1    S    
Cu2   N2    S    
C32   C33   S    
C19   C24   A    
C16   C35   S    
C22   H21   S    
C30   C31   S    
C2    C3    A    
C18   C20   A    
C32   H9    S    
C3    C11   A    
C20   C21   A    
Cu2   O4    S    
C9    C35   A    
Cu1   O7    S    
C14   C15   A    
C15   H6    S    
C26   H20   S    
C27   O8    A    
C14   H3    S    
