data_mof_unit_49269.cif
_audit_creation_date              2012-12-10T20:53:47-0500
_audit_creation_method            fapswitch 2.2
_symmetry_space_group_name_H-M    P1
_symmetry_Int_Tables_number       1
_space_group_crystal_system       triclinic
_cell_length_a                    10.539318
_cell_length_b                    15.793398
_cell_length_c                    15.07635
_cell_angle_alpha                 90.096685
_cell_angle_beta                  102.388909
_cell_angle_gamma                 90.089547
_cell_volume                      2451.03873038

loop_
_atom_site_label
_atom_site_type_symbol
_atom_type_description
_atom_site_fract_x
_atom_site_fract_y
_atom_site_fract_z
_atom_type_partial_charge
C1    C     C_R   0.500353 0.338531 0.500057 1.006090
C2    C     C_1   0.501286 0.501626 0.193109 0.245682
C3    C     C_R   0.256707 0.497071 0.463666 0.923783
C4    C     C_R   0.743627 0.497615 0.536408 0.938287
C5    C     C_2   0.116372 0.484503 0.446205 -0.257274
C6    C     C_2   0.884351 0.484441 0.554227 -0.273986
C7    C     C_2   0.068791 0.426243 0.497105 -0.056099
C8    C     C_2   0.932280 0.426099 0.503030 -0.087523
C9    C     C_R   0.532874 0.953696 0.589299 0.449169
C10   C     C_R   0.605957 0.045917 0.449305 0.460659
C11   C     C_R   0.556790 0.912422 0.512204 -0.145457
C12   C     C_R   0.500375 0.661363 0.500100 0.911080
C13   C     C_R   0.557061 0.087292 0.517335 -0.139182
C14   C     C_R   0.595375 0.957350 0.441616 -0.203520
C15   C     C_R   0.522151 0.042174 0.589073 -0.203585
C16   C     C_1   0.534881 0.823826 0.505995 0.130989
C17   C     C_1   0.535805 0.175927 0.509088 0.120016
C18   C     C_1   0.517297 0.250158 0.503292 -0.068587
C19   C     C_1   0.516631 0.749559 0.502576 -0.115901
C20   C     C_2   0.852272 0.358847 0.448557 0.974726
C21   C     C_2   0.147472 0.355200 0.544091 0.966608
C22   C     C_2   0.968499 0.541180 0.621599 0.910857
C23   C     C_R   0.493230 0.426305 0.952063 0.330892
C24   C     C_2   0.032215 0.542044 0.380735 0.920093
C25   C     C_2   0.471360 0.085180 0.662419 0.922740
C26   C     C_2   0.618882 0.913957 0.358669 0.939131
C27   C     C_3   0.621423 0.911279 0.734726 0.114327
C28   C     C_3   0.728907 0.850111 0.721406 -0.394104
C29   C     C_3   0.849258 0.859692 0.797629 -0.920424
C30   C     C_3   0.793144 0.083730 0.403073 0.112897
C31   C     C_3   0.865088 0.116081 0.496952 -0.421172
C32   C     C_3   0.010573 0.125536 0.501857 -0.853592
C33   C     C_3   0.621905 0.325431 0.139013 0.114075
C34   C     C_R   0.509214 0.580062 0.049069 0.371658
C35   C     C_3   0.690202 0.271474 0.078827 -0.326182
C36   C     C_3   0.817898 0.235691 0.132917 -0.925000
C37   C     C_3   0.644578 0.664138 0.879395 0.074311
C38   C     C_3   0.767336 0.620218 0.935621 -0.474481
C39   C     C_3   0.889077 0.645040 0.902407 -0.844527
C40   C     C_3   0.342345 0.330643 0.884864 0.120930
C41   C     C_3   0.319638 0.251254 0.825667 -0.291202
C42   C     C_3   0.178571 0.221643 0.810466 -0.903656
C43   C     C_3   0.591161 0.710097 0.110083 0.146098
C44   C     C_3   0.701132 0.677279 0.185556 -0.452512
C45   C     C_R   0.504857 0.502471 0.905795 -0.293065
C46   C     C_3   0.814483 0.739755 0.204869 -0.839675
C47   C     C_R   0.504670 0.502731 0.095582 -0.285915
C48   C     C_R   0.517731 0.579702 0.955592 0.371871
C49   C     C_R   0.503203 0.425868 0.047348 0.327105
C50   C     C_1   0.501292 0.500785 0.807284 0.236458
H1    H     H_    0.824541 0.282333 0.338847 0.329691
H2    H     H_    0.757601 0.863287 0.656099 0.233102
H3    H     H_    0.891458 0.924036 0.796092 0.271574
H4    H     H_    0.923293 0.812420 0.788499 0.290222
H5    H     H_    0.824121 0.849689 0.864683 0.249851
H6    H     H_    0.826746 0.120666 0.349825 0.172432
H7    H     H_    0.820552 0.016888 0.393843 0.137122
H8    H     H_    0.825186 0.178060 0.511552 0.279128
H9    H     H_    0.850686 0.070861 0.550365 0.209590
H10   H     H_    0.053103 0.063725 0.488513 0.267352
H11   H     H_    0.059468 0.147798 0.570643 0.279645
H12   H     H_    0.265521 0.257335 0.535170 0.329164
H13   H     H_    0.028369 0.172640 0.451246 0.284998
H14   H     H_    0.609219 0.286723 0.197992 0.186816
H15   H     H_    0.684717 0.380202 0.167614 0.131265
H16   H     H_    0.625694 0.218268 0.049046 0.252582
H17   H     H_    0.710850 0.310819 0.022540 0.236651
H18   H     H_    0.883987 0.287867 0.163329 0.287382
H19   H     H_    0.866075 0.198272 0.087161 0.271202
H20   H     H_    0.799555 0.193530 0.187732 0.264413
H21   H     H_    0.666015 0.732872 0.877785 0.172143
H22   H     H_    0.626754 0.642905 0.807633 0.165272
H23   H     H_    0.143640 0.563789 0.703573 0.347891
H24   H     H_    0.781536 0.637508 0.008356 0.225101
H25   H     H_    0.756971 0.550367 0.929537 0.224169
H26   H     H_    0.912526 0.712644 0.917835 0.261312
H27   H     H_    0.875016 0.633950 0.828152 0.292155
H28   H     H_    0.972484 0.606371 0.937919 0.270654
H29   H     H_    0.283557 0.383171 0.847269 0.150326
H30   H     H_    0.308802 0.317977 0.948817 0.178918
H31   H     H_    0.344017 0.265002 0.758975 0.274250
H32   H     H_    0.384229 0.199789 0.859227 0.229325
H33   H     H_    0.155792 0.201078 0.875741 0.256839
H34   H     H_    0.855789 0.565716 0.302378 0.335798
H35   H     H_    0.162713 0.167355 0.762470 0.268978
H36   H     H_    0.111410 0.273477 0.781430 0.303188
H37   H     H_    0.556445 0.770812 0.133557 0.174989
H38   H     H_    0.627752 0.726357 0.048876 0.166433
H39   H     H_    0.663989 0.667486 0.248450 0.266181
H40   H     H_    0.736805 0.615891 0.164572 0.199234
H41   H     H_    0.857276 0.746644 0.144036 0.250850
H42   H     H_    0.890752 0.716349 0.262027 0.302421
H43   H     H_    0.781549 0.802704 0.223658 0.276285
H44   H     H_    0.355059 0.078130 0.752520 0.331094
H45   H     H_    0.612068 0.920443 0.223989 0.323519
H46   H     H_    0.589869 0.893201 0.797848 0.178132
H47   H     H_    0.660750 0.976913 0.746081 0.126499
H48   H     H_    0.692494 0.783923 0.719691 0.235026
N1    N     N_1   0.499960 0.500020 0.270540 -0.092760
N2    N     N_1   0.500040 0.499980 0.729460 -0.093259
O1    O     O_R   0.500000 0.378020 0.573650 -0.600688
O2    O     O_R   0.885478 0.328541 0.369337 -0.786553
O3    O     O_2   0.136663 0.334362 0.620157 -0.627916
O4    O     O_R   0.225469 0.308078 0.498536 -0.839725
O5    O     O_2   0.923042 0.606061 0.646421 -0.644956
O6    O     O_R   0.097908 0.520130 0.658408 -0.773257
O7    O     O_2   0.077586 0.607262 0.356611 -0.631620
O8    O     O_R   0.902564 0.521011 0.344848 -0.784943
O9    O     O_2   0.510487 0.155592 0.689204 -0.654339
O10   O     O_R   0.379797 0.043978 0.701937 -0.757598
O11   O     O_2   0.662438 0.842002 0.363109 -0.648899
O12   O     O_R   0.500000 0.621980 0.426350 -0.594313
O13   O     O_R   0.591965 0.956095 0.275218 -0.761155
O14   O     O_3   0.511351 0.905906 0.661888 -0.588813
O15   O     O_3   0.656291 0.094163 0.388008 -0.596848
O16   O     O_3   0.496548 0.349333 0.090842 -0.619760
O17   O     O_3   0.528387 0.656555 0.913225 -0.622705
O18   O     O_3   0.476114 0.350927 0.904144 -0.613330
O19   O     O_3   0.483466 0.654224 0.091920 -0.597479
O20   O     O_R   0.500060 0.378020 0.426320 -0.587987
O21   O     O_R   0.499940 0.621980 0.573680 -0.615835
O22   O     O_R   0.317790 0.500010 0.546150 -0.590891
O23   O     O_R   0.682210 0.499990 0.453850 -0.587816
O24   O     O_R   0.317850 0.500010 0.398830 -0.583613
O25   O     O_R   0.682150 0.499990 0.601170 -0.599838
O26   O     O_2   0.761510 0.327382 0.474883 -0.689524
Zn1   Zn    Zn3+2 0.499960 0.500000 0.598370 1.028091
Zn2   Zn    Zn3+2 0.500040 0.500000 0.401630 1.043258

loop_
_geom_bond_atom_site_label_1
_geom_bond_atom_site_label_2
_ccdc_geom_bond_type
C40   O18   S    
C23   C45   A    
N2    Zn1   S    
C41   C42   S    
C35   C36   S    
C23   O18   S    
O23   Zn2   S    
C33   H15   S    
C7    C8    S    
C47   C49   A    
C36   H19   S    
H1    O2    S    
C46   H43   S    
C1    C18   S    
C8    C20   S    
C4    O25   A    
C9    O14   S    
C39   H27   S    
C31   H8    S    
C28   C29   S    
C32   H11   S    
O21   Zn1   S    
C33   H14   S    
C30   C31   S    
C11   C14   A    
C23   C49   A    
C20   O2    S    
C29   H4    S    
C6    C22   S    
C30   H7    S    
C31   H9    S    
O22   Zn1   S    
O1    Zn1   S    
C21   O4    S    
C12   O21   A    
C44   C46   S    
C40   H30   S    
C42   H36   S    
C3    O22   A    
C25   O9    D    
O24   Zn2   S    
C27   H46   S    
C36   H20   S    
H12   O4    S    
C38   H25   S    
C39   H28   S    
C4    C6    S    
C10   C14   A    
C42   H35   S    
C6    C8    D    
C46   H41   S    
C29   H5    S    
C35   H16   S    
C22   O6    S    
C30   H6    S    
H44   O10   S    
C4    O23   A    
C1    O20   A    
C43   C44   S    
C20   O26   D    
C37   C38   S    
C11   C16   S    
C31   C32   S    
C35   H17   S    
C41   H31   S    
C36   H18   S    
C17   C18   T    
C40   H29   S    
C37   O17   S    
C24   O7    D    
C39   H26   S    
C14   C26   S    
C9    C11   A    
C48   O17   S    
C25   O10   S    
C24   O8    S    
C40   C41   S    
C2    N1    T    
C37   H21   S    
C34   C48   A    
C43   H38   S    
C1    O1    A    
C12   O12   A    
C44   H40   S    
C3    O24   A    
C5    C7    D    
C38   H24   S    
C45   C48   A    
C28   H48   S    
C34   O19   S    
C27   H47   S    
C33   O16   S    
C42   H33   S    
C32   H13   S    
C3    C5    S    
C10   C13   A    
C30   O15   S    
O20   Zn2   S    
N1    Zn2   S    
C2    C47   S    
C22   O5    D    
C50   N2    T    
C13   C17   S    
C43   H37   S    
C13   C15   A    
C9    C15   A    
C26   O13   S    
C7    C21   S    
C28   H2    S    
H23   O6    S    
C38   C39   S    
C5    C24   S    
C29   H3    S    
C45   C50   S    
H45   O13   S    
C16   C19   T    
C41   H32   S    
C12   C19   S    
C33   C35   S    
O12   Zn2   S    
C15   C25   S    
C10   O15   S    
C21   O3    D    
C27   O14   S    
H34   O8    S    
C49   O16   S    
C46   H42   S    
C37   H22   S    
C27   C28   S    
O25   Zn1   S    
C32   H10   S    
C34   C47   A    
C26   O11   D    
C44   H39   S    
C43   O19   S    
