data_mof_unit_30568.cif
_audit_creation_date              2012-12-11T16:28:24-0500
_audit_creation_method            fapswitch 2.2
_symmetry_space_group_name_H-M    P1
_symmetry_Int_Tables_number       1
_space_group_crystal_system       triclinic
_cell_length_a                    16.511326
_cell_length_b                    7.254913
_cell_length_c                    15.277174
_cell_angle_alpha                 89.997576
_cell_angle_beta                  94.602929
_cell_angle_gamma                 90.001294
_cell_volume                      1824.12344623

loop_
_atom_site_label
_atom_site_type_symbol
_atom_type_description
_atom_site_fract_x
_atom_site_fract_y
_atom_site_fract_z
_atom_type_partial_charge
O1    O     O_R   0.663460 0.361760 0.165970 -0.538486
O2    O     O_R   0.336540 0.638240 0.834030 -0.538514
O3    O     O_R   0.836540 0.861760 0.334030 -0.538540
O4    O     O_R   0.163460 0.138240 0.665970 -0.538551
O5    O     O_R   0.827100 0.689870 0.163730 -0.532359
O6    O     O_R   0.172900 0.310130 0.836270 -0.532379
O7    O     O_R   0.672900 0.189870 0.336270 -0.532333
O8    O     O_R   0.327100 0.810130 0.663730 -0.532345
H1    H     H_    0.203474 0.847174 0.505546 0.137608
H2    H     H_    0.796523 0.152825 0.494454 0.137607
H3    H     H_    0.296347 0.348472 0.994502 0.137313
H4    H     H_    0.703599 0.651931 0.005515 0.137416
C1    C     C_R   0.853164 0.522909 0.143480 0.743994
C2    C     C_R   0.146837 0.477091 0.856520 0.743980
C3    C     C_R   0.646837 0.022902 0.356520 0.744104
C4    C     C_R   0.353163 0.977099 0.643480 0.744090
O9    O     O_R   0.663490 0.691370 0.155500 -0.522986
O10   O     O_R   0.336510 0.308630 0.844500 -0.522971
O11   O     O_R   0.836510 0.191370 0.344500 -0.523017
O12   O     O_R   0.163490 0.808630 0.655500 -0.523019
O13   O     O_R   0.671770 0.863320 0.325740 -0.519004
O14   O     O_R   0.328230 0.136680 0.674260 -0.518982
O15   O     O_R   0.828230 0.363320 0.174260 -0.518965
O16   O     O_R   0.171770 0.636680 0.825740 -0.518939
C5    C     C_R   0.635185 0.523687 0.134769 0.681751
C6    C     C_R   0.364818 0.476315 0.865226 0.681802
C7    C     C_R   0.864796 0.023683 0.365255 0.681828
C8    C     C_R   0.135203 0.976317 0.634747 0.681888
H5    H     H_    0.123978 0.847301 0.235801 0.195096
H6    H     H_    0.876033 0.152898 0.764193 0.195139
H7    H     H_    0.375723 0.349499 0.264290 0.195407
H8    H     H_    0.624201 0.651108 0.735736 0.195373
O17   O     O_3   0.752910 0.528800 0.305860 -0.376733
O18   O     O_3   0.247090 0.471200 0.694140 -0.376729
O19   O     O_3   0.747090 0.028800 0.194140 -0.376700
O20   O     O_3   0.252910 0.971200 0.805860 -0.376712
V1    V     V_3+5 0.749460 0.803010 0.239640 1.530638
V2    V     V_3+5 0.250540 0.196990 0.760360 1.530607
V3    V     V_3+5 0.750540 0.303010 0.260360 1.530737
V4    V     V_3+5 0.249460 0.696990 0.739640 1.530690
C9    C     C_1   0.468775 0.994824 0.530062 0.079094
C10   C     C_1   0.531226 0.005174 0.469939 0.079069
C11   C     C_1   0.031227 0.494815 0.969941 0.079417
C12   C     C_1   0.968775 0.505185 0.030062 0.079362
C13   C     C_R   0.034930 0.946175 0.320806 -0.097405
C14   C     C_R   0.965071 0.053925 0.679198 -0.097395
C15   C     C_R   0.464958 0.447142 0.179223 -0.097473
C16   C     C_R   0.535023 0.553069 0.820781 -0.097467
C17   C     C_R   0.109273 0.867621 0.303047 -0.124982
C18   C     C_R   0.890731 0.132506 0.696949 -0.125013
C19   C     C_R   0.390486 0.369301 0.197031 -0.124877
C20   C     C_R   0.609456 0.631138 0.802990 -0.124906
C21   C     C_R   0.167992 0.829142 0.370388 0.444616
C22   C     C_R   0.832011 0.170944 0.629606 0.444597
C23   C     C_R   0.331726 0.330986 0.129708 0.444601
C24   C     C_R   0.668196 0.669544 0.870320 0.444584
C25   C     C_R   0.153803 0.871143 0.456484 -0.206605
C26   C     C_R   0.846195 0.128879 0.543516 -0.206600
C27   C     C_R   0.346025 0.372329 0.043571 -0.206643
C28   C     C_R   0.653932 0.627995 0.956444 -0.206653
C29   C     C_R   0.077597 0.939497 0.478487 0.010285
C30   C     C_R   0.922399 0.060511 0.521518 0.010289
C31   C     C_R   0.422331 0.440026 0.021537 0.010339
C32   C     C_R   0.577657 0.560084 0.978467 0.010352
C33   C     C_R   0.014734 0.968255 0.409942 0.011355
C34   C     C_R   0.985264 0.031774 0.590064 0.011338
C35   C     C_R   0.485205 0.468722 0.090079 0.011227
C36   C     C_R   0.514788 0.531358 0.909921 0.011236
C37   C     C_R   0.064512 0.980495 0.567358 -0.104178
C38   C     C_R   0.935484 0.019507 0.432648 -0.104158
C39   C     C_R   0.435489 0.480516 0.932638 -0.104177
C40   C     C_R   0.564510 0.519502 0.067359 -0.104169
C41   C     C_1   0.415869 0.986300 0.581359 -0.086068
C42   C     C_1   0.584131 0.013700 0.418641 -0.086131
C43   C     C_1   0.084132 0.486284 0.918644 -0.085791
C44   C     C_1   0.915869 0.513717 0.081358 -0.085872
Cl1   Cl    Cl    0.737470 0.260125 0.653887 -0.601284
Cl2   Cl    Cl    0.262541 0.740024 0.346096 -0.601365
Cl3   Cl    Cl    0.762858 0.757957 0.845987 -0.600989
Cl4   Cl    Cl    0.236991 0.243028 0.154065 -0.600982
C45   C     C_2   0.988616 0.030257 0.244267 0.779485
O21   O     O_2   0.971441 0.193951 0.245677 -0.545508
O22   O     O_R   0.970978 0.926943 0.167933 -0.659516
H9    H     H_    0.940940 0.001239 0.119356 0.300816
C46   C     C_2   0.011397 0.969956 0.755757 0.779443
O23   O     O_2   0.028593 0.806269 0.754392 -0.545540
O24   O     O_R   0.029018 0.073370 0.832063 -0.659542
H10   H     H_    0.059076 0.999159 0.880656 0.300814
C47   C     C_2   0.511355 0.531248 0.255691 0.779196
O25   O     O_2   0.528537 0.694931 0.254208 -0.545610
O26   O     O_R   0.529062 0.428021 0.332042 -0.659372
H11   H     H_    0.559156 0.502380 0.380555 0.300851
C48   C     C_2   0.488642 0.469005 0.744288 0.779256
O27   O     O_2   0.471456 0.305320 0.745738 -0.545606
O28   O     O_R   0.470950 0.572297 0.667954 -0.659412
H12   H     H_    0.440872 0.497989 0.619413 0.300860

loop_
_geom_bond_atom_site_label_1
_geom_bond_atom_site_label_2
_ccdc_geom_bond_type
C26   C30   A    
O24   H10   S    
C48   O27   D    
C23   C27   A    
C9    C10   S    
O28   H12   S    
O10   C6    A    
C45   O21   D    
H5    C17   S    
C46   O23   D    
C30   C38   A    
C18   C22   A    
C24   Cl3   S    
O18   V4    S    
C32   C36   A    
O19   V1    S    
C14   C34   A    
O5    V1    S    
O12   V4    S    
C17   C21   A    
C34   C37   A    
C33   C38   A    
O14   V2    S    
C1    O15   A    
C35   C40   A    
C2    O16   A    
C12   C44   T    
H8    C20   S    
O4    C8    A    
O17   V3    S    
C8    C37   S    
O6    V2    S    
C47   O26   S    
O11   C7    A    
O5    C1    A    
C22   Cl1   S    
O7    C3    A    
H6    C18   S    
C48   O28   S    
O1    C5    A    
C6    C39   S    
C15   C47   S    
H3    C27   S    
C15   C35   A    
C45   O22   S    
C46   O24   S    
C11   C43   T    
C31   C35   A    
C10   C42   T    
C16   C48   S    
C30   C34   A    
C4    C41   S    
H7    C19   S    
O26   H11   S    
C21   C25   A    
C15   C19   A    
O12   C8    A    
C19   C23   A    
C24   C28   A    
C11   C12   S    
C29   C33   A    
O6    C2    A    
O22   H9    S    
C1    C44   S    
C13   C17   A    
O2    C6    A    
C5    C40   S    
O9    V1    S    
C16   C36   A    
C7    C38   S    
O11   V3    S    
O4    V2    S    
C13   C33   A    
C22   C26   A    
C29   C37   A    
C4    O14   A    
H2    C26   S    
C13   C45   S    
C31   C39   A    
C25   C29   A    
C14   C18   A    
C27   C31   A    
C28   C32   A    
O9    C5    A    
C2    C43   S    
C14   C46   S    
O20   V2    S    
C21   Cl2   S    
O10   V2    S    
C23   Cl4   S    
C3    O13   A    
C36   C39   A    
O15   V3    S    
O3    C7    A    
O16   V4    S    
H1    C25   S    
C32   C40   A    
O1    V3    S    
C9    C41   T    
H4    C28   S    
O2    V4    S    
C16   C20   A    
C3    C42   S    
O13   V1    S    
O3    V1    S    
O8    C4    A    
O7    V3    S    
O8    V4    S    
C47   O25   D    
C20   C24   A    
