data_mof_unit_46145.cif
_audit_creation_date              2013-03-05T15:49:58-0500
_audit_creation_method            fapswitch 2.2
_symmetry_space_group_name_H-M    P1
_symmetry_Int_Tables_number       1
_space_group_crystal_system       triclinic
_cell_length_a                    17.203779
_cell_length_b                    17.151948
_cell_length_c                    17.510332
_cell_angle_alpha                 90.250533
_cell_angle_beta                  90.063573
_cell_angle_gamma                 89.961982
_cell_volume                      5166.86570172

loop_
_atom_site_label
_atom_site_type_symbol
_atom_site_description
_atom_site_fract_x
_atom_site_fract_y
_atom_site_fract_z
_atom_type_partial_charge
C1    C     C_R   0.413624 0.678568 0.638283 -0.140280
C2    C     C_R   0.586364 0.321437 0.361708 -0.140307
C3    C     C_R   0.678888 0.585174 0.638091 -0.152773
C4    C     C_R   0.321066 0.414779 0.361954 -0.152775
C5    C     C_R   0.606443 0.301689 0.604175 -0.149743
C6    C     C_R   0.393553 0.698308 0.395828 -0.149697
C7    C     C_R   0.303329 0.394833 0.608132 -0.141167
C8    C     C_R   0.696581 0.605082 0.391601 -0.141339
C9    C     C_R   0.410188 0.318586 0.364439 -0.138854
C10   C     C_R   0.589779 0.681372 0.635607 -0.138839
C11   C     C_R   0.673612 0.418871 0.357873 -0.151203
C12   C     C_R   0.326397 0.581115 0.642129 -0.151372
C13   C     C_R   0.602981 0.696307 0.389318 -0.166274
C14   C     C_R   0.396889 0.303594 0.610391 -0.166235
C15   C     C_R   0.301753 0.606169 0.395896 -0.151833
C16   C     C_R   0.698248 0.393823 0.604103 -0.151783
C17   C     C_R   0.897267 0.196506 0.111116 -0.138529
C18   C     C_R   0.102731 0.803498 0.888874 -0.138550
C19   C     C_R   0.198245 0.107762 0.102941 -0.157225
C20   C     C_R   0.801751 0.892231 0.897065 -0.157313
C21   C     C_R   0.090308 0.818687 0.135193 -0.149831
C22   C     C_R   0.909772 0.181239 0.864722 -0.149721
C23   C     C_R   0.820867 0.915526 0.137615 -0.138972
C24   C     C_R   0.179354 0.084679 0.862594 -0.138854
C25   C     C_R   0.894727 0.801277 0.895728 -0.144100
C26   C     C_R   0.105270 0.198719 0.104277 -0.144104
C27   C     C_R   0.195851 0.895250 0.889383 -0.165580
C28   C     C_R   0.804142 0.104764 0.110593 -0.165631
C29   C     C_R   0.087980 0.178708 0.862294 -0.145516
C30   C     C_R   0.912224 0.821505 0.137913 -0.144946
C31   C     C_R   0.820500 0.085187 0.862449 -0.141655
C32   C     C_R   0.179547 0.914769 0.137504 -0.141712
H1    H     H_    0.439504 0.735025 0.647294 0.088090
H2    H     H_    0.560468 0.264989 0.352687 0.088106
H3    H     H_    0.729823 0.550983 0.651618 0.096144
H4    H     H_    0.270117 0.448955 0.348440 0.096137
H5    H     H_    0.577552 0.245723 0.606031 0.094012
H6    H     H_    0.422442 0.754275 0.393966 0.093993
H7    H     H_    0.246746 0.422299 0.607895 0.085988
H8    H     H_    0.753189 0.577671 0.391841 0.086002
H9    H     H_    0.436673 0.262381 0.355296 0.090615
H10   H     H_    0.563296 0.737574 0.644767 0.090651
H11   H     H_    0.723253 0.453979 0.342652 0.095444
H12   H     H_    0.276776 0.545978 0.657355 0.095460
H13   H     H_    0.572953 0.751559 0.385245 0.091469
H14   H     H_    0.426924 0.248345 0.614453 0.091467
H15   H     H_    0.245763 0.577573 0.395829 0.091270
H16   H     H_    0.754241 0.422412 0.604159 0.091276
H17   H     H_    0.926472 0.252294 0.112878 0.088226
H18   H     H_    0.073529 0.747708 0.887115 0.088246
H19   H     H_    0.254637 0.079838 0.103585 0.093619
H20   H     H_    0.745358 0.920152 0.896431 0.093633
H21   H     H_    0.063798 0.762655 0.144582 0.089828
H22   H     H_    0.936327 0.237238 0.855276 0.089899
H23   H     H_    0.768696 0.948510 0.149205 0.093092
H24   H     H_    0.231539 0.051700 0.851049 0.092960
H25   H     H_    0.924487 0.745729 0.894599 0.090338
H26   H     H_    0.075509 0.254267 0.105415 0.090359
H27   H     H_    0.252177 0.923022 0.887309 0.087740
H28   H     H_    0.747810 0.077001 0.112651 0.087734
H29   H     H_    0.059271 0.232960 0.850147 0.087104
H30   H     H_    0.940900 0.767242 0.150084 0.087131
H31   H     H_    0.769518 0.050820 0.849439 0.095372
H32   H     H_    0.230531 0.949138 0.150509 0.095359
N1    N     N_R   0.424590 0.632770 0.578330 -0.037121
N2    N     N_R   0.575410 0.367230 0.421670 -0.037124
N3    N     N_R   0.632770 0.575410 0.578330 -0.037329
N4    N     N_R   0.367230 0.424590 0.421670 -0.037295
N5    N     N_R   0.575410 0.367230 0.578330 -0.035935
N6    N     N_R   0.424590 0.632770 0.421670 -0.035919
N7    N     N_R   0.367230 0.424590 0.578330 -0.035866
N8    N     N_R   0.632770 0.575410 0.421670 -0.035861
N9    N     N_R   0.424590 0.367230 0.421670 -0.037653
N10   N     N_R   0.575410 0.632770 0.578330 -0.037706
N11   N     N_R   0.632770 0.424590 0.421670 -0.041202
N12   N     N_R   0.367230 0.575410 0.578330 -0.041211
N13   N     N_R   0.575410 0.632770 0.421670 -0.034901
N14   N     N_R   0.424590 0.367230 0.578330 -0.034868
N15   N     N_R   0.367230 0.575410 0.421670 -0.036480
N16   N     N_R   0.632770 0.424590 0.578330 -0.036487
N17   N     N_R   0.924590 0.132770 0.078330 -0.037560
N18   N     N_R   0.075410 0.867230 0.921670 -0.037567
N19   N     N_R   0.132770 0.075410 0.078330 -0.036055
N20   N     N_R   0.867230 0.924590 0.921670 -0.036044
N21   N     N_R   0.075410 0.867230 0.078330 -0.036478
N22   N     N_R   0.924590 0.132770 0.921670 -0.036503
N23   N     N_R   0.867230 0.924590 0.078330 -0.037429
N24   N     N_R   0.132770 0.075410 0.921670 -0.037364
N25   N     N_R   0.924590 0.867230 0.921670 -0.037443
N26   N     N_R   0.075410 0.132770 0.078330 -0.037444
N27   N     N_R   0.132770 0.924590 0.921670 -0.034704
N28   N     N_R   0.867230 0.075410 0.078330 -0.034681
N29   N     N_R   0.075410 0.132770 0.921670 -0.038493
N30   N     N_R   0.924590 0.867230 0.078330 -0.038608
N31   N     N_R   0.867230 0.075410 0.921670 -0.039143
N32   N     N_R   0.132770 0.924590 0.078330 -0.039129
C33   C     C_3   0.309426 0.311281 0.264489 0.105352
C34   C     C_3   0.690519 0.688639 0.735601 0.105344
C35   C     C_3   0.267728 0.731285 0.335304 0.106347
C36   C     C_3   0.732296 0.268672 0.664651 0.106292
C37   C     C_3   0.727587 0.729430 0.328257 0.135295
C38   C     C_3   0.272286 0.270505 0.671425 0.135567
C39   C     C_3   0.687923 0.313137 0.264152 0.123643
C40   C     C_3   0.312067 0.686864 0.735836 0.123692
C41   C     C_3   0.769527 0.765593 0.836672 0.106319
C42   C     C_3   0.230443 0.234367 0.163382 0.106330
C43   C     C_3   0.808355 0.189115 0.765444 0.104952
C44   C     C_3   0.191718 0.810811 0.234465 0.104956
C45   C     C_3   0.193046 0.188822 0.767706 0.123907
C46   C     C_3   0.807198 0.811421 0.232523 0.123620
C47   C     C_3   0.227496 0.769385 0.827812 0.133414
C48   C     C_3   0.772496 0.230624 0.172172 0.133390
Ni1   Ni    Ni4+2 0.500000 0.631570 0.500000 0.205302
Ni2   Ni    Ni4+2 0.500000 0.368430 0.500000 0.205337
Ni3   Ni    Ni4+2 0.631570 0.500000 0.500000 0.202696
Ni4   Ni    Ni4+2 0.368430 0.500000 0.500000 0.202684
Ni5   Ni    Ni4+2 0.000000 0.131570 0.000000 0.203805
Ni6   Ni    Ni4+2 0.000000 0.868430 0.000000 0.203734
Ni7   Ni    Ni4+2 0.131570 0.000000 0.000000 0.204499
Ni8   Ni    Ni4+2 0.868430 0.000000 0.000000 0.204449
C49   C     C_R   0.355015 0.645165 0.679816 0.066179
C50   C     C_R   0.644981 0.354832 0.320178 0.066132
C51   C     C_R   0.650837 0.649712 0.675316 0.057770
C52   C     C_R   0.349102 0.350216 0.324758 0.057772
C53   C     C_R   0.682916 0.317437 0.619767 0.050785
C54   C     C_R   0.317083 0.682552 0.380233 0.050777
C55   C     C_R   0.321306 0.320040 0.628223 0.058026
C56   C     C_R   0.678503 0.679799 0.371297 0.058457
C57   C     C_R   0.822346 0.179762 0.130761 0.059659
C58   C     C_R   0.177647 0.820250 0.869216 0.059647
C59   C     C_R   0.181916 0.184387 0.118647 0.050229
C60   C     C_R   0.818078 0.815603 0.881363 0.050194
C61   C     C_R   0.152179 0.849935 0.174265 0.057302
C62   C     C_R   0.847909 0.149981 0.825640 0.057189
C63   C     C_R   0.849325 0.852209 0.175699 0.062478
C64   C     C_R   0.151022 0.148133 0.824650 0.062690
C65   C     C_3   0.727963 0.650959 0.805909 -0.228680
C66   C     C_3   0.271955 0.348994 0.194213 -0.228664
C67   C     C_3   0.695647 0.232329 0.736047 -0.213668
C68   C     C_3   0.304414 0.767626 0.263925 -0.213661
C69   C     C_3   0.200047 0.300763 0.713109 -0.219472
C70   C     C_3   0.799856 0.699226 0.286590 -0.219159
C71   C     C_3   0.341778 0.759411 0.778188 -0.229753
C72   C     C_3   0.658216 0.240587 0.221803 -0.229743
C73   C     C_3   0.725527 0.345597 0.191679 -0.257759
C74   C     C_3   0.274456 0.654407 0.808306 -0.257902
C75   C     C_3   0.694323 0.764363 0.254739 -0.251956
C76   C     C_3   0.305757 0.235980 0.745043 -0.251559
C77   C     C_3   0.199090 0.698917 0.289019 -0.217854
C78   C     C_3   0.800970 0.301018 0.710901 -0.217853
C79   C     C_3   0.343323 0.244307 0.216446 -0.226307
C80   C     C_3   0.656650 0.755664 0.783593 -0.226290
C81   C     C_3   0.268812 0.197590 0.233791 -0.216698
C82   C     C_3   0.731185 0.802333 0.766228 -0.216636
C83   C     C_3   0.154091 0.775185 0.305703 -0.221672
C84   C     C_3   0.845944 0.224740 0.694186 -0.221738
C85   C     C_3   0.735034 0.842104 0.274363 -0.226240
C86   C     C_3   0.265172 0.158074 0.725848 -0.226444
C87   C     C_3   0.801916 0.303292 0.214319 -0.219887
C88   C     C_3   0.198073 0.696719 0.785661 -0.219956
C89   C     C_3   0.265741 0.801192 0.755417 -0.253622
C90   C     C_3   0.734259 0.198813 0.244572 -0.253562
C91   C     C_3   0.159009 0.222536 0.693914 -0.256715
C92   C     C_3   0.841020 0.777278 0.306213 -0.257115
C93   C     C_3   0.740228 0.156053 0.718732 -0.229199
C94   C     C_3   0.259808 0.843894 0.281212 -0.229240
C95   C     C_3   0.802632 0.698022 0.788998 -0.215924
C96   C     C_3   0.197312 0.301886 0.211108 -0.215906
C97   C     C_3   0.235823 0.265066 0.281156 0.216484
C98   C     C_3   0.764150 0.734807 0.718919 0.216571
C99   C     C_3   0.223668 0.806419 0.352835 0.218153
C100  C     C_3   0.776330 0.193527 0.647090 0.218154
C101  C     C_3   0.767327 0.806141 0.348395 0.218530
C102  C     C_3   0.232670 0.193622 0.651713 0.218312
C103  C     C_3   0.763152 0.271716 0.286690 0.226420
C104  C     C_3   0.236844 0.728295 0.713295 0.226497
C105  C     C_3   0.695973 0.719553 0.854289 0.220855
C106  C     C_3   0.303971 0.280452 0.145784 0.220910
C107  C     C_3   0.764314 0.264522 0.781948 0.216298
C108  C     C_3   0.235779 0.735413 0.217990 0.216258
C109  C     C_3   0.233276 0.265845 0.786735 0.222660
C110  C     C_3   0.766843 0.734561 0.213065 0.223270
C111  C     C_3   0.302497 0.728481 0.850961 0.221808
C112  C     C_3   0.697490 0.271520 0.149028 0.221741
H33   H     H_    0.725119 0.588031 0.820045 0.125047
H34   H     H_    0.274776 0.411933 0.180115 0.125060
H35   H     H_    0.633591 0.236287 0.753133 0.122190
H36   H     H_    0.366480 0.763678 0.246875 0.122186
H37   H     H_    0.173427 0.359388 0.707163 0.115226
H38   H     H_    0.826306 0.640504 0.292353 0.115212
H39   H     H_    0.401335 0.784066 0.774964 0.113590
H40   H     H_    0.598662 0.215927 0.225033 0.113584
H41   H     H_    0.719951 0.406569 0.171399 0.127835
H42   H     H_    0.280030 0.593434 0.828586 0.127796
H43   H     H_    0.633435 0.758074 0.234414 0.127712
H44   H     H_    0.366670 0.242461 0.765241 0.127785
H45   H     H_    0.173940 0.639489 0.292820 0.111450
H46   H     H_    0.826131 0.360441 0.707094 0.111459
H47   H     H_    0.403886 0.222104 0.219323 0.113575
H48   H     H_    0.596098 0.777896 0.780697 0.113572
H49   H     H_    0.266924 0.135049 0.249950 0.118937
H50   H     H_    0.733102 0.864861 0.750023 0.118903
H51   H     H_    0.091559 0.779733 0.320712 0.118089
H52   H     H_    0.908464 0.220179 0.679133 0.118105
H53   H     H_    0.709256 0.901173 0.268967 0.116074
H54   H     H_    0.291107 0.099096 0.731468 0.116059
H55   H     H_    0.861128 0.328673 0.210775 0.117637
H56   H     H_    0.138859 0.671340 0.789187 0.117702
H57   H     H_    0.261115 0.862053 0.734412 0.126204
H58   H     H_    0.738894 0.137953 0.265577 0.126186
H59   H     H_    0.097969 0.215201 0.674504 0.126598
H60   H     H_    0.902031 0.784405 0.325780 0.126633
H61   H     H_    0.716623 0.095979 0.722492 0.116756
H62   H     H_    0.283400 0.903974 0.277458 0.116772
H63   H     H_    0.862531 0.674089 0.791552 0.112530
H64   H     H_    0.137402 0.325794 0.208576 0.112520
C113  C     C_3   0.194122 0.252866 0.357291 -0.465620
C114  C     C_3   0.118215 0.207205 0.344719 -0.215102
C115  C     C_3   0.081519 0.181409 0.419645 -0.972426
H65   H     H_    0.116367 0.133756 0.445273 0.267059
H66   H     H_    0.077126 0.231123 0.460287 0.269773
H67   H     H_    0.022237 0.158579 0.408360 0.256052
H68   H     H_    0.076064 0.244570 0.313574 0.188991
H69   H     H_    0.129329 0.154375 0.309342 0.201817
H70   H     H_    0.233526 0.220694 0.396177 0.204691
H71   H     H_    0.180775 0.310486 0.383373 0.184436
C116  C     C_3   0.805863 0.746888 0.642775 -0.465811
C117  C     C_3   0.881735 0.792627 0.655269 -0.215038
C118  C     C_3   0.918463 0.818219 0.580291 -0.972393
H72   H     H_    0.922896 0.768392 0.539787 0.269787
H73   H     H_    0.883610 0.865779 0.554509 0.267094
H74   H     H_    0.977731 0.841103 0.591543 0.256081
H75   H     H_    0.870565 0.845551 0.690490 0.201766
H76   H     H_    0.923887 0.755376 0.686545 0.189015
H77   H     H_    0.819258 0.689227 0.616806 0.184438
H78   H     H_    0.766442 0.778948 0.603821 0.204692
C119  C     C_3   0.216764 0.841591 0.432700 -0.473121
C120  C     C_3   0.162625 0.912628 0.433617 -0.213853
C121  C     C_3   0.141483 0.935995 0.515230 -0.948428
H79   H     H_    0.106246 0.889425 0.542171 0.261011
H80   H     H_    0.194533 0.945540 0.550119 0.260470
H81   H     H_    0.106780 0.990597 0.514536 0.253749
H82   H     H_    0.191570 0.962292 0.404706 0.195902
H83   H     H_    0.107906 0.899381 0.402383 0.197142
H84   H     H_    0.193402 0.795850 0.470810 0.202468
H85   H     H_    0.275432 0.858518 0.453528 0.180552
C122  C     C_3   0.783178 0.158338 0.567226 -0.473131
C123  C     C_3   0.837246 0.087247 0.566306 -0.213950
C124  C     C_3   0.858349 0.063844 0.484692 -0.948335
H86   H     H_    0.805281 0.054330 0.449819 0.260443
H87   H     H_    0.893617 0.110379 0.457732 0.261055
H88   H     H_    0.893010 0.009215 0.485393 0.253678
H89   H     H_    0.891985 0.100445 0.597528 0.197179
H90   H     H_    0.808259 0.037616 0.595231 0.195903
H91   H     H_    0.724488 0.141462 0.546420 0.180559
H92   H     H_    0.806571 0.204046 0.529100 0.202467
C125  C     C_3   0.769381 0.846482 0.426342 -0.466779
C126  C     C_3   0.687776 0.862029 0.458334 -0.237238
C127  C     C_3   0.689029 0.922488 0.522525 -0.959348
H93   H     H_    0.733498 0.907628 0.566065 0.267541
H94   H     H_    0.701570 0.981036 0.499031 0.269408
H95   H     H_    0.631224 0.924584 0.550611 0.245495
H96   H     H_    0.648356 0.883086 0.412484 0.193288
H97   H     H_    0.664047 0.807006 0.481854 0.197878
H98   H     H_    0.801306 0.808122 0.466277 0.194183
H99   H     H_    0.801861 0.902061 0.420237 0.207165
C128  C     C_3   0.230539 0.152922 0.573948 -0.466794
C129  C     C_3   0.312106 0.137621 0.541762 -0.237446
C130  C     C_3   0.310875 0.077127 0.477604 -0.959145
H100  H     H_    0.298551 0.018553 0.501152 0.269343
H101  H     H_    0.266265 0.091854 0.434158 0.267526
H102  H     H_    0.368619 0.075179 0.449387 0.245464
H103  H     H_    0.335593 0.192704 0.518148 0.197897
H104  H     H_    0.351704 0.116719 0.587530 0.193296
H105  H     H_    0.198347 0.097218 0.580392 0.207116
H106  H     H_    0.198304 0.190951 0.533955 0.194317
C131  C     C_3   0.803270 0.263877 0.364594 -0.438278
C132  C     C_3   0.840249 0.340331 0.393357 -0.240043
C133  C     C_3   0.916864 0.325946 0.435021 -0.964399
H107  H     H_    0.908502 0.285009 0.483213 0.267582
H108  H     H_    0.960357 0.301480 0.394749 0.274284
H109  H     H_    0.939563 0.381915 0.458003 0.248614
H110  H     H_    0.851769 0.380858 0.345372 0.192092
H111  H     H_    0.799888 0.369552 0.433812 0.197474
H112  H     H_    0.759996 0.242941 0.406777 0.172352
H113  H     H_    0.848465 0.217889 0.358570 0.203482
C134  C     C_3   0.196705 0.736164 0.635407 -0.438333
C135  C     C_3   0.159870 0.659677 0.606548 -0.239906
C136  C     C_3   0.083170 0.673962 0.564999 -0.964376
H114  H     H_    0.039593 0.698018 0.605431 0.274211
H115  H     H_    0.091326 0.715211 0.517022 0.267626
H116  H     H_    0.060702 0.618017 0.541724 0.248594
H117  H     H_    0.200260 0.630632 0.565995 0.197485
H118  H     H_    0.148499 0.619030 0.654472 0.192069
H119  H     H_    0.151420 0.782060 0.641498 0.203521
H120  H     H_    0.239938 0.757242 0.593246 0.172298
C137  C     C_3   0.661263 0.710905 0.933825 -0.471252
C138  C     C_3   0.587337 0.661099 0.932094 -0.230239
C139  C     C_3   0.563285 0.636926 0.012482 -0.940288
H121  H     H_    0.607392 0.596885 0.037102 0.265006
H122  H     H_    0.557535 0.688730 0.050290 0.264590
H123  H     H_    0.506572 0.606125 0.010105 0.254378
H124  H     H_    0.539544 0.694816 0.905112 0.192061
H125  H     H_    0.596865 0.607480 0.897533 0.197771
H126  H     H_    0.705695 0.683015 0.970467 0.204148
H127  H     H_    0.647889 0.769585 0.957548 0.179659
C140  C     C_3   0.338629 0.289163 0.066237 -0.471148
C141  C     C_3   0.412580 0.338930 0.067960 -0.230392
C142  C     C_3   0.436591 0.363140 0.987569 -0.940229
H128  H     H_    0.442334 0.311349 0.949740 0.264572
H129  H     H_    0.392464 0.403180 0.962979 0.265049
H130  H     H_    0.493299 0.393950 0.989933 0.254384
H131  H     H_    0.403097 0.392530 0.102562 0.197776
H132  H     H_    0.460374 0.305171 0.094891 0.192081
H133  H     H_    0.351953 0.230499 0.042443 0.179677
H134  H     H_    0.294175 0.317118 0.029669 0.203976
C143  C     C_3   0.755020 0.307926 0.857943 -0.465654
C144  C     C_3   0.712514 0.385842 0.846097 -0.218343
C145  C     C_3   0.694783 0.426793 0.921590 -0.962549
H135  H     H_    0.647683 0.395647 0.952008 0.264753
H136  H     H_    0.747542 0.429825 0.958119 0.269858
H137  H     H_    0.674427 0.487028 0.910359 0.250275
H138  H     H_    0.749307 0.424983 0.810932 0.187424
H139  H     H_    0.656898 0.376019 0.815120 0.201822
H140  H     H_    0.722065 0.270258 0.897647 0.204426
H141  H     H_    0.813342 0.319284 0.882818 0.183895
C146  C     C_3   0.245097 0.692016 0.141996 -0.465706
C147  C     C_3   0.287619 0.614111 0.153844 -0.218224
C148  C     C_3   0.305285 0.573128 0.078354 -0.962641
H142  H     H_    0.252497 0.570089 0.041865 0.269877
H143  H     H_    0.352363 0.604255 0.047884 0.264748
H144  H     H_    0.325639 0.512893 0.089595 0.250321
H145  H     H_    0.343259 0.623954 0.184772 0.201804
H146  H     H_    0.250858 0.574982 0.189054 0.187424
H147  H     H_    0.186780 0.680647 0.117112 0.183916
H148  H     H_    0.278049 0.729695 0.102301 0.204426
C149  C     C_3   0.242746 0.309511 0.862900 -0.438629
C150  C     C_3   0.168375 0.351649 0.889520 -0.238133
C151  C     C_3   0.186377 0.429711 0.928037 -0.959357
H149  H     H_    0.225393 0.421454 0.977837 0.267581
H150  H     H_    0.214468 0.469859 0.886802 0.260391
H151  H     H_    0.131507 0.456945 0.948302 0.248395
H152  H     H_    0.128568 0.362919 0.840826 0.191340
H153  H     H_    0.137306 0.314499 0.931353 0.192900
H154  H     H_    0.261766 0.267316 0.907076 0.172625
H155  H     H_    0.290586 0.352375 0.855249 0.205120
C152  C     C_3   0.757612 0.691425 0.136576 -0.438455
C153  C     C_3   0.831777 0.648613 0.110386 -0.237642
C154  C     C_3   0.813369 0.570486 0.072185 -0.959689
H156  H     H_    0.784511 0.530890 0.113395 0.260579
H157  H     H_    0.774915 0.578800 0.021991 0.267514
H158  H     H_    0.868137 0.542591 0.052581 0.248396
H159  H     H_    0.863270 0.685334 0.068493 0.192577
H160  H     H_    0.871380 0.637313 0.159226 0.191220
H161  H     H_    0.709202 0.649096 0.143510 0.205183
H162  H     H_    0.739509 0.734089 0.092471 0.172220
C155  C     C_3   0.339915 0.726549 0.929991 -0.467011
C156  C     C_3   0.359014 0.808361 0.960545 -0.238307
C157  C     C_3   0.421698 0.806009 0.022199 -0.959272
H163  H     H_    0.407446 0.762317 0.066613 0.270667
H164  H     H_    0.478585 0.791305 0.996115 0.270554
H165  H     H_    0.426643 0.864230 0.049742 0.246553
H166  H     H_    0.379636 0.846614 0.913673 0.193330
H167  H     H_    0.305729 0.834390 0.985718 0.197534
H168  H     H_    0.298699 0.697862 0.969416 0.192597
H169  H     H_    0.393501 0.690565 0.926139 0.204402
C158  C     C_3   0.660071 0.273461 0.069996 -0.466971
C159  C     C_3   0.640949 0.191656 0.039440 -0.238335
C160  C     C_3   0.578294 0.194041 0.977760 -0.959234
H170  H     H_    0.521408 0.208806 0.003813 0.270548
H171  H     H_    0.592605 0.237705 0.933335 0.270651
H172  H     H_    0.573311 0.135814 0.950235 0.246557
H173  H     H_    0.694231 0.165602 0.014287 0.197532
H174  H     H_    0.620289 0.153415 0.086307 0.193327
H175  H     H_    0.606494 0.309462 0.073850 0.204391
H176  H     H_    0.701297 0.302135 0.030569 0.192605

loop_
_geom_bond_atom_site_label_1
_geom_bond_atom_site_label_2
_geom_bond_distance
_ccdc_geom_bond_type
C143  H141  1.110373 S    
C4    H4    1.080715 S    
C155  C156  1.535221 S    
C5    H5    1.081897 S    
C47   C89   1.531626 S    
C72   C112  1.539552 S    
C149  C150  1.540712 S    
C48   C112  1.523638 S    
C34   C80   1.535937 S    
C35   C77   1.534355 S    
C73   C112  1.548054 S    
C128  H105  1.110886 S    
N29   Ni5   1.889174 S    
C74   C111  1.548056 S    
C33   C52   1.420726 S    
C32   C61   1.371245 A    
N21   N32   1.393920 A    
C19   N19   1.326701 A    
C155  H168  1.107244 S    
N23   N30   1.392995 A    
N17   Ni5   1.889025 S    
C37   C56   1.419044 S    
C80   H48   1.110256 S    
N19   Ni7   1.881244 S    
C152  C153  1.540966 S    
C156  H167  1.110210 S    
C86   C102  1.540918 S    
C38   C69   1.531164 S    
C135  H118  1.110935 S    
C48   C57   1.420271 S    
C74   H42   1.109966 S    
C113  H71   1.110856 S    
C160  H172  1.110337 S    
C2    H2    1.076987 S    
C28   H28   1.080794 S    
C20   C60   1.370576 A    
N13   Ni1   1.889174 S    
C21   C61   1.372670 A    
C146  H148  1.107913 S    
C3    C51   1.369968 A    
C81   H49   1.111106 S    
N26   Ni5   1.886951 S    
C125  H98   1.107353 S    
C45   C91   1.533379 S    
C46   C92   1.533285 S    
C99   C119  1.525331 S    
C36   C78   1.534361 S    
N18   N27   1.393920 A    
C16   N16   1.323349 A    
C47   C88   1.531779 S    
C101  C125  1.527932 S    
C118  H72   1.110821 S    
C31   H31   1.080615 S    
C47   C58   1.420245 S    
C116  C117  1.538271 S    
C42   C81   1.535607 S    
C119  H84   1.108127 S    
C92   C101  1.547899 S    
N3    N10   1.392995 A    
N24   Ni7   1.889507 S    
C87   H55   1.109959 S    
C46   C85   1.533887 S    
N4    Ni4   1.881246 S    
C144  H138  1.111552 S    
C96   C97   1.531884 S    
C70   C110  1.533680 S    
C130  H101  1.109809 S    
C18   C58   1.365470 A    
N11   Ni3   1.881260 S    
C138  C139  1.526817 S    
N18   Ni6   1.889024 S    
C44   C94   1.535879 S    
C43   C107  1.525243 S    
N6    N15   1.393920 A    
N1    Ni1   1.889025 S    
C126  H97   1.109603 S    
C41   C105  1.524578 S    
C127  H94   1.108311 S    
C23   H23   1.079600 S    
C26   N26   1.321213 A    
C9    H9    1.077406 S    
C77   C83   1.546512 S    
C44   C61   1.424134 S    
C30   N30   1.325423 A    
C13   H13   1.081622 S    
C44   C83   1.535385 S    
C92   H60   1.110433 S    
C153  C154  1.528288 S    
C18   N18   1.319112 A    
C134  H119  1.112052 S    
N22   Ni5   1.887065 S    
C69   C109  1.533688 S    
C133  H108  1.109700 S    
C67   C107  1.530139 S    
C141  H131  1.110898 S    
C12   H12   1.079643 S    
C129  H104  1.111701 S    
C157  H163  1.110101 S    
C71   H39   1.110273 S    
C8    H8    1.081160 S    
C71   C89   1.543983 S    
C78   C107  1.531760 S    
C159  H174  1.111610 S    
C43   C93   1.535896 S    
C154  H156  1.110844 S    
C36   C100  1.524931 S    
C37   C101  1.522988 S    
C95   H63   1.109923 S    
C153  H160  1.110468 S    
C114  H68   1.111567 S    
C22   H22   1.077371 S    
N8    Ni3   1.889507 S    
C82   C98   1.530066 S    
C124  H86   1.109558 S    
C144  C145  1.525228 S    
C43   C62   1.424290 S    
C73   C87   1.552682 S    
C150  H153  1.110721 S    
C74   C88   1.552690 S    
C150  H152  1.110565 S    
C4    C52   1.369952 A    
C66   C96   1.547164 S    
C125  C126  1.534872 S    
C67   C93   1.545152 S    
C68   C108  1.530143 S    
N17   N28   1.393920 A    
C8    C56   1.366993 A    
C15   N15   1.323294 A    
C12   C49   1.370555 A    
C76   C109  1.532370 S    
C1    N1    1.322028 A    
C6    H6    1.081895 S    
C27   N27   1.322401 A    
C152  H162  1.110422 S    
C16   C53   1.365674 A    
C122  H92   1.108110 S    
C24   C64   1.366900 A    
C79   C81   1.543314 S    
C119  C120  1.533178 S    
C148  H143  1.108914 S    
C25   H25   1.081423 S    
C31   C62   1.371303 A    
C83   H51   1.110323 S    
C137  H126  1.107215 S    
C35   C54   1.428954 S    
C142  H129  1.111088 S    
N6    Ni1   1.887065 S    
C29   H29   1.075144 S    
C40   C74   1.532111 S    
C32   H32   1.080616 S    
C109  C149  1.535279 S    
N22   N31   1.393920 A    
C17   H17   1.081358 S    
C4    N4    1.322594 A    
C89   C104  1.531804 S    
C123  H89   1.111306 S    
C138  H125  1.110877 S    
C90   C103  1.531819 S    
C100  C122  1.525348 S    
C113  C114  1.538308 S    
C131  H112  1.110253 S    
C120  H82   1.111203 S    
C84   C100  1.547837 S    
C158  H176  1.107267 S    
C36   C67   1.535608 S    
C88   H56   1.109961 S    
C37   C70   1.531132 S    
C3    H3    1.080711 S    
C47   C111  1.523639 S    
C136  H114  1.109834 S    
C40   C71   1.533467 S    
C121  H80   1.109531 S    
C117  H75   1.111960 S    
C149  H155  1.112545 S    
C93   H61   1.110022 S    
C154  H158  1.110512 S    
C132  H110  1.110903 S    
C20   N20   1.326757 A    
N27   Ni7   1.881260 S    
C11   C50   1.370538 A    
C140  H133  1.111211 S    
C39   C73   1.532112 S    
C143  H140  1.107920 S    
C37   C75   1.532440 S    
C124  H88   1.110417 S    
C7    H7    1.081166 S    
C151  H150  1.111143 S    
C147  C148  1.525223 S    
C2    N2    1.322069 A    
C128  C129  1.534796 S    
C144  H139  1.111897 S    
C96   H64   1.109919 S    
C126  C127  1.526106 S    
N28   Ni8   1.881259 S    
C11   N11   1.323601 A    
C115  H67   1.109934 S    
N30   Ni6   1.889175 S    
N7    Ni4   1.889508 S    
C157  H165  1.110341 S    
C138  H124  1.111120 S    
C139  H123  1.110476 S    
C1    C49   1.371074 A    
C34   C98   1.523536 S    
C151  H151  1.110803 S    
C85   C101  1.540955 S    
C5    C53   1.370188 A    
C27   C58   1.368910 A    
C132  C133  1.526251 S    
C102  C128  1.527909 S    
C7    C55   1.366854 A    
C130  H100  1.108320 S    
C25   C60   1.364509 A    
C42   C106  1.524522 S    
C26   C59   1.364485 A    
C113  H70   1.108799 S    
C160  H171  1.110121 S    
C84   H52   1.110319 S    
C97   C113  1.529870 S    
C10   H10   1.077394 S    
C137  H127  1.111190 S    
N32   Ni7   1.889456 S    
C121  H79   1.110235 S    
C157  H164  1.108916 S    
C146  H147  1.110388 S    
C110  C152  1.535405 S    
C14   H14   1.081621 S    
C108  C146  1.530383 S    
C116  H78   1.108744 S    
N1    N12   1.393920 A    
C66   H34   1.109545 S    
C70   C92   1.551925 S    
C45   C109  1.527149 S    
C70   H38   1.109902 S    
C136  H116  1.110405 S    
C148  H142  1.110939 S    
C80   C105  1.542077 S    
C159  C160  1.525707 S    
C5    N5    1.325397 A    
C75   C85   1.543791 S    
C158  C159  1.535213 S    
C133  H107  1.109683 S    
C23   N23   1.319629 A    
C73   H41   1.109973 S    
C98   C116  1.529836 S    
C105  C137  1.523803 S    
N14   Ni2   1.889175 S    
C82   H50   1.111103 S    
C41   C60   1.428083 S    
C65   H33   1.109524 S    
C2    C50   1.371086 A    
C68   C94   1.545158 S    
C42   C59   1.427955 S    
C21   N21   1.325420 A    
C128  H106  1.107271 S    
C8    N8    1.321268 A    
C34   C65   1.533934 S    
C140  C141  1.532726 S    
C68   H36   1.110993 S    
C69   H37   1.109904 S    
C6    C54   1.370177 A    
C40   C104  1.528272 S    
C10   C51   1.372096 A    
C115  H65   1.109420 S    
C72   H40   1.110274 S    
C155  H169  1.111032 S    
N10   Ni1   1.886951 S    
C89   H57   1.111066 S    
C77   C108  1.531755 S    
C14   C55   1.366564 A    
C86   H54   1.110051 S    
C139  H121  1.111066 S    
C112  C158  1.526101 S    
C151  H149  1.109356 S    
N16   Ni3   1.889456 S    
N20   Ni8   1.881246 S    
C39   C103  1.528269 S    
C33   C79   1.535937 S    
C85   H53   1.110053 S    
C135  H117  1.110313 S    
C26   H26   1.081424 S    
C141  H132  1.111143 S    
C75   C110  1.532394 S    
C30   H30   1.075129 S    
C65   C95   1.547183 S    
C116  H77   1.110850 S    
C123  C124  1.526811 S    
C18   H18   1.081360 S    
C6    N6    1.325364 A    
C120  C121  1.526800 S    
N2    Ni2   1.889024 S    
C125  H99   1.110928 S    
C103  C131  1.534484 S    
C114  H69   1.111981 S    
N31   Ni8   1.889455 S    
C118  H74   1.109927 S    
C90   H58   1.111070 S    
C25   N25   1.321253 A    
C23   C63   1.367013 A    
C106  C140  1.523739 S    
C146  C147  1.537693 S    
C118  H73   1.109394 S    
C29   N29   1.325309 A    
C31   N31   1.322591 A    
N2    N11   1.393920 A    
C119  H85   1.111148 S    
C17   N17   1.319113 A    
C22   N22   1.325478 A    
N21   Ni6   1.887063 S    
C104  C134  1.534458 S    
N9    Ni2   1.886953 S    
C145  H135  1.108898 S    
C29   C64   1.372440 A    
C129  C130  1.526076 S    
C46   C110  1.527328 S    
C30   C63   1.372531 A    
C130  H102  1.110425 S    
C81   C97   1.530086 S    
C136  H115  1.109778 S    
C152  H161  1.112321 S    
C39   C50   1.419308 S    
C78   H46   1.109899 S    
C71   C111  1.539540 S    
C122  H91   1.111137 S    
C48   C87   1.531774 S    
C137  C138  1.532744 S    
C111  C155  1.526088 S    
C126  H96   1.111715 S    
C15   H15   1.081201 S    
C24   H24   1.079614 S    
C127  H95   1.110409 S    
C39   C72   1.533461 S    
C16   H16   1.081201 S    
C1    H1    1.076991 S    
C142  H128  1.110184 S    
C147  H145  1.111901 S    
C22   C62   1.372733 A    
C7    N7    1.321256 A    
C159  H173  1.110219 S    
C123  H90   1.111204 S    
C35   C99   1.524885 S    
C120  H83   1.111313 S    
C9    C52   1.372027 A    
C33   C97   1.523510 S    
C134  H120  1.110327 S    
C44   C108  1.525179 S    
C158  H175  1.111062 S    
C28   C57   1.368882 A    
C133  H109  1.110298 S    
N3    Ni3   1.881244 S    
C38   C76   1.532497 S    
C13   C56   1.366559 A    
C76   H44   1.111131 S    
C134  C135  1.540331 S    
C15   C54   1.365621 A    
C129  H103  1.109569 S    
C75   H43   1.111105 S    
C117  H76   1.111557 S    
C43   C84   1.535392 S    
C107  C143  1.530416 S    
C149  H154  1.110517 S    
C93   C100  1.543351 S    
C41   C82   1.535628 S    
C145  H137  1.108995 S    
C94   C99   1.543344 S    
C154  H157  1.109125 S    
C87   C103  1.533723 S    
N15   Ni4   1.889455 S    
C45   C64   1.418579 S    
C88   C104  1.533704 S    
C46   C63   1.418841 S    
C156  C157  1.525708 S    
C9    N9    1.324454 A    
C67   H35   1.110993 S    
C45   C86   1.533890 S    
C153  H159  1.110722 S    
C95   C98   1.531856 S    
C19   C59   1.370545 A    
C34   C51   1.420914 S    
C13   N13   1.319173 A    
N5    Ni2   1.887063 S    
C124  H87   1.110252 S    
C17   C57   1.365461 A    
C36   C53   1.429090 S    
C79   H47   1.110252 S    
C38   C55   1.418908 S    
C91   H59   1.110452 S    
C79   C106  1.542046 S    
C40   C49   1.419313 S    
N4    N9    1.392995 A    
C41   C95   1.535003 S    
C42   C96   1.534978 S    
N8    N13   1.392995 A    
C83   C99   1.547805 S    
C115  H66   1.110844 S    
C24   N24   1.319491 A    
C156  H166  1.111592 S    
C28   N28   1.322414 A    
C76   C86   1.543642 S    
C11   H11   1.079625 S    
C139  H122  1.110155 S    
C94   H62   1.110024 S    
C32   N32   1.322539 A    
C80   C82   1.543316 S    
C69   C91   1.551935 S    
C148  H144  1.109005 S    
C35   C68   1.535613 S    
N20   N25   1.392995 A    
C127  H93   1.109788 S    
C66   C106  1.547918 S    
C33   C66   1.533925 S    
C141  C142  1.526841 S    
C160  H170  1.108918 S    
C142  H130  1.110480 S    
N19   N26   1.392995 A    
N24   N29   1.392995 A    
C72   C90   1.543994 S    
C3    N3    1.322630 A    
C122  C123  1.533181 S    
C140  H134  1.107210 S    
C38   C102  1.522922 S    
C48   C90   1.531663 S    
C131  H113  1.111964 S    
C135  C136  1.526268 S    
C12   N12   1.323540 A    
N23   Ni8   1.889508 S    
C20   H20   1.081714 S    
C27   H27   1.080789 S    
C21   H21   1.077399 S    
C10   N10   1.324511 A    
C114  C115  1.524094 S    
C147  H146  1.111554 S    
N12   Ni4   1.881259 S    
C121  H81   1.110407 S    
C14   N14   1.319186 A    
C143  C144  1.537716 S    
C78   C84   1.546547 S    
C117  C118  1.524102 S    
C19   H19   1.081714 S    
C65   C105  1.547962 S    
N25   Ni6   1.886953 S    
C150  C151  1.528295 S    
N5    N16   1.393920 A    
C132  H111  1.110251 S    
C145  H136  1.110926 S    
C131  C132  1.540334 S    
C91   C102  1.547888 S    
N7    N14   1.392995 A    
C77   H45   1.109899 S    
