data_mof_unit_53923.cif
_audit_creation_date              2013-03-05T15:49:58-0500
_audit_creation_method            fapswitch 2.2
_symmetry_space_group_name_H-M    P1
_symmetry_Int_Tables_number       1
_space_group_crystal_system       triclinic
_cell_length_a                    17.294994
_cell_length_b                    17.197139
_cell_length_c                    17.412494
_cell_angle_alpha                 89.98591
_cell_angle_beta                  89.998558
_cell_angle_gamma                 89.970418
_cell_volume                      5178.90000747

loop_
_atom_site_label
_atom_site_type_symbol
_atom_site_description
_atom_site_fract_x
_atom_site_fract_y
_atom_site_fract_z
_atom_type_partial_charge
C1    C     C_R   0.394336 0.696078 0.609429 0.602861
C2    C     C_R   0.608631 0.299225 0.404660 0.630738
C3    C     C_R   0.697061 0.608185 0.603842 0.602953
C4    C     C_R   0.329928 0.419712 0.354454 0.518448
C5    C     C_R   0.605783 0.303795 0.609091 0.593012
C6    C     C_R   0.389788 0.700334 0.405007 0.588827
C7    C     C_R   0.302813 0.391583 0.603267 0.602315
C8    C     C_R   0.666996 0.577152 0.352630 0.473823
C9    C     C_R   0.420243 0.326997 0.356483 0.517489
C10   C     C_R   0.606375 0.699270 0.600624 0.635022
C11   C     C_R   0.699538 0.389546 0.403842 0.624145
C12   C     C_R   0.302737 0.605515 0.606028 0.627793
C13   C     C_R   0.577829 0.670350 0.354334 0.464315
C14   C     C_R   0.393545 0.300595 0.600126 0.641080
C15   C     C_R   0.299970 0.609064 0.403686 0.625911
C16   C     C_R   0.697392 0.394310 0.605577 0.627657
C17   C     C_R   0.920649 0.171802 0.144390 0.514573
C18   C     C_R   0.108067 0.802492 0.896044 0.604297
C19   C     C_R   0.199499 0.111149 0.094870 0.620338
C20   C     C_R   0.804392 0.894296 0.890528 0.595103
C21   C     C_R   0.079702 0.828354 0.144516 0.520538
C22   C     C_R   0.891958 0.197471 0.895857 0.604465
C23   C     C_R   0.801074 0.889345 0.098113 0.606740
C24   C     C_R   0.195378 0.105388 0.889810 0.594156
C25   C     C_R   0.895002 0.802589 0.893079 0.626227
C26   C     C_R   0.107945 0.200865 0.095753 0.641439
C27   C     C_R   0.198963 0.893226 0.899919 0.641274
C28   C     C_R   0.830622 0.078993 0.146011 0.518577
C29   C     C_R   0.104779 0.197181 0.892346 0.626329
C30   C     C_R   0.892794 0.799540 0.098275 0.643998
C31   C     C_R   0.801072 0.106717 0.899727 0.640598
C32   C     C_R   0.170176 0.920884 0.145424 0.521327
N1    N     N_R   0.424590 0.632770 0.578330 -0.118028
N2    N     N_R   0.575410 0.367230 0.421670 -0.143131
N3    N     N_R   0.632770 0.575410 0.578330 -0.108239
N4    N     N_R   0.367230 0.424590 0.421670 -0.129765
N5    N     N_R   0.575410 0.367230 0.578330 -0.119225
N6    N     N_R   0.424590 0.632770 0.421670 -0.142689
N7    N     N_R   0.367230 0.424590 0.578330 -0.110540
N8    N     N_R   0.632770 0.575410 0.421670 -0.120371
N9    N     N_R   0.424590 0.367230 0.421670 -0.132819
N10   N     N_R   0.575410 0.632770 0.578330 -0.114833
N11   N     N_R   0.632770 0.424590 0.421670 -0.135939
N12   N     N_R   0.367230 0.575410 0.578330 -0.122854
N13   N     N_R   0.575410 0.632770 0.421670 -0.164137
N14   N     N_R   0.424590 0.367230 0.578330 -0.115276
N15   N     N_R   0.367230 0.575410 0.421670 -0.135033
N16   N     N_R   0.632770 0.424590 0.578330 -0.123814
N17   N     N_R   0.924590 0.132770 0.078330 -0.135699
N18   N     N_R   0.075410 0.867230 0.921670 -0.111271
N19   N     N_R   0.132770 0.075410 0.078330 -0.134892
N20   N     N_R   0.867230 0.924590 0.921670 -0.120629
N21   N     N_R   0.075410 0.867230 0.078330 -0.134881
N22   N     N_R   0.924590 0.132770 0.921670 -0.111301
N23   N     N_R   0.867230 0.924590 0.078330 -0.135505
N24   N     N_R   0.132770 0.075410 0.921670 -0.121678
N25   N     N_R   0.924590 0.867230 0.921670 -0.125030
N26   N     N_R   0.075410 0.132770 0.078330 -0.143593
N27   N     N_R   0.132770 0.924590 0.921670 -0.115917
N28   N     N_R   0.867230 0.075410 0.078330 -0.125947
N29   N     N_R   0.075410 0.132770 0.921670 -0.125943
N30   N     N_R   0.924590 0.867230 0.078330 -0.145225
N31   N     N_R   0.867230 0.075410 0.921670 -0.115928
N32   N     N_R   0.132770 0.924590 0.078330 -0.127549
C33   C     C_3   0.329129 0.324119 0.241833 -0.112347
C34   C     C_3   0.715230 0.722482 0.685503 -0.168583
C35   C     C_3   0.259594 0.739080 0.350121 -0.129188
C36   C     C_3   0.718095 0.286429 0.694303 -0.152783
C37   C     C_3   0.669918 0.674594 0.242585 -0.104342
C38   C     C_3   0.284470 0.277014 0.684414 -0.168803
C39   C     C_3   0.737765 0.258497 0.349867 -0.124370
C40   C     C_3   0.282111 0.713290 0.694905 -0.153775
C41   C     C_3   0.787320 0.782474 0.804293 -0.151723
C42   C     C_3   0.236230 0.242238 0.149940 -0.122838
C43   C     C_3   0.777732 0.215468 0.814232 -0.170972
C44   C     C_3   0.170539 0.827597 0.260078 -0.106385
C45   C     C_3   0.212229 0.216940 0.803077 -0.150945
C46   C     C_3   0.765544 0.758317 0.155300 -0.143936
C47   C     C_3   0.222403 0.784379 0.814679 -0.170465
C48   C     C_3   0.829610 0.173456 0.259450 -0.110005
Ni1   Ni    Ni4+2 0.500000 0.631570 0.500000 0.296697
Ni2   Ni    Ni4+2 0.500000 0.368430 0.500000 0.334065
Ni3   Ni    Ni4+2 0.631570 0.500000 0.500000 0.337129
Ni4   Ni    Ni4+2 0.368430 0.500000 0.500000 0.336489
Ni5   Ni    Ni4+2 1.000000 0.131570 0.000000 0.330235
Ni6   Ni    Ni4+2 1.000000 0.868430 0.000000 0.331568
Ni7   Ni    Ni4+2 0.131570 0.000000 0.000000 0.336019
Ni8   Ni    Ni4+2 0.868430 0.000000 0.000000 0.336545
C49   C     C_R   0.319185 0.679411 0.629671 -0.358807
C50   C     C_R   0.685755 0.311790 0.390640 -0.372672
C51   C     C_R   0.681206 0.684655 0.620810 -0.335571
C52   C     C_R   0.364035 0.360841 0.310113 -0.214137
C53   C     C_R   0.681036 0.320311 0.629032 -0.359552
C54   C     C_R   0.312610 0.686665 0.390810 -0.336303
C55   C     C_R   0.318587 0.315011 0.619875 -0.343033
C56   C     C_R   0.632013 0.634816 0.307537 -0.105194
C57   C     C_R   0.864931 0.137051 0.191018 -0.210387
C58   C     C_R   0.184386 0.818121 0.879531 -0.340881
C59   C     C_R   0.185124 0.188927 0.108443 -0.374542
C60   C     C_R   0.821425 0.819171 0.869499 -0.355204
C61   C     C_R   0.135759 0.863321 0.190959 -0.216068
C62   C     C_R   0.815677 0.181790 0.879196 -0.340116
C63   C     C_R   0.816393 0.812144 0.114199 -0.348439
C64   C     C_R   0.178157 0.180338 0.868322 -0.354894
C65   C     C_3   0.734103 0.679301 0.760650 0.309435
C66   C     C_3   0.283345 0.356959 0.173386 0.266742
C67   C     C_3   0.675697 0.270670 0.770432 0.315461
C68   C     C_3   0.288248 0.801846 0.294256 0.248530
C69   C     C_3   0.265551 0.320105 0.759580 0.310738
C70   C     C_3   0.714519 0.644276 0.172374 0.245363
C71   C     C_3   0.324484 0.729194 0.771003 0.314983
C72   C     C_3   0.711877 0.190358 0.298911 0.246679
C73   C     C_3   0.787813 0.289479 0.283614 0.244161
C74   C     C_3   0.211086 0.685535 0.740048 0.228459
C75   C     C_3   0.647531 0.747981 0.196793 0.317347
C76   C     C_3   0.312886 0.206954 0.731192 0.232519
C77   C     C_3   0.203334 0.709393 0.288465 0.234558
C78   C     C_3   0.789125 0.314199 0.739396 0.228113
C79   C     C_3   0.354101 0.254873 0.191341 0.230918
C80   C     C_3   0.686730 0.792464 0.732309 0.234020
C81   C     C_3   0.282959 0.209834 0.217898 0.254770
C82   C     C_3   0.768364 0.825888 0.729322 0.313226
C83   C     C_3   0.141237 0.765482 0.316902 0.254516
C84   C     C_3   0.819906 0.231139 0.737941 0.312300
C85   C     C_3   0.720594 0.788543 0.225310 0.272865
C86   C     C_3   0.231234 0.173576 0.728121 0.315290
C87   C     C_3   0.856089 0.240872 0.311445 0.245659
C88   C     C_3   0.180250 0.768567 0.738419 0.311754
C89   C     C_3   0.293500 0.812251 0.769603 0.234679
C90   C     C_3   0.780555 0.141979 0.326410 0.248473
C91   C     C_3   0.183946 0.286895 0.756216 0.227906
C92   C     C_3   0.787776 0.684931 0.200670 0.242481
C93   C     C_3   0.706616 0.187585 0.769196 0.234334
C94   C     C_3   0.225967 0.857742 0.322724 0.235243
C95   C     C_3   0.815699 0.712580 0.757409 0.227559
C96   C     C_3   0.211802 0.312084 0.199453 0.236018
C97   C     C_3   0.256263 0.278140 0.267774 -0.376880
C98   C     C_3   0.797646 0.756151 0.681977 -0.321811
C99   C     C_3   0.196528 0.795514 0.380547 -0.313849
C100  C     C_3   0.749016 0.202493 0.692590 -0.342275
C101  C     C_3   0.744625 0.716264 0.271075 -0.354279
C102  C     C_3   0.202043 0.243386 0.680776 -0.321634
C103  C     C_3   0.807158 0.209577 0.379390 -0.317358
C104  C     C_3   0.251123 0.797201 0.693025 -0.342611
C105  C     C_3   0.704839 0.749058 0.807795 -0.341327
C106  C     C_3   0.308337 0.287677 0.121872 -0.321185
C107  C     C_3   0.746566 0.299369 0.815949 -0.320660
C108  C     C_3   0.234102 0.770191 0.232128 -0.382374
C109  C     C_3   0.294725 0.250280 0.806679 -0.344037
C110  C     C_3   0.691787 0.717400 0.125286 -0.378297
C111  C     C_3   0.253627 0.700514 0.816571 -0.320843
C112  C     C_3   0.759621 0.223099 0.232214 -0.376667
H1    H     H_    0.233438 0.272751 0.327225 0.228113
H2    H     H_    0.834969 0.759383 0.630182 0.228203
H3    H     H_    0.181493 0.805500 0.441744 0.212663
H4    H     H_    0.750465 0.163504 0.641770 0.223164
H5    H     H_    0.767553 0.717099 0.330706 0.226375
H6    H     H_    0.164773 0.240234 0.628942 0.226938
H7    H     H_    0.826148 0.204160 0.440063 0.213291
H8    H     H_    0.249649 0.836113 0.642129 0.221688
H9    H     H_    0.667582 0.745847 0.859650 0.219694
H10   H     H_    0.329007 0.291629 0.061629 0.211752
H11   H     H_    0.745041 0.338451 0.866685 0.229853
H12   H     H_    0.251235 0.758198 0.171727 0.225655
H13   H     H_    0.331927 0.253408 0.858576 0.218885
H14   H     H_    0.670966 0.717793 0.064963 0.220221
H15   H     H_    0.255157 0.661518 0.867391 0.229352
H16   H     H_    0.738530 0.230170 0.172299 0.227436
O1    O     O_3   0.431449 0.766584 0.612760 -0.613055
H17   H     H_    0.394338 0.805740 0.632049 0.346017
O2    O     O_3   0.577886 0.229800 0.429668 -0.614113
H18   H     H_    0.620369 0.191349 0.434093 0.343961
O3    O     O_3   0.768125 0.572476 0.602953 -0.613131
H19   H     H_    0.807528 0.611413 0.617687 0.346232
O4    O     O_3   0.262319 0.458724 0.339845 -0.624399
H20   H     H_    0.242876 0.443200 0.289049 0.362293
O5    O     O_3   0.568610 0.233320 0.612464 -0.612609
H21   H     H_    0.605807 0.194059 0.631398 0.346009
O6    O     O_3   0.419005 0.770524 0.429475 -0.677924
H22   H     H_    0.376487 0.809181 0.430151 0.352818
O7    O     O_3   0.231676 0.427130 0.601873 -0.612701
H23   H     H_    0.192232 0.388042 0.616129 0.345988
O8    O     O_3   0.734418 0.538165 0.337095 -0.627433
H24   H     H_    0.748626 0.547393 0.283113 0.363166
O9    O     O_3   0.453925 0.255390 0.347994 -0.611407
H25   H     H_    0.415943 0.221037 0.322818 0.353519
O10   O     O_3   0.579143 0.769699 0.574620 -0.641308
H26   H     H_    0.622223 0.807688 0.576610 0.352004
O11   O     O_3   0.770417 0.421259 0.421619 -0.607497
H27   H     H_    0.810042 0.379862 0.417719 0.348209
O12   O     O_3   0.231023 0.578940 0.584564 -0.614738
H28   H     H_    0.194679 0.623544 0.585899 0.343213
O13   O     O_3   0.551472 0.744694 0.343622 -0.633262
H29   H     H_    0.550962 0.769282 0.395033 0.387619
O14   O     O_3   0.420962 0.230345 0.573867 -0.617676
H30   H     H_    0.377933 0.192278 0.575531 0.352764
O15   O     O_3   0.229827 0.576892 0.423509 -0.609797
H31   H     H_    0.189981 0.618282 0.422104 0.348637
O16   O     O_3   0.768993 0.420803 0.583589 -0.614596
H32   H     H_    0.805350 0.376207 0.584884 0.343029
O17   O     O_3   0.954357 0.243211 0.153908 -0.613362
H33   H     H_    0.917000 0.276989 0.180691 0.351468
O18   O     O_3   0.072382 0.731162 0.896425 -0.612212
H34   H     H_    0.110974 0.691488 0.881423 0.346614
O19   O     O_3   0.270299 0.080319 0.075182 -0.616062
H35   H     H_    0.309832 0.121618 0.080473 0.343572
O20   O     O_3   0.733880 0.931031 0.888507 -0.612864
H36   H     H_    0.695072 0.893593 0.869241 0.345051
O21   O     O_3   0.044752 0.757582 0.154805 -0.615831
H37   H     H_    0.076540 0.726350 0.190080 0.354765
O22   O     O_3   0.927563 0.268840 0.896298 -0.612371
H38   H     H_    0.888997 0.308463 0.881086 0.346606
O23   O     O_3   0.729579 0.919294 0.079602 -0.619121
H39   H     H_    0.690123 0.878790 0.089312 0.338247
O24   O     O_3   0.265819 0.068540 0.887442 -0.612836
H40   H     H_    0.304525 0.105787 0.867617 0.345200
O25   O     O_3   0.922025 0.730215 0.913022 -0.616477
H41   H     H_    0.878130 0.693244 0.910254 0.344663
O26   O     O_3   0.076017 0.270332 0.072455 -0.609860
H42   H     H_    0.118244 0.308732 0.066010 0.345050
O27   O     O_3   0.268720 0.920078 0.927087 -0.619139
H43   H     H_    0.306129 0.876358 0.926139 0.351421
O28   O     O_3   0.763393 0.039358 0.160645 -0.632156
H44   H     H_    0.744951 0.052987 0.212322 0.358115
O29   O     O_3   0.077866 0.269721 0.911771 -0.616684
H45   H     H_    0.121844 0.306578 0.908812 0.343640
O30   O     O_3   0.923361 0.729689 0.074346 -0.609946
H46   H     H_    0.880426 0.692115 0.067911 0.344485
O31   O     O_3   0.731269 0.079881 0.926803 -0.619521
H47   H     H_    0.693871 0.123609 0.925768 0.351454
O32   O     O_3   0.237889 0.960178 0.158701 -0.624830
H48   H     H_    0.262156 0.939608 0.205486 0.358887
N33   N     N_R   0.712701 0.600365 0.782881 0.282629
O33   O     O_R   0.743416 0.571019 0.844596 -0.270344
O34   O     O_R   0.647509 0.571689 0.758810 -0.320404
N34   N     N_R   0.287425 0.436645 0.145475 0.278297
O35   O     O_R   0.244584 0.457812 0.087765 -0.267683
O36   O     O_R   0.344902 0.480551 0.166326 -0.282334
N35   N     N_R   0.597663 0.294865 0.791729 0.283533
O37   O     O_R   0.567465 0.267406 0.854511 -0.272261
O38   O     O_R   0.569482 0.358836 0.763375 -0.315539
N36   N     N_R   0.368394 0.819322 0.276130 0.269758
O39   O     O_R   0.394847 0.889923 0.280178 -0.222994
O40   O     O_R   0.411640 0.764617 0.248076 -0.261020
N37   N     N_R   0.286975 0.398952 0.782044 0.282488
O41   O     O_R   0.256195 0.428072 0.843820 -0.274089
O42   O     O_R   0.352294 0.427592 0.758254 -0.321607
N38   N     N_R   0.707787 0.566637 0.139764 0.278524
O43   O     O_R   0.750149 0.547519 0.081027 -0.266010
O44   O     O_R   0.648810 0.523526 0.157914 -0.280321
N39   N     N_R   0.402531 0.705137 0.792408 0.283757
O45   O     O_R   0.432452 0.732329 0.855419 -0.272101
O46   O     O_R   0.431152 0.641565 0.763647 -0.315419
N40   N     N_R   0.633426 0.162521 0.286939 0.268422
O47   O     O_R   0.615205 0.090483 0.300446 -0.233332
O48   O     O_R   0.583145 0.208295 0.255166 -0.247842
N41   N     N_R   0.789780 0.369146 0.255229 0.258712
O49   O     O_R   0.854387 0.407595 0.252216 -0.244803
O50   O     O_R   0.727717 0.399085 0.225321 -0.300448
N42   N     N_R   0.166558 0.614514 0.728948 0.265228
O51   O     O_R   0.092725 0.617412 0.715451 -0.228631
O52   O     O_R   0.199120 0.547596 0.741357 -0.246444
N43   N     N_R   0.569647 0.777752 0.185245 0.295035
O53   O     O_R   0.553369 0.850140 0.199174 -0.204746
O54   O     O_R   0.521380 0.736242 0.145283 -0.267995
N44   N     N_R   0.385336 0.164691 0.721755 0.264048
O55   O     O_R   0.385406 0.090575 0.707255 -0.233808
O56   O     O_R   0.450320 0.199493 0.736618 -0.257573
N45   N     N_R   0.191595 0.628998 0.264953 0.261011
O57   O     O_R   0.124093 0.596387 0.271278 -0.240342
O58   O     O_R   0.247100 0.592206 0.230270 -0.287037
N46   N     N_R   0.833670 0.385184 0.728090 0.265305
O59   O     O_R   0.907429 0.382218 0.714219 -0.229313
O60   O     O_R   0.801220 0.452138 0.740596 -0.246916
N47   N     N_R   0.433175 0.229039 0.178629 0.274406
O61   O     O_R   0.448030 0.155561 0.169229 -0.239852
O62   O     O_R   0.483998 0.280045 0.156450 -0.264251
N48   N     N_R   0.614258 0.834686 0.722854 0.264960
O63   O     O_R   0.614136 0.908887 0.708750 -0.233396
O64   O     O_R   0.549280 0.799729 0.737395 -0.256501
N49   N     N_R   0.278696 0.130632 0.247403 0.262904
O65   O     O_R   0.340912 0.089858 0.258801 -0.242421
O66   O     O_R   0.212443 0.103828 0.270546 -0.298772
N50   N     N_R   0.789622 0.905293 0.708534 0.282928
O67   O     O_R   0.759788 0.935768 0.646935 -0.268211
O68   O     O_R   0.853142 0.934993 0.735614 -0.315810
N51   N     N_R   0.060592 0.748722 0.334290 0.279434
O69   O     O_R   0.043801 0.691860 0.380598 -0.266470
O70   O     O_R   0.008163 0.800751 0.319137 -0.272357
N52   N     N_R   0.897441 0.206827 0.715149 0.283922
O71   O     O_R   0.925938 0.234122 0.651508 -0.282625
O72   O     O_R   0.925433 0.142105 0.741978 -0.321940
N53   N     N_R   0.729750 0.865742 0.258664 0.263553
O73   O     O_R   0.670040 0.907338 0.277686 -0.230524
O74   O     O_R   0.798305 0.888414 0.279373 -0.297084
N54   N     N_R   0.210000 0.094171 0.707346 0.282968
O75   O     O_R   0.239508 0.063838 0.645538 -0.271803
O76   O     O_R   0.146910 0.064103 0.735030 -0.315429
N55   N     N_R   0.935890 0.263923 0.324688 0.279319
O77   O     O_R   0.950192 0.331387 0.355221 -0.254835
O78   O     O_R   0.988033 0.209639 0.329793 -0.266703
N56   N     N_R   0.102690 0.792810 0.715624 0.283366
O79   O     O_R   0.074008 0.765087 0.652262 -0.279690
O80   O     O_R   0.074923 0.857831 0.741946 -0.321734
N57   N     N_R   0.337473 0.883543 0.781344 0.264260
O81   O     O_R   0.410819 0.880995 0.797317 -0.235504
O82   O     O_R   0.305254 0.950220 0.766781 -0.255519
N58   N     N_R   0.781280 0.062175 0.354146 0.271383
O83   O     O_R   0.728747 0.039898 0.402819 -0.264844
O84   O     O_R   0.845527 0.023133 0.349971 -0.261360
N59   N     N_R   0.111733 0.329664 0.764850 0.265230
O85   O     O_R   0.111959 0.404395 0.775855 -0.227809
O86   O     O_R   0.046531 0.294304 0.752621 -0.249850
N60   N     N_R   0.863846 0.649188 0.207736 0.269089
O87   O     O_R   0.875504 0.578275 0.184609 -0.240374
O88   O     O_R   0.918438 0.685549 0.244174 -0.235908
N61   N     N_R   0.662593 0.116332 0.781039 0.264386
O89   O     O_R   0.589187 0.118932 0.796732 -0.234995
O90   O     O_R   0.694853 0.049608 0.766818 -0.255074
N62   N     N_R   0.232990 0.938332 0.347232 0.269493
O91   O     O_R   0.296447 0.961577 0.379961 -0.259712
O92   O     O_R   0.169946 0.977923 0.358512 -0.257769
N63   N     N_R   0.887948 0.669877 0.766128 0.265315
O93   O     O_R   0.887777 0.595177 0.777379 -0.227946
O94   O     O_R   0.953126 0.705239 0.753736 -0.249540
N64   N     N_R   0.134797 0.345041 0.208529 0.265654
O95   O     O_R   0.120794 0.416741 0.189327 -0.242216
O96   O     O_R   0.081596 0.304911 0.242937 -0.237398

loop_
_geom_bond_atom_site_label_1
_geom_bond_atom_site_label_2
_geom_bond_distance
_ccdc_geom_bond_type
C4    N4    1.339101 A    
C5    N5    1.323642 A    
C6    O6    1.376494 S    
O28   H44   0.983030 S    
C85   N53   1.457916 S    
N17   N28   1.399355 A    
C25   N25   1.321490 A    
N18   N27   1.399355 A    
N50   O67   1.300323 A    
C84   N52   1.459436 S    
C15   O15   1.377487 S    
N21   N32   1.399355 A    
N22   N31   1.399355 A    
N23   N30   1.398633 A    
C39   C73   1.537563 S    
C40   C104  1.539431 S    
C92   N60   1.457038 S    
N23   Ni8   1.881927 S    
C2    C50   1.373212 A    
N3    N10   1.398633 A    
N40   O48   1.296554 A    
C89   N57   1.457541 S    
C23   C63   1.382292 A    
N35   O37   1.300293 A    
N46   O59   1.299305 A    
C6    C54   1.377829 A    
C42   C96   1.537693 S    
C35   C54   1.467678 S    
N36   O40   1.297137 A    
N51   O70   1.300567 A    
N64   O95   1.300126 A    
C104  H8    1.110639 S    
C21   O21   1.370903 S    
C2    O2    1.377740 S    
C33   C97   1.555060 S    
C98   H2    1.110471 S    
C28   N28   1.339201 A    
O16   H32   0.991747 S    
N37   O41   1.300459 A    
N8    Ni3   1.881926 S    
C102  H6    1.110465 S    
N38   O44   1.300222 A    
C86   N54   1.459850 S    
N63   O93   1.299423 A    
N39   O45   1.300304 A    
C19   C59   1.380770 A    
N60   O87   1.299995 A    
O23   H39   0.989876 S    
C91   N59   1.456874 S    
O24   H40   0.988888 S    
O31   H47   0.991805 S    
C74   C88   1.524254 S    
C25   C60   1.367034 A    
O4    H20   0.983304 S    
C97   H1    1.111770 S    
C78   C84   1.524343 S    
C17   O17   1.369768 S    
C88   C104  1.539506 S    
C95   C98   1.543822 S    
N29   Ni5   1.887221 S    
C100  H4    1.110636 S    
C101  H5    1.111578 S    
N54   O75   1.300318 A    
C10   C51   1.364295 A    
N45   O58   1.298502 A    
N6    Ni1   1.887255 S    
C36   C100  1.539373 S    
C14   C55   1.363833 A    
C39   C103  1.552787 S    
C23   O23   1.377455 S    
N43   O54   1.300594 A    
N13   Ni1   1.887221 S    
C70   C110  1.551525 S    
C77   N45   1.456313 S    
C23   N23   1.340051 A    
C24   N24   1.321519 A    
C9    N9    1.331610 A    
C93   N61   1.457587 S    
C12   N12   1.320706 A    
C13   N13   1.339329 A    
C105  H9    1.110642 S    
C111  H15   1.110470 S    
N9    Ni2   1.887277 S    
C31   O31   1.375916 S    
C24   O24   1.373554 S    
N27   Ni7   1.882375 S    
O5    H21   0.988883 S    
O14   H30   0.991814 S    
C42   C81   1.537261 S    
C44   C108  1.555338 S    
O13   H29   0.990164 S    
C7    N7    1.323812 A    
C8    N8    1.340307 A    
N41   O50   1.299125 A    
C46   C85   1.536394 S    
N60   O88   1.298408 A    
C68   C108  1.531167 S    
C28   C57   1.401484 A    
C48   C57   1.478143 S    
N11   Ni3   1.882375 S    
C15   C54   1.370818 A    
N28   Ni8   1.882374 S    
C22   N22   1.325782 A    
C89   C104  1.543563 S    
C79   C106  1.551508 S    
N30   Ni6   1.887222 S    
O27   H43   0.991806 S    
C66   N34   1.455641 S    
C77   C108  1.529289 S    
C66   C106  1.552717 S    
C78   C107  1.543913 S    
N7    Ni4   1.881927 S    
C76   N44   1.457535 S    
C110  H14   1.110422 S    
C83   C99   1.552457 S    
N34   O35   1.300314 A    
N41   O49   1.299704 A    
C45   C91   1.533378 S    
C81   C97   1.532057 S    
C46   C92   1.537445 S    
C36   C78   1.534462 S    
N14   Ni2   1.887222 S    
C85   C101  1.533551 S    
N57   O82   1.299538 A    
C4    O4    1.371566 S    
C6    N6    1.340010 A    
C99   H3    1.110229 S    
C35   C99   1.552864 S    
N33   O33   1.300448 A    
N32   Ni7   1.881913 S    
C26   C59   1.368345 A    
C65   C95   1.524143 S    
C66   C96   1.527526 S    
C69   N37   1.459347 S    
N10   Ni1   1.887276 S    
C81   N49   1.457507 S    
C9    C52   1.391017 A    
C76   C109  1.543267 S    
N58   O84   1.300001 A    
O29   H45   0.991646 S    
C78   N46   1.457150 S    
C79   C81   1.525911 S    
C29   N29   1.321361 A    
C27   O27   1.375955 S    
C7    O7    1.373741 S    
C13   C56   1.383919 A    
C43   C84   1.539270 S    
C108  H12   1.111986 S    
C31   N31   1.320730 A    
N20   Ni8   1.882390 S    
C109  H13   1.110660 S    
C32   N32   1.336942 A    
C17   N17   1.333660 A    
C94   C99   1.555046 S    
O25   H41   0.991669 S    
C29   C64   1.367135 A    
C41   C105  1.539387 S    
N63   O94   1.299120 A    
N62   O92   1.300118 A    
N53   O73   1.298906 A    
N55   O78   1.300671 A    
C37   C70   1.536668 S    
C72   N40   1.454056 S    
C34   C98   1.539978 S    
C3    N3    1.323703 A    
C39   C72   1.536859 S    
O21   H37   0.983647 S    
N35   O38   1.300294 A    
C91   C102  1.543882 S    
C18   O18   1.373491 S    
N44   O56   1.299673 A    
C8    O8    1.371749 S    
C41   C82   1.538940 S    
N59   O86   1.299060 A    
C34   C65   1.539290 S    
C92   C101  1.533003 S    
C37   C75   1.541906 S    
C26   O26   1.376853 S    
N1    N12   1.399355 A    
N2    N11   1.399355 A    
N42   O51   1.299322 A    
N49   O66   1.299333 A    
N16   Ni3   1.881913 S    
N50   O68   1.300314 A    
N56   O80   1.300260 A    
C107  H11   1.110471 S    
C2    N2    1.336051 A    
C39   C50   1.467155 S    
O15   H31   0.990770 S    
C40   C71   1.538849 S    
C87   N55   1.454583 S    
N46   O60   1.299076 A    
N48   O63   1.299408 A    
N64   O96   1.297021 A    
N2    Ni2   1.887214 S    
C20   O20   1.373585 S    
C72   C90   1.526801 S    
C17   C57   1.394719 A    
C41   C60   1.426912 S    
C14   O14   1.375905 S    
N31   Ni8   1.881912 S    
C10   N10   1.321444 A    
C25   O25   1.373787 S    
N47   O61   1.299710 A    
C47   C88   1.539191 S    
N43   O53   1.299056 A    
C14   N14   1.321316 A    
O7    H23   0.989561 S    
C106  H10   1.110289 S    
C35   C68   1.535235 S    
C37   C101  1.558907 S    
C47   C89   1.535621 S    
C40   C74   1.534595 S    
C3    C51   1.375394 A    
N52   O71   1.300458 A    
O17   H33   0.985929 S    
N61   O90   1.299528 A    
C71   C89   1.525479 S    
C30   C63   1.367315 A    
C69   C91   1.523940 S    
C72   C112  1.532218 S    
C70   C92   1.529022 S    
C36   C67   1.538926 S    
C15   N15   1.336203 A    
N54   O76   1.300303 A    
C96   N64   1.455735 S    
C95   N63   1.456963 S    
C80   C105  1.543448 S    
C13   O13   1.369829 S    
N45   O57   1.300076 A    
C73   C112  1.530686 S    
N4    N9    1.398633 A    
C73   N41   1.456776 S    
C74   C111  1.543882 S    
C112  H16   1.111826 S    
N8    N13   1.398633 A    
O20   H36   0.988986 S    
C31   C62   1.363261 A    
C82   C98   1.540849 S    
C45   C109  1.539216 S    
O26   H42   0.991210 S    
N3    Ni3   1.882389 S    
C96   C97   1.531830 S    
C38   C76   1.534779 S    
O19   H35   0.990426 S    
C67   N35   1.459986 S    
C86   C102  1.541006 S    
C41   C95   1.533600 S    
O12   H28   0.991733 S    
C11   O11   1.377240 S    
N55   O77   1.300181 A    
C68   C94   1.526147 S    
N40   O47   1.299855 A    
C67   C107  1.541063 S    
C88   N56   1.459483 S    
O22   H38   0.989355 S    
C20   C60   1.374698 A    
C65   C105  1.539137 S    
C22   O22   1.373458 S    
N36   O39   1.299612 A    
C33   C79   1.541940 S    
N19   N26   1.398633 A    
N15   Ni4   1.881912 S    
C26   N26   1.334496 A    
C83   N51   1.456176 S    
C30   N30   1.333615 A    
N5    Ni2   1.887254 S    
C94   N62   1.455357 S    
N38   O43   1.300301 A    
C18   N18   1.325578 A    
C70   N38   1.455745 S    
C12   O12   1.373891 S    
C44   C94   1.542216 S    
C30   O30   1.376829 S    
C42   C106  1.550974 S    
N12   Ni4   1.882374 S    
C75   C85   1.526764 S    
C43   C93   1.535745 S    
C103  H7    1.110238 S    
C42   C59   1.464603 S    
C43   C107  1.540283 S    
O10   H26   0.991792 S    
C67   C93   1.525502 S    
O9    H25   0.986533 S    
N34   O36   1.300400 A    
O11   H27   0.990249 S    
N20   N25   1.398633 A    
C79   N47   1.454674 S    
O6    H22   0.991123 S    
C93   C100  1.543607 S    
C20   N20   1.321855 A    
N57   O81   1.299371 A    
C68   N36   1.453154 S    
N24   N29   1.398633 A    
C45   C64   1.426236 S    
C74   N42   1.457122 S    
C45   C86   1.538769 S    
C4    C52   1.403148 A    
C33   C52   1.475661 S    
O2    H18   0.991214 S    
C27   C58   1.363217 A    
O1    H17   0.988847 S    
C47   C58   1.429711 S    
C8    C56   1.401778 A    
C29   O29   1.373638 S    
O8    H24   0.984386 S    
C37   C56   1.475409 S    
C16   N16   1.320867 A    
C1    N1    1.323641 A    
O3    H19   0.989526 S    
C16   C53   1.366151 A    
C90   N58   1.454826 S    
N47   O62   1.300678 A    
C9    O9    1.370029 S    
N39   O46   1.300280 A    
C71   N39   1.459954 S    
N25   Ni6   1.887277 S    
C3    O3    1.373733 S    
O30   H46   0.990961 S    
C43   C62   1.430048 S    
C11   N11   1.338793 A    
N21   Ni6   1.887254 S    
C21   C61   1.398704 A    
C32   O32   1.372030 S    
C34   C80   1.534744 S    
C80   C82   1.525543 S    
C38   C102  1.539988 S    
C48   C90   1.540252 S    
N17   Ni5   1.887215 S    
C12   C49   1.366000 A    
N42   O52   1.299006 A    
N19   Ni7   1.882389 S    
N24   Ni7   1.881926 S    
C87   C103  1.551001 S    
N59   O85   1.299428 A    
N49   O65   1.299253 A    
C84   C100  1.539581 S    
C24   C64   1.374556 A    
C69   C109  1.538821 S    
C38   C69   1.539299 S    
C35   C77   1.536495 S    
C80   N48   1.457516 S    
C10   O10   1.375855 S    
N5    N16   1.399355 A    
C90   C103  1.554098 S    
N33   O34   1.300320 A    
C5    O5    1.373476 S    
N6    N15   1.399355 A    
C16   O16   1.374085 S    
C75   N43   1.454721 S    
N7    N14   1.398633 A    
N51   O69   1.300257 A    
N48   O64   1.299632 A    
N26   Ni5   1.887276 S    
C33   C66   1.538074 S    
N58   O83   1.300259 A    
C46   C110  1.548108 S    
C47   C111  1.540113 S    
C44   C61   1.478880 S    
C48   C112  1.554902 S    
N56   O79   1.300448 A    
C1    C49   1.376949 A    
C46   C63   1.463854 S    
C32   C61   1.401098 A    
C44   C83   1.541722 S    
C65   N33   1.459401 S    
C71   C111  1.541091 S    
N22   Ni5   1.887255 S    
C5    C53   1.376798 A    
C34   C51   1.427990 S    
C73   C87   1.525358 S    
C48   C87   1.540976 S    
C7    C55   1.375327 A    
C36   C53   1.428743 S    
C22   C62   1.377617 A    
N62   O91   1.299855 A    
N37   O42   1.300320 A    
C38   C55   1.427593 S    
C77   C83   1.525812 S    
N53   O74   1.299390 A    
C27   N27   1.320763 A    
C21   N21   1.334258 A    
C40   C49   1.428552 S    
C11   C50   1.377748 A    
C82   N50   1.459838 S    
N4    Ni4   1.882390 S    
C28   O28   1.371911 S    
C75   C110  1.553258 S    
C1    O1    1.373454 S    
N52   O72   1.300245 A    
N61   O89   1.299360 A    
N44   O55   1.299412 A    
N18   Ni6   1.887214 S    
C19   N19   1.339194 A    
O32   H48   0.982153 S    
C19   O19   1.377456 S    
C76   C86   1.525588 S    
C18   C58   1.377480 A    
O18   H34   0.989367 S    
N1    Ni1   1.887215 S    
