data_mof_unit_19439.cif
_audit_creation_date              2012-12-10T19:50:54-0500
_audit_creation_method            fapswitch 2.2
_symmetry_space_group_name_H-M    P1
_symmetry_Int_Tables_number       1
_space_group_crystal_system       triclinic
_cell_length_a                    23.487204
_cell_length_b                    10.823407
_cell_length_c                    22.215878
_cell_angle_alpha                 89.474813
_cell_angle_beta                  89.943072
_cell_angle_gamma                 91.410779
_cell_volume                      5645.57990187

loop_
_atom_site_label
_atom_site_type_symbol
_atom_type_description
_atom_site_fract_x
_atom_site_fract_y
_atom_site_fract_z
_atom_type_partial_charge
C1    C     C_R   0.499381 0.262283 0.500312 0.842248
C2    C     C_R   0.702305 0.493334 0.445952 -0.246712
C3    C     C_R   0.238384 0.494538 0.553539 -0.182694
C4    C     C_R   0.761489 0.488048 0.446480 -0.177579
C5    C     C_R   0.209001 0.512498 0.499541 0.347326
C6    C     C_R   0.790719 0.477022 0.501037 0.350621
C7    C     C_R   0.307784 0.211805 0.499369 -0.175365
C8    C     C_R   0.694651 0.799002 0.533861 -0.100453
C9    C     C_R   0.362331 0.170227 0.513610 0.242903
C10   C     C_R   0.646475 0.853522 0.508446 0.244367
C11   C     C_R   0.397899 0.129473 0.466696 0.102365
C12   C     C_R   0.500083 0.737886 0.499753 0.839502
C13   C     C_R   0.597811 0.870366 0.545032 0.035991
C14   C     C_R   0.380960 0.145402 0.406546 -0.203954
C15   C     C_R   0.597541 0.826729 0.604760 -0.119848
C16   C     C_R   0.390763 0.502642 0.500027 0.828763
C17   C     C_R   0.609248 0.497570 0.499994 0.814853
C18   C     C_R   0.327282 0.190708 0.393107 -0.172773
C19   C     C_R   0.645528 0.771524 0.628955 -0.154518
C20   C     C_R   0.290181 0.220511 0.439513 -0.102360
C21   C     C_R   0.694286 0.759577 0.593874 -0.171943
C22   C     C_R   0.451570 0.933188 0.477044 0.087446
C23   C     C_R   0.239280 0.533408 0.445576 0.281698
C24   C     C_R   0.547926 0.067483 0.522935 0.078509
C25   C     C_R   0.499797 0.871768 0.499242 -0.135136
C26   C     C_R   0.499631 0.128661 0.501149 -0.111406
C27   C     C_R   0.547442 0.937538 0.522566 -0.059955
C28   C     C_R   0.451142 0.063141 0.480171 -0.022241
C29   C     C_R   0.494827 0.388982 0.872785 0.524235
C30   C     C_R   0.497511 0.609490 0.127132 0.522646
C31   C     C_R   0.500979 0.609263 0.871765 0.525369
C32   C     C_R   0.497179 0.389121 0.128190 0.525903
C33   C     C_R   0.499632 0.611526 0.935434 -0.021381
C34   C     C_R   0.760376 0.468785 0.555568 0.279684
C35   C     C_R   0.496026 0.386876 0.064510 -0.022345
C36   C     C_R   0.497450 0.499181 0.967929 -0.013421
C37   C     C_R   0.497288 0.499227 0.032006 -0.013171
C38   C     C_R   0.495130 0.386808 0.936484 -0.016116
C39   C     C_R   0.498104 0.611627 0.063441 -0.016086
C40   C     C_R   0.879334 0.594027 0.505952 0.551535
C41   C     C_R   0.120305 0.395113 0.497773 0.518137
C42   C     C_R   0.500629 0.723263 0.967378 -0.165725
C43   C     C_R   0.493923 0.275155 0.032559 -0.165422
C44   C     C_R   0.499513 0.723312 0.030452 -0.166287
C45   C     C_R   0.298873 0.530941 0.446110 -0.303277
C46   C     C_R   0.493120 0.275134 0.969476 -0.166332
C47   C     C_R   0.452642 0.456591 0.257062 -0.266183
C48   C     C_R   0.454058 0.542913 0.743268 -0.263646
C49   C     C_R   0.453487 0.456518 0.320242 0.026347
C50   C     C_R   0.454620 0.543385 0.680095 0.026639
C51   C     C_R   0.547056 0.541631 0.320033 0.016251
C52   C     C_R   0.546079 0.457344 0.679549 -0.000344
C53   C     C_R   0.549080 0.540725 0.256462 0.092240
C54   C     C_R   0.548291 0.457156 0.743109 0.088521
C55   C     C_R   0.500332 0.499342 0.224084 0.357805
C56   C     C_R   0.700914 0.474386 0.554788 -0.287173
C57   C     C_R   0.500769 0.499238 0.775859 0.356719
C58   C     C_R   0.880883 0.374663 0.494906 0.540205
C59   C     C_R   0.118858 0.615483 0.503108 0.569076
C60   C     C_R   0.940622 0.377380 0.495689 -0.014817
C61   C     C_R   0.059091 0.612542 0.503990 -0.021869
C62   C     C_R   0.969800 0.492204 0.500555 -0.018174
C63   C     C_R   0.029890 0.497499 0.500492 -0.017860
C64   C     C_R   0.939028 0.601772 0.505300 -0.013042
C65   C     C_R   0.060638 0.387694 0.497031 -0.006627
C66   C     C_R   0.971735 0.268562 0.491722 -0.169303
C67   C     C_R   0.328329 0.509320 0.500057 -0.059770
C68   C     C_R   0.027964 0.721304 0.508281 -0.166418
C69   C     C_R   0.031137 0.273596 0.492790 -0.166965
C70   C     C_R   0.968542 0.715924 0.509224 -0.164249
C71   C     C_3   0.399726 0.860404 0.452871 -0.406190
C72   C     C_3   0.355565 0.832160 0.501740 -0.809776
C73   C     C_3   0.600070 0.140712 0.545567 -0.369185
C74   C     C_3   0.598434 0.157302 0.613747 -0.781196
C75   C     C_3   0.604066 0.579306 0.225228 -0.423788
C76   C     C_3   0.635745 0.467237 0.202789 -0.793945
C77   C     C_3   0.602015 0.415300 0.773938 -0.417749
C78   C     C_R   0.671601 0.488630 0.500183 -0.058786
C79   C     C_3   0.637172 0.524922 0.797486 -0.810670
C80   C     C_3   0.195351 0.452740 0.355708 -0.692027
C81   C     C_3   0.795289 0.335391 0.633617 -0.656107
C82   C     C_3   0.378826 0.067201 0.609643 -0.674333
C83   C     C_3   0.653794 0.800800 0.403066 -0.690549
C84   C     C_R   0.297660 0.494317 0.553996 -0.260376
Cu1   Cu    Cu3+1 0.500000 0.499970 0.559570 0.945659
Cu2   Cu    Cu3+1 0.500000 0.500030 0.440430 0.938766
H1    H     H_    0.950315 0.179168 0.488117 0.187104
H2    H     H_    0.491372 0.187133 0.946652 0.186458
H3    H     H_    0.414918 0.423096 0.233792 0.155440
H4    H     H_    0.417287 0.576674 0.766857 0.158189
H5    H     H_    0.416568 0.421264 0.344537 0.143194
H6    H     H_    0.418476 0.578984 0.656054 0.135882
H7    H     H_    0.583958 0.573685 0.344742 0.119711
H8    H     H_    0.581901 0.424186 0.654454 0.129895
H9    H     H_    0.053828 0.187926 0.489923 0.188324
H10   H     H_    0.945847 0.801467 0.512791 0.187411
H11   H     H_    0.321973 0.545643 0.404315 0.160083
H12   H     H_    0.049387 0.810827 0.511128 0.186663
H13   H     H_    0.677906 0.469360 0.597065 0.154120
H14   H     H_    0.319362 0.478839 0.596280 0.158135
H15   H     H_    0.680719 0.503199 0.403187 0.161450
H16   H     H_    0.215088 0.479561 0.595157 0.153047
H17   H     H_    0.784868 0.494805 0.404499 0.150874
H18   H     H_    0.248135 0.252886 0.429096 0.184052
H19   H     H_    0.731860 0.719132 0.613124 0.156074
H20   H     H_    0.279165 0.238894 0.534812 0.171695
H21   H     H_    0.732898 0.788635 0.507355 0.190315
H22   H     H_    0.320842 0.772930 0.483071 0.257901
H23   H     H_    0.408600 0.118257 0.370172 0.151855
H24   H     H_    0.375205 0.783309 0.540380 0.243325
H25   H     H_    0.335996 0.918170 0.517208 0.268519
H26   H     H_    0.379164 0.910084 0.415364 0.213465
H27   H     H_    0.411587 0.772425 0.432034 0.219737
H28   H     H_    0.557520 0.196858 0.628061 0.268802
H29   H     H_    0.603663 0.067689 0.637301 0.251660
H30   H     H_    0.633814 0.220778 0.627590 0.217472
H31   H     H_    0.640196 0.095625 0.533099 0.213100
H32   H     H_    0.603675 0.232959 0.523618 0.184235
H33   H     H_    0.644324 0.402940 0.240800 0.255833
H34   H     H_    0.560421 0.838049 0.632984 0.155917
H35   H     H_    0.610624 0.417615 0.167923 0.266963
H36   H     H_    0.677027 0.498070 0.182615 0.240632
H37   H     H_    0.596023 0.643329 0.187166 0.241399
H38   H     H_    0.632567 0.630588 0.256768 0.191841
H39   H     H_    0.648354 0.589669 0.760030 0.242855
H40   H     H_    0.613399 0.574849 0.832461 0.268752
H41   H     H_    0.677167 0.491366 0.817806 0.241747
H42   H     H_    0.591877 0.350098 0.811371 0.242645
H43   H     H_    0.628979 0.364200 0.741903 0.188635
H44   H     H_    0.230181 0.628139 0.365621 0.257440
H45   H     H_    0.313982 0.200248 0.346704 0.143385
H46   H     H_    0.170627 0.481517 0.315611 0.236290
H47   H     H_    0.168653 0.386018 0.382181 0.255413
H48   H     H_    0.234592 0.407082 0.340286 0.211164
H49   H     H_    0.773553 0.517239 0.643807 0.243574
H50   H     H_    0.820636 0.336473 0.675775 0.226687
H51   H     H_    0.817633 0.278211 0.600303 0.271572
H52   H     H_    0.752598 0.293157 0.643385 0.212905
H53   H     H_    0.366481 0.253614 0.596695 0.253685
H54   H     H_    0.394542 0.086286 0.655841 0.240291
H55   H     H_    0.406005 0.995295 0.590379 0.250002
H56   H     H_    0.645195 0.739755 0.675252 0.140639
H57   H     H_    0.333913 0.032942 0.612651 0.224517
H58   H     H_    0.619037 0.960906 0.435703 0.259738
H59   H     H_    0.654761 0.842902 0.357294 0.231916
H60   H     H_    0.616731 0.735560 0.406287 0.229955
H61   H     H_    0.693852 0.750146 0.409546 0.238677
H62   H     H_    0.502145 0.811245 0.943742 0.187045
H63   H     H_    0.492767 0.187169 0.056196 0.187477
H64   H     H_    0.500224 0.811331 0.053272 0.186685
N1    N     N_R   0.851708 0.481731 0.500942 -0.450882
N2    N     N_2   0.648693 0.896516 0.447548 -0.432267
N3    N     N_R   0.147994 0.507803 0.499850 -0.450512
N4    N     N_R   0.499376 0.498993 0.841460 -0.447408
N5    N     N_R   0.498743 0.499412 0.158482 -0.448017
N6    N     N_R   0.500010 0.500010 0.350920 -0.178266
N7    N     N_R   0.499990 0.499990 0.649080 -0.176508
N8    N     N_2   0.209978 0.560155 0.391218 -0.416044
N9    N     N_2   0.789751 0.460399 0.611293 -0.432613
N10   N     N_2   0.382538 0.179409 0.573946 -0.427158
O1    O     O_R   0.500000 0.319610 0.550310 -0.559267
O2    O     O_2   0.150499 0.290727 0.496153 -0.573480
O3    O     O_2   0.852147 0.266221 0.488069 -0.548386
O4    O     O_2   0.147674 0.724698 0.505743 -0.537064
O5    O     O_2   0.489724 0.281801 0.842527 -0.550687
O6    O     O_2   0.495514 0.716811 0.157370 -0.548911
O7    O     O_2   0.504376 0.716636 0.840520 -0.542095
O8    O     O_2   0.497296 0.281707 0.159448 -0.538121
O9    O     O_R   0.500000 0.680390 0.449690 -0.591290
O10   O     O_R   0.499990 0.319670 0.449690 -0.580798
O11   O     O_R   0.500010 0.680330 0.550310 -0.576306
O12   O     O_R   0.417880 0.499930 0.550320 -0.598456
O13   O     O_R   0.582120 0.500070 0.449680 -0.601182
O14   O     O_R   0.417880 0.499990 0.449700 -0.593712
O15   O     O_R   0.582120 0.500010 0.550300 -0.586928
O16   O     O_2   0.849051 0.697714 0.511330 -0.562817

loop_
_geom_bond_atom_site_label_1
_geom_bond_atom_site_label_2
_ccdc_geom_bond_type
C14   H23   S    
C63   C65   A    
C34   C56   A    
C81   N9    S    
Cu2   O9    S    
Cu1   O1    S    
C73   C74   S    
C14   C18   A    
C49   N6    A    
C2    C4    A    
C24   C27   A    
C42   H62   S    
C59   N3    A    
C80   H48   S    
C48   C57   A    
C47   C49   A    
Cu1   Cu2   S    
C15   C19   A    
Cu1   O11   S    
Cu1   N7    S    
C23   C45   A    
C76   H35   S    
C36   C37   A    
C35   C37   A    
C24   C26   A    
C11   C14   A    
C5    N3    S    
C24   C73   S    
C66   C69   A    
C58   C60   A    
C80   H46   S    
C32   N5    A    
C23   N8    S    
C1    O10   A    
C33   C36   A    
C56   C78   A    
C15   H34   S    
C71   H27   S    
C4    H17   S    
C60   C62   A    
C29   O5    S    
C61   C63   A    
Cu2   N6    S    
C62   C64   A    
C59   O4    S    
C10   N2    S    
C83   H59   S    
C72   H22   S    
C52   C54   A    
C22   C25   A    
C29   C38   A    
C45   C67   A    
C82   H54   S    
C31   C33   A    
C52   H8    S    
C64   C70   A    
C35   C43   A    
C46   H2    S    
C43   H63   S    
C54   C77   S    
C34   N9    S    
C48   C50   A    
C79   H39   S    
C72   H25   S    
C1    O1    A    
C67   C84   A    
C48   H4    S    
C41   O2    S    
C47   H3    S    
C18   H45   S    
C53   C75   S    
C42   C44   A    
C49   H5    S    
C82   H55   S    
C58   O3    S    
C17   O13   A    
C12   O11   A    
C41   N3    A    
C77   C79   S    
C50   N7    A    
C81   H52   S    
C72   H24   S    
C51   N6    A    
C59   C61   A    
Cu1   O12   S    
H49   N9    S    
C75   H38   S    
C76   H33   S    
C32   C35   A    
C73   H31   S    
C30   O6    S    
C4    C6    A    
C55   N5    S    
C66   H1    S    
C40   O16   S    
C41   C65   A    
C2    H15   S    
C3    C5    A    
C81   H51   S    
C44   H64   S    
C80   H47   S    
C6    C34   A    
C40   N1    A    
Cu2   O14   S    
C84   H14   S    
C70   H10   S    
C75   C76   S    
C62   C63   A    
C2    C78   A    
C83   H60   S    
C82   N10   S    
C16   O12   A    
C80   N8    S    
C5    C23   A    
C74   H30   S    
C71   H26   S    
C8    C21   A    
C7    H20   S    
C16   C67   S    
C77   H43   S    
C9    C11   A    
C12   O9    A    
C77   H42   S    
C51   H7    S    
C83   H61   S    
C6    N1    S    
C3    H16   S    
C50   H6    S    
C30   N5    A    
C79   H40   S    
C31   O7    S    
H53   N10   S    
C19   H56   S    
C32   O8    S    
C1    C26   S    
C75   H37   S    
C33   C42   A    
C53   C55   A    
C8    H21   S    
C22   C71   S    
C31   N4    A    
C58   N1    A    
C81   H50   S    
C47   C55   A    
C83   N2    S    
C16   O14   A    
C52   N7    A    
C7    C9    A    
C79   H41   S    
C73   H32   S    
C19   C21   A    
Cu2   O10   S    
C8    C10   A    
C82   H57   S    
C69   H9    S    
C10   C13   A    
C40   C64   A    
C39   C44   A    
C20   H18   S    
C25   C27   A    
C57   N4    S    
C26   C28   A    
C9    N10   S    
C12   C25   S    
H44   N8    S    
Cu2   O13   S    
C76   H36   S    
C13   C15   A    
C71   C72   S    
H58   N2    S    
C45   H11   S    
C61   C68   A    
C11   C28   S    
C65   C69   A    
C74   H29   S    
C36   C38   A    
C17   C78   S    
Cu1   O15   S    
C30   C39   A    
C18   C20   A    
C43   C46   A    
C68   H12   S    
C38   C46   A    
C60   C66   A    
C37   C39   A    
C7    C20   A    
C3    C84   A    
C68   C70   A    
C13   C27   S    
C22   C28   A    
C56   H13   S    
C51   C53   A    
C21   H19   S    
C17   O15   A    
C29   N4    A    
C54   C57   A    
C74   H28   S    
