data_mof_unit_44124.cif
_audit_creation_date              2013-03-05T16:06:53-0500
_audit_creation_method            fapswitch 2.2
_symmetry_space_group_name_H-M    P1
_symmetry_Int_Tables_number       1
_space_group_crystal_system       triclinic
_cell_length_a                    14.909009
_cell_length_b                    15.168519
_cell_length_c                    27.72969
_cell_angle_alpha                 89.822432
_cell_angle_beta                  105.206994
_cell_angle_gamma                 81.992572
_cell_volume                      5987.26093914

loop_
_atom_site_label
_atom_site_type_symbol
_atom_site_description
_atom_site_fract_x
_atom_site_fract_y
_atom_site_fract_z
_atom_type_partial_charge
O1    O     O_R   0.383110 0.605620 0.485680 -0.614835
O2    O     O_R   0.616890 0.394380 0.514320 -0.612601
O3    O     O_R   0.531900 0.639510 0.503910 -0.597039
O4    O     O_R   0.468100 0.360490 0.496090 -0.595605
C1    C     C_R   0.441016 0.663644 0.492815 0.877853
C2    C     C_R   0.558886 0.336287 0.508885 0.860471
O5    O     O_R   0.425620 0.483050 0.562130 -0.617302
O6    O     O_R   0.574380 0.516950 0.437870 -0.573173
O7    O     O_R   0.574410 0.516930 0.580360 -0.576829
O8    O     O_R   0.425590 0.483070 0.419640 -0.640063
C3    C     C_R   0.501625 0.499709 0.594329 0.914116
C4    C     C_R   0.498238 0.501281 0.405809 0.903519
Zn1   Zn    Zn3+2 0.400660 0.477380 0.487830 0.973993
Zn2   Zn    Zn3+2 0.599340 0.522620 0.512170 1.019401
C5    C     C_R   0.434318 0.554127 0.814498 0.498743
C6    C     C_R   0.523839 0.410523 0.180601 0.502768
O9    O     O_2   0.375261 0.615301 0.781392 -0.587206
O10   O     O_2   0.559152 0.336392 0.210301 -0.573149
N1    N     N_R   0.494514 0.491526 0.798827 -0.344192
N2    N     N_R   0.485745 0.485373 0.199443 -0.343443
C7    C     C_R   0.554154 0.427449 0.830985 0.555183
C8    C     C_R   0.447240 0.561128 0.170378 0.550290
C9    C     C_R   0.575662 0.524019 0.735511 -0.072673
C10   C     C_R   0.558408 0.534987 0.283036 -0.082085
C11   C     C_R   0.579471 0.524390 0.685317 0.278140
C12   C     C_R   0.558553 0.543658 0.333538 0.257239
C13   C     C_R   0.427480 0.471050 0.661497 -0.232286
C14   C     C_R   0.431666 0.453067 0.320663 -0.277710
C15   C     C_R   0.424790 0.469587 0.710981 -0.104607
C16   C     C_R   0.430116 0.446803 0.270622 -0.098787
C17   C     C_R   0.498171 0.495631 0.747928 0.231316
C18   C     C_R   0.492833 0.487364 0.251753 0.234370
C19   C     C_R   0.499000 0.492938 0.899213 -0.056821
C20   C     C_R   0.493179 0.490361 0.100867 -0.054473
C21   C     C_R   0.435264 0.555994 0.865022 -0.010970
C22   C     C_R   0.528372 0.411542 0.130852 -0.013920
C23   C     C_R   0.374140 0.619172 0.881956 -0.141349
C24   C     C_R   0.567599 0.336125 0.110655 -0.144460
C25   C     C_R   0.558368 0.427573 0.881973 -0.088730
C26   C     C_R   0.451172 0.565451 0.120639 -0.085471
C27   C     C_R   0.504148 0.498179 0.647826 -0.176672
C28   C     C_R   0.495587 0.500773 0.352569 -0.171740
H1    H     H_    0.368937 0.450425 0.633874 0.196708
H2    H     H_    0.383138 0.419704 0.334515 0.173428
H3    H     H_    0.365485 0.447749 0.720813 0.155880
H4    H     H_    0.379551 0.410849 0.246219 0.156193
H5    H     H_    0.322011 0.666095 0.856147 0.190526
H6    H     H_    0.591927 0.273789 0.132336 0.194197
C29   C     C_R   0.457604 0.570968 0.020030 -0.072260
C30   C     C_R   0.561536 0.427072 0.984103 -0.071739
C31   C     C_R   0.548126 0.420059 0.032604 0.083979
C32   C     C_R   0.447314 0.564841 0.967994 0.085325
C33   C     C_R   0.499863 0.493949 0.051111 0.045442
C34   C     C_R   0.502918 0.495073 0.950571 0.045793
C35   C     C_R   0.425071 0.649445 0.042177 0.267224
C36   C     C_R   0.628593 0.367791 0.967090 0.270857
C37   C     C_R   0.419057 0.644575 0.091509 -0.186295
C38   C     C_R   0.623653 0.366763 0.916071 -0.181469
O11   O     O_2   0.406737 0.632396 0.189988 -0.563267
O12   O     O_2   0.609627 0.364441 0.813582 -0.555152
C39   C     C_R   0.379276 0.622815 0.932604 -0.129082
C40   C     C_R   0.576266 0.339993 0.062058 -0.124984
H7    H     H_    0.393271 0.704437 0.107838 0.226810
H8    H     H_    0.674281 0.320698 0.903440 0.227131
H9    H     H_    0.327286 0.669808 0.943358 0.178656
H10   H     H_    0.602621 0.278682 0.047488 0.182481
C41   C     C_R   0.403675 0.758399 0.495011 -0.132188
C42   C     C_R   0.594045 0.242126 0.525382 -0.132280
C43   C     C_R   0.276906 0.881994 0.486165 -0.209061
C44   C     C_R   0.710688 0.123032 0.572838 -0.208821
C45   C     C_R   0.306883 0.793342 0.477052 -0.000693
C46   C     C_R   0.688389 0.209792 0.551344 -0.008976
C47   C     C_R   0.466980 0.813408 0.520375 -0.165216
C48   C     C_R   0.525953 0.185731 0.521183 -0.173328
C49   C     C_R   0.436962 0.900941 0.530894 0.117814
C50   C     C_R   0.545773 0.103314 0.547093 0.120645
C51   C     C_R   0.341209 0.936244 0.511495 0.091369
C52   C     C_R   0.640332 0.069626 0.570573 0.089106
C53   C     C_R   0.501992 0.957364 0.554806 -0.080658
C54   C     C_R   0.474454 0.050122 0.545829 -0.080189
C55   C     C_R   0.376850 0.084429 0.533178 0.299375
C56   C     C_R   0.595027 0.925855 0.584074 0.291845
C57   C     C_R   0.311270 0.026372 0.516120 -0.280245
C58   C     C_R   0.663271 0.982908 0.591378 -0.271676
H11   H     H_    0.236958 0.052173 0.504813 0.185813
H12   H     H_    0.734736 0.959152 0.612651 0.186128
H13   H     H_    0.456161 0.206900 0.497359 0.178052
H14   H     H_    0.541055 0.787967 0.530625 0.181406
H15   H     H_    0.203625 0.910033 0.471367 0.143234
H16   H     H_    0.783160 0.097450 0.591738 0.145399
N3    N     N_R   0.731710 0.552720 0.528410 -0.121471
N4    N     N_R   0.268290 0.447280 0.471590 -0.095184
C59   C     C_R   0.844999 0.632193 0.579277 -0.273887
C60   C     C_R   0.149317 0.381484 0.415401 -0.282940
C61   C     C_R   0.755720 0.608332 0.566143 0.104633
C62   C     C_R   0.242550 0.393345 0.433180 0.077949
C63   C     C_R   0.791212 0.519938 0.501542 0.030465
C64   C     C_R   0.206776 0.488883 0.495042 0.009353
C65   C     C_R   0.882611 0.543204 0.512058 -0.004377
C66   C     C_R   0.110540 0.480158 0.478811 0.001845
C67   C     C_R   0.909912 0.599924 0.552442 0.072310
C68   C     C_R   0.081455 0.426924 0.436893 0.110663
C69   C     C_R   0.948148 0.508380 0.485382 0.056527
C70   C     C_R   0.043128 0.522971 0.502435 0.045105
C71   C     C_R   0.067436 0.580941 0.542023 -0.289000
C72   C     C_R   0.920842 0.460470 0.441759 -0.250856
C73   C     C_R   0.002026 0.620899 0.566018 0.008802
C74   C     C_R   0.985439 0.420676 0.417293 -0.018919
H17   H     H_    0.235476 0.529560 0.525206 0.122834
H18   H     H_    0.766065 0.473482 0.473741 0.136589
H19   H     H_    0.294472 0.361558 0.415456 0.119307
H20   H     H_    0.705142 0.633494 0.586258 0.214794
H21   H     H_    0.862675 0.674349 0.610742 0.205197
H22   H     H_    0.131142 0.337760 0.384715 0.156439
H23   H     H_    0.136681 0.599353 0.554490 0.147968
H24   H     H_    0.848176 0.455628 0.424380 0.183094
C75   C     C_R   0.765866 0.263012 0.557229 0.122769
C76   C     C_R   0.821478 0.255547 0.523295 -0.172254
C77   C     C_R   0.900862 0.298701 0.531706 -0.147981
C78   C     C_R   0.924903 0.349523 0.573908 -0.122394
C79   C     C_R   0.868849 0.358368 0.607369 -0.110155
C80   C     C_R   0.789784 0.314785 0.599284 -0.072074
H25   H     H_    0.804380 0.215020 0.490978 0.131276
H26   H     H_    0.944149 0.292229 0.505736 0.153037
H27   H     H_    0.986568 0.382618 0.580473 0.151287
H28   H     H_    0.887319 0.398178 0.639846 0.173015
H29   H     H_    0.747976 0.320243 0.626012 0.161441
C81   C     C_R   0.236065 0.742068 0.446241 0.132969
C82   C     C_R   0.250166 0.702325 0.402517 -0.086284
C83   C     C_R   0.182794 0.654995 0.373381 -0.128946
C84   C     C_R   0.099796 0.648944 0.386824 -0.113462
C85   C     C_R   0.084113 0.690052 0.429479 -0.125723
C86   C     C_R   0.152084 0.735894 0.459311 -0.179090
H30   H     H_    0.313530 0.707563 0.391204 0.125532
H31   H     H_    0.194703 0.623472 0.340201 0.138739
H32   H     H_    0.047523 0.612595 0.364156 0.135127
H33   H     H_    0.019465 0.685880 0.439623 0.158305
H34   H     H_    0.139329 0.766403 0.492614 0.139293
N5    N     N_R   0.343389 0.175151 0.541867 0.198967
O13   O     O_R   0.388638 0.215140 0.580197 -0.375010
O14   O     O_R   0.262136 0.214384 0.515228 -0.418229
N6    N     N_R   0.618414 0.840926 0.611047 0.202920
O15   O     O_R   0.555917 0.808802 0.628329 -0.350960
O16   O     O_R   0.705074 0.801748 0.624573 -0.405099
C87   C     C_R   0.033328 0.683979 0.605604 0.102982
C88   C     C_R   0.105531 0.654632 0.648709 -0.149752
C89   C     C_R   0.136124 0.714461 0.685610 -0.102176
C90   C     C_R   0.095330 0.803907 0.679593 -0.088390
C91   C     C_R   0.024043 0.833752 0.636590 -0.113567
C92   C     C_R   0.993300 0.774168 0.599574 -0.158953
H35   H     H_    0.137721 0.585486 0.653765 0.139299
H36   H     H_    0.191467 0.691491 0.718864 0.183781
H37   H     H_    0.119104 0.850121 0.708199 0.145649
H38   H     H_    0.992753 0.903098 0.631885 0.136874
H39   H     H_    0.938454 0.798139 0.566248 0.142002
C93   C     C_R   0.948457 0.376330 0.369998 0.134005
C94   C     C_R   0.894557 0.307150 0.369445 -0.154860
C95   C     C_R   0.855685 0.268441 0.324486 -0.112461
C96   C     C_R   0.870076 0.298565 0.279809 -0.094633
C97   C     C_R   0.923172 0.367612 0.279994 -0.149549
C98   C     C_R   0.961641 0.406940 0.324800 -0.146539
H40   H     H_    0.882482 0.283471 0.403777 0.121014
H41   H     H_    0.814189 0.215232 0.324265 0.145269
H42   H     H_    0.839778 0.268659 0.245023 0.152544
H43   H     H_    0.933976 0.391091 0.245345 0.141584
H44   H     H_    0.001205 0.461480 0.324271 0.124572
N7    N     N_R   0.620193 0.597950 0.364618 0.205931
O17   O     O_R   0.710266 0.582455 0.369563 -0.419458
O18   O     O_R   0.585443 0.667320 0.384820 -0.399081
N8    N     N_R   0.658782 0.552817 0.672982 0.199219
O19   O     O_R   0.675495 0.634189 0.680813 -0.322680
O20   O     O_R   0.723542 0.493692 0.663757 -0.452073
C99   C     C_R   0.624094 0.578083 0.262106 0.141580
C100  C     C_R   0.615797 0.671377 0.258348 -0.026435
C101  C     C_R   0.676660 0.711787 0.237652 -0.129535
C102  C     C_R   0.745958 0.659421 0.220560 -0.100774
C103  C     C_R   0.754621 0.566555 0.224220 -0.128708
C104  C     C_R   0.694109 0.525868 0.245031 -0.131899
H45   H     H_    0.561822 0.712588 0.271074 0.161852
H46   H     H_    0.669913 0.783702 0.234715 0.148445
H47   H     H_    0.792886 0.690803 0.204444 0.145427
H48   H     H_    0.808154 0.526153 0.210853 0.142147
H49   H     H_    0.701759 0.453856 0.247864 0.164635
C105  C     C_R   0.652880 0.552274 0.775259 0.137532
C106  C     C_R   0.742979 0.502161 0.787090 -0.025013
C107  C     C_R   0.815103 0.527774 0.825378 -0.131126
C108  C     C_R   0.797764 0.603393 0.852074 -0.094208
C109  C     C_R   0.708302 0.653632 0.840456 -0.110339
C110  C     C_R   0.636037 0.628335 0.802141 -0.118106
H50   H     H_    0.756960 0.442862 0.767051 0.164020
H51   H     H_    0.884356 0.488814 0.834476 0.147761
H52   H     H_    0.853631 0.623040 0.881766 0.149403
H53   H     H_    0.694947 0.712189 0.861141 0.160994
H54   H     H_    0.567097 0.667944 0.793390 0.170670
N9    N     N_R   0.410052 0.736237 0.017956 0.195767
O21   O     O_R   0.346016 0.798010 0.025657 -0.373095
O22   O     O_R   0.469300 0.757690 0.994398 -0.360120
N10   N     N_R   0.709130 0.317147 0.001154 0.194935
O23   O     O_R   0.744829 0.239767 0.989114 -0.369835
O24   O     O_R   0.755213 0.353811 0.040613 -0.373233

loop_
_geom_bond_atom_site_label_1
_geom_bond_atom_site_label_2
_geom_bond_distance
_ccdc_geom_bond_type
C11   N8    1.433337 S    
C67   C73   1.407205 A    
C65   C69   1.420830 A    
C94   C95   1.398283 A    
C13   C15   1.383424 A    
C35   N9    1.438034 S    
C89   C90   1.397858 A    
C66   C70   1.423801 A    
C1    C41   1.474742 S    
N1    C17   1.428188 S    
C81   C82   1.407339 A    
C87   C88   1.404945 A    
C60   H22   1.081636 S    
N4    C64   1.347749 A    
C106  H50   1.083009 S    
N7    O18   1.301349 A    
C44   H16   1.085142 S    
C99   C100  1.404383 A    
O5    C3    1.302119 A    
C71   C73   1.392596 A    
C30   C34   1.417354 A    
C48   C50   1.395170 A    
O1    C1    1.297022 A    
C93   C94   1.405597 A    
C21   C23   1.397602 A    
C50   C52   1.410055 A    
C88   C89   1.398172 A    
C61   H20   1.080384 S    
C73   C87   1.483390 S    
C91   C92   1.398165 A    
C44   C52   1.401054 A    
N8    O19   1.300642 A    
C51   C57   1.394918 A    
C42   C48   1.398740 A    
C103  H48   1.081809 S    
N4    C62   1.352570 A    
C105  C106  1.404515 A    
C55   N5    1.440300 S    
C14   C28   1.403002 A    
C80   H29   1.083066 S    
C43   C45   1.402066 A    
C76   C77   1.398427 A    
C4    C28   1.466527 S    
C63   C65   1.411592 A    
C100  C101  1.398011 A    
C43   C51   1.399896 A    
C110  H54   1.082817 S    
C19   C25   1.405512 A    
C101  C102  1.397703 A    
C85   C86   1.398167 A    
C7    C25   1.398714 A    
C46   C75   1.474556 S    
C68   C74   1.408382 A    
N10   O23   1.301544 A    
C41   C47   1.398753 A    
C9    C105  1.482768 S    
C48   H13   1.080378 S    
C23   H5    1.083391 S    
C91   H38   1.082411 S    
C24   H6    1.083318 S    
C87   C92   1.405130 A    
C42   C46   1.418327 A    
C2    C42   1.478385 S    
C86   H34   1.083243 S    
C59   C61   1.384214 A    
C64   H17   1.073510 S    
C47   C49   1.397721 A    
O2    C2    1.300685 A    
C31   C40   1.410739 A    
C43   H15   1.084982 S    
C10   C99   1.482356 S    
C5    C21   1.397788 A    
C70   C71   1.412691 A    
C55   C57   1.398236 A    
C32   C34   1.417548 A    
C37   H7    1.083478 S    
C36   N10   1.437927 S    
C38   H8    1.083491 S    
C102  H47   1.082271 S    
Zn2   N3    2.022880 S    
C62   H19   1.081827 S    
C12   N7    1.437092 S    
C44   C46   1.402483 A    
C40   H10   1.079963 S    
C50   C54   1.415072 A    
C90   C91   1.397936 A    
C7    O12   1.349958 S    
O4    C2    1.304430 A    
C84   H32   1.082289 S    
C59   C67   1.406435 A    
N7    O17   1.301040 A    
O7    Zn2   2.024273 S    
C78   H27   1.082461 S    
C54   C55   1.425313 A    
C85   H33   1.082228 S    
C77   H26   1.082286 S    
C25   C38   1.397819 A    
C14   H2    1.083378 S    
C30   C36   1.424865 A    
N9    O21   1.301533 A    
C15   H3    1.083203 S    
C109  C110  1.397866 A    
C31   C33   1.417729 A    
C9    C17   1.408941 A    
C5    N1    1.365891 A    
C75   C80   1.403365 A    
C10   C18   1.409211 A    
C47   H14   1.079479 S    
C39   H9    1.080029 S    
O7    C3    1.301812 A    
C13   C27   1.406062 A    
C96   C97   1.397313 A    
C74   C93   1.485220 S    
C96   H42   1.082345 S    
C6    N2    1.365390 A    
C29   C32   1.415251 A    
C8    C26   1.397496 A    
C56   N6    1.439674 S    
C66   C68   1.424811 A    
C30   C31   1.416391 A    
C108  H52   1.082310 S    
C59   H21   1.081392 S    
C97   H43   1.082119 S    
N3    C63   1.347392 A    
C77   C78   1.398116 A    
C60   C62   1.385014 A    
C49   C51   1.412970 A    
C60   C68   1.406583 A    
C79   C80   1.398653 A    
O3    Zn2   1.893968 S    
O8    C4    1.302755 A    
C95   H41   1.082294 S    
C20   C26   1.405497 A    
C102  C103  1.397431 A    
C57   H11   1.084039 S    
C83   H31   1.082358 S    
N2    C8    1.366496 A    
C109  H53   1.082297 S    
C56   C58   1.401227 A    
C92   H39   1.083270 S    
C35   C37   1.396572 A    
Zn1   N4    2.022881 S    
C95   C96   1.397463 A    
N6    O16   1.301389 A    
C45   C81   1.486373 S    
O1    Zn1   1.924879 S    
C90   H37   1.082339 S    
C11   C27   1.419300 A    
C84   C85   1.396975 A    
C8    O11   1.350197 S    
C78   C79   1.397752 A    
C12   C28   1.418030 A    
C82   C83   1.398516 A    
N2    C18   1.427181 S    
C19   C34   1.410606 A    
C5    O9    1.349841 S    
C13   H1    1.083165 S    
O6    Zn2   1.999640 S    
C26   C37   1.397554 A    
N1    C7    1.366900 A    
N6    O15   1.301766 A    
C71   H23   1.075650 S    
C104  H49   1.082766 S    
C10   C12   1.406441 A    
C107  H51   1.082289 S    
O3    C1    1.306546 A    
O8    Zn1   2.024274 S    
C93   C98   1.405766 A    
C53   C56   1.425969 A    
C23   C39   1.388053 A    
N5    O13   1.301776 A    
C101  H46   1.082256 S    
C88   H35   1.083324 S    
C64   C66   1.411801 A    
C16   H4    1.082991 S    
C32   C39   1.410398 A    
C97   C98   1.398063 A    
C14   C16   1.385511 A    
C83   C84   1.397150 A    
C79   H28   1.082179 S    
C15   C17   1.391949 A    
C29   C35   1.424553 A    
C75   C76   1.403383 A    
C6    C22   1.398929 A    
C16   C18   1.393404 A    
C63   H18   1.075534 S    
N5    O14   1.301637 A    
C106  C107  1.398021 A    
C72   C74   1.391223 A    
C99   C104  1.404437 A    
C29   C33   1.417196 A    
C94   H40   1.083325 S    
C22   C24   1.397758 A    
C19   C21   1.408987 A    
C20   C22   1.409333 A    
C36   C38   1.397460 A    
C89   H36   1.082261 S    
C69   C72   1.409477 A    
C41   C45   1.421143 A    
C76   H25   1.083132 S    
C9    C11   1.407852 A    
O2    Zn2   1.924879 S    
C82   H30   1.083239 S    
C98   H44   1.083030 S    
N3    C61   1.351900 A    
C53   C54   1.411906 A    
C52   C58   1.395163 A    
O5    Zn1   1.999643 S    
C108  C109  1.397635 A    
C20   C33   1.410566 A    
C6    O10   1.349698 S    
C103  C104  1.397805 A    
C3    C27   1.474071 S    
C72   H24   1.076957 S    
C69   C70   1.419327 A    
C105  C110  1.404501 A    
C58   H12   1.083988 S    
N10   O24   1.301708 A    
N8    O20   1.300666 A    
N9    O22   1.301693 A    
C107  C108  1.397692 A    
C81   C86   1.406514 A    
C49   C53   1.417586 A    
C100  H45   1.083086 S    
C65   C67   1.422777 A    
O6    C4    1.297142 A    
O4    Zn1   1.893965 S    
C24   C40   1.388939 A    
