data_mof_unit_46237.cif
_audit_creation_date              2013-03-05T15:52:10-0500
_audit_creation_method            fapswitch 2.2
_symmetry_space_group_name_H-M    P1
_symmetry_Int_Tables_number       1
_space_group_crystal_system       triclinic
_cell_length_a                    11.220281
_cell_length_b                    11.179489
_cell_length_c                    18.831812
_cell_angle_alpha                 89.654961
_cell_angle_beta                  90.401747
_cell_angle_gamma                 119.977732
_cell_volume                      2046.13046881

loop_
_atom_site_label
_atom_site_type_symbol
_atom_site_description
_atom_site_fract_x
_atom_site_fract_y
_atom_site_fract_z
_atom_type_partial_charge
O1    O     O_R   0.911480 0.572650 0.170990 -0.529472
O2    O     O_R   0.427350 0.338830 0.170990 -0.524548
O3    O     O_R   0.661170 0.088520 0.170990 -0.521381
O4    O     O_R   0.572650 0.911480 0.829010 -0.532591
O5    O     O_R   0.338830 0.427350 0.829010 -0.534011
O6    O     O_R   0.088520 0.661170 0.829010 -0.528031
O7    O     O_R   0.640340 0.528970 0.175680 -0.509025
O8    O     O_R   0.471030 0.111370 0.175680 -0.508584
O9    O     O_R   0.888630 0.359660 0.175680 -0.503983
O10   O     O_R   0.528970 0.640340 0.824320 -0.510865
O11   O     O_R   0.111370 0.471030 0.824320 -0.511497
O12   O     O_R   0.359660 0.888630 0.824320 -0.504777
C1    C     C_R   0.523842 0.450628 0.144594 0.527984
C2    C     C_R   0.549599 0.073955 0.144493 0.528748
C3    C     C_R   0.926966 0.476430 0.144656 0.528618
C4    C     C_R   0.457030 0.520300 0.852552 0.517060
C5    C     C_R   0.063767 0.542878 0.852660 0.518871
C6    C     C_R   0.479533 0.936178 0.852596 0.519294
O13   O     O_R   0.909980 0.572450 0.331530 -0.432195
O14   O     O_R   0.427550 0.337530 0.331530 -0.479369
O15   O     O_R   0.662470 0.090020 0.331530 -0.480497
O16   O     O_R   0.572450 0.909980 0.668470 -0.429148
O17   O     O_R   0.337530 0.427550 0.668470 -0.460410
O18   O     O_R   0.090020 0.662470 0.668470 -0.485179
O19   O     O_R   0.638950 0.528780 0.324500 -0.419258
O20   O     O_R   0.471220 0.110170 0.324500 -0.460083
O21   O     O_R   0.889830 0.361050 0.324500 -0.487852
O22   O     O_R   0.528780 0.638950 0.675500 -0.430395
O23   O     O_R   0.110170 0.471220 0.675500 -0.417757
O24   O     O_R   0.361050 0.889830 0.675500 -0.477375
C7    C     C_R   0.517963 0.456386 0.353816 0.555476
C8    C     C_R   0.543733 0.060482 0.352388 0.539860
C9    C     C_R   0.938329 0.481624 0.353778 0.556774
C10   C     C_R   0.457031 0.515432 0.647179 0.587747
C11   C     C_R   0.060140 0.543937 0.647697 0.561137
C12   C     C_R   0.481087 0.937614 0.646092 0.563329
Cr1   Cr    Cr6+3 0.769160 0.541570 0.250690 1.110752
Cr2   Cr    Cr6+3 0.458430 0.227590 0.250690 1.095604
Cr3   Cr    Cr6+3 0.772410 0.230840 0.250690 1.095007
Cr4   Cr    Cr6+3 0.541570 0.769160 0.749310 1.102795
Cr5   Cr    Cr6+3 0.227590 0.458430 0.749310 1.097855
Cr6   Cr    Cr6+3 0.230840 0.772410 0.749310 1.087507
O25   O     O_3   0.666667 0.333333 0.250560 -0.298778
O26   O     O_3   0.333333 0.666667 0.749440 -0.291095
C13   C     C_R   0.501808 0.004037 0.921127 0.014170
C14   C     C_R   0.996537 0.497226 0.921341 0.014494
C15   C     C_R   0.503027 0.497913 0.921167 0.015466
C16   C     C_R   0.956667 0.486676 0.069065 0.018572
C17   C     C_R   0.530551 0.045935 0.068710 0.018522
C18   C     C_R   0.514399 0.469436 0.068844 0.019323
C19   C     C_R   0.389077 0.978820 0.963550 0.010597
C20   C     C_R   0.023097 0.410696 0.964824 0.009276
C21   C     C_R   0.590722 0.611064 0.963835 0.009502
C22   C     C_R   0.001404 0.403843 0.037403 0.001916
C23   C     C_R   0.403647 0.001457 0.036071 0.000258
C24   C     C_R   0.597940 0.596545 0.036474 0.001007
C25   C     C_R   0.647541 0.091170 0.025251 -0.148786
C26   C     C_R   0.910760 0.557840 0.024683 -0.149908
C27   C     C_R   0.442540 0.351892 0.025334 -0.149758
C28   C     C_R   0.929544 0.562231 0.951324 -0.159704
C29   C     C_R   0.633404 0.071195 0.951920 -0.160649
C30   C     C_R   0.437759 0.365877 0.951900 -0.160403
C31   C     C_3   0.252923 0.850028 0.972365 -0.243191
C32   C     C_3   0.152122 0.404033 0.974046 -0.244797
C33   C     C_3   0.599049 0.748051 0.972035 -0.243496
C34   C     C_3   0.127619 0.395829 0.053430 -0.276915
C35   C     C_3   0.268985 0.875760 0.051705 -0.278472
C36   C     C_3   0.607958 0.732082 0.051535 -0.277907
H1    H     H_    0.749872 0.137707 0.048045 0.149677
H2    H     H_    0.864086 0.613824 0.046735 0.148364
H3    H     H_    0.385981 0.249339 0.048107 0.149396
H4    H     H_    0.902943 0.626382 0.919275 0.140445
H5    H     H_    0.723843 0.096940 0.920655 0.139644
H6    H     H_    0.372915 0.275113 0.920422 0.140205
H7    H     H_    0.255616 0.755615 0.956835 0.139451
H8    H     H_    0.245586 0.501090 0.957587 0.139178
H9    H     H_    0.502566 0.745695 0.955531 0.140331
H10   H     H_    0.102903 0.294474 0.076773 0.152315
H11   H     H_    0.193223 0.901800 0.073892 0.149961
H12   H     H_    0.709605 0.807786 0.074419 0.151226
H13   H     H_    0.167284 0.860266 0.948879 0.153970
H14   H     H_    0.142254 0.307686 0.951679 0.152671
H15   H     H_    0.695145 0.833709 0.949127 0.152900
H16   H     H_    0.207117 0.487637 0.082705 0.132469
H17   H     H_    0.280114 0.795966 0.081854 0.132627
H18   H     H_    0.517331 0.721518 0.080768 0.132933
C37   C     C_R   0.500223 0.989990 0.573129 0.043603
C38   C     C_R   0.011894 0.523764 0.575512 0.049392
C39   C     C_R   0.495595 0.478286 0.578966 0.001910
C40   C     C_R   0.989875 0.501222 0.427024 0.053542
C41   C     C_R   0.521612 0.013122 0.424680 0.016115
C42   C     C_R   0.493784 0.479198 0.427903 -0.007671
C43   C     C_R   0.631215 0.054656 0.540268 -0.076603
C44   C     C_R   0.060773 0.643207 0.533869 -0.027477
C45   C     C_R   0.404545 0.359831 0.539893 -0.049797
C46   C     C_R   0.052672 0.632732 0.459778 -0.069899
C47   C     C_R   0.638970 0.060825 0.466453 -0.057109
C48   C     C_R   0.408655 0.360822 0.466209 0.000475
C49   C     C_R   0.393988 0.935508 0.455078 -0.087492
C50   C     C_R   0.924483 0.385182 0.471382 -0.046833
C51   C     C_R   0.582235 0.594960 0.467209 -0.022579
C52   C     C_R   0.935239 0.395169 0.544892 -0.071954
C53   C     C_R   0.383447 0.928176 0.528800 -0.061226
C54   C     C_R   0.603283 0.579271 0.539839 -0.044986
C55   C     C_3   0.740204 0.011705 0.540848 0.127269
C56   C     C_3   0.996125 0.732878 0.536999 0.107253
C57   C     C_3   0.251599 0.266113 0.537034 0.149273
C58   C     C_3   0.003400 0.736368 0.458139 0.117921
C59   C     C_3   0.732031 0.001661 0.461442 0.115834
C60   C     C_3   0.258504 0.277864 0.456834 0.156788
H19   H     H_    0.303715 0.882674 0.421747 0.139438
H20   H     H_    0.852592 0.288682 0.448800 0.166663
H21   H     H_    0.647770 0.689799 0.440618 0.190545
H22   H     H_    0.883572 0.304793 0.578047 0.126102
H23   H     H_    0.284961 0.862792 0.551220 0.182649
H24   H     H_    0.690658 0.657575 0.566900 0.198308
H25   H     H_    0.838430 0.090578 0.564535 0.197885
H26   H     H_    0.891592 0.674051 0.559914 0.134346
H27   H     H_    0.223857 0.164962 0.560693 0.213022
H28   H     H_    0.078976 0.834783 0.433401 0.200597
H29   H     H_    0.675737 0.895496 0.439785 0.142503
H30   H     H_    0.215832 0.339246 0.431797 0.162420
N1    N     N_R   0.694310 0.877312 0.570038 0.058530
O27   O     O_R   0.566439 0.783408 0.558893 -0.394735
O28   O     O_R   0.765152 0.864375 0.621640 -0.300867
N2    N     N_R   0.068912 0.872424 0.565953 0.050074
O29   O     O_R   0.022831 0.953302 0.545750 -0.269040
O30   O     O_R   0.129691 0.896533 0.627386 -0.313781
N3    N     N_R   0.173636 0.325787 0.564354 0.096736
O31   O     O_R   0.209915 0.452873 0.548297 -0.373104
O32   O     O_R   0.075000 0.255080 0.609067 -0.319014
N4    N     N_R   0.867773 0.685311 0.430296 0.058357
O33   O     O_R   0.778946 0.555201 0.440582 -0.411309
O34   O     O_R   0.848986 0.756417 0.380873 -0.294620
N5    N     N_R   0.861862 0.084605 0.424306 0.078663
O35   O     O_R   0.974347 0.154492 0.460373 -0.333504
O36   O     O_R   0.871564 0.055357 0.358615 -0.249923
N6    N     N_R   0.216201 0.148849 0.420513 0.131267
O37   O     O_R   0.253097 0.064787 0.445565 -0.396723
O38   O     O_R   0.153044 0.123227 0.359571 -0.250378

loop_
_geom_bond_atom_site_label_1
_geom_bond_atom_site_label_2
_geom_bond_distance
_ccdc_geom_bond_type
O19   C7    1.307604 A    
O7    C1    1.292197 A    
C49   C53   1.392629 A    
O20   C8    1.299416 A    
N2    O29   1.299953 A    
C48   C60   1.471739 S    
C59   N5    1.458627 S    
C51   H21   1.065488 S    
C58   H28   1.101644 S    
C57   N3    1.438263 S    
C15   C30   1.401971 A    
C45   C48   1.388482 A    
C42   C48   1.385292 A    
N1    O27   1.303025 A    
O18   Cr6   2.091138 S    
O21   C9    1.299544 A    
C16   C22   1.392963 A    
C22   C34   1.491691 S    
O8    Cr2   1.977866 S    
C31   H13   1.111476 S    
C18   C27   1.411799 A    
C33   H15   1.111487 S    
C8    C41   1.435301 S    
C13   C19   1.404537 A    
C26   C28   1.395795 A    
C14   C20   1.403652 A    
O9    Cr3   1.973439 S    
C47   C59   1.492982 S    
C55   N1    1.430224 S    
O10   Cr4   1.965757 S    
C57   H27   1.103755 S    
C25   C29   1.395461 A    
O2    C1    1.276399 A    
O5    C4    1.286601 A    
O12   Cr6   1.972163 S    
O13   Cr1   2.088250 S    
O19   Cr1   1.975931 S    
C54   H24   1.062013 S    
O11   C5    1.285757 A    
O4    Cr4   2.091108 S    
O21   Cr3   1.966964 S    
N4    O33   1.302763 A    
N2    O30   1.298113 A    
C30   H6    1.083417 S    
C49   H19   1.080041 S    
O1    C3    1.275793 A    
C21   C33   1.495855 S    
O1    Cr1   2.096727 S    
C15   C21   1.404009 A    
O4    C6    1.288951 A    
C33   C36   1.515172 S    
C46   C58   1.512733 S    
O3    Cr3   2.088058 S    
C56   H26   1.107820 S    
C55   H25   1.103555 S    
Cr6   O26   2.019532 S    
C3    C16   1.455043 S    
C4    C15   1.454125 S    
C40   C50   1.401206 A    
C20   C22   1.384925 A    
C38   C44   1.400139 A    
C12   C37   1.464814 S    
C32   H8    1.112001 S    
C34   H10   1.111647 S    
O15   C8    1.266644 A    
C31   C35   1.515646 S    
C35   H17   1.112621 S    
O18   C11   1.257721 A    
C33   H9    1.111811 S    
O5    Cr5   2.081372 S    
N5    O35   1.293694 A    
C35   H11   1.111623 S    
C5    C14   1.457184 S    
C20   C32   1.495202 S    
C26   H2    1.082673 S    
Cr3   O25   2.019683 S    
C29   H5    1.083371 S    
C17   C23   1.391551 A    
C34   H16   1.112669 S    
C18   C24   1.391395 A    
C32   C34   1.515841 S    
C39   C45   1.409974 A    
C53   H23   1.062683 S    
O22   Cr4   1.970900 S    
C52   H22   1.076509 S    
O14   Cr2   2.098512 S    
C11   C38   1.436386 S    
O2    Cr2   2.079524 S    
C23   C35   1.491225 S    
O15   Cr3   2.091518 S    
C60   N6    1.447967 S    
O17   C10   1.268938 A    
O16   Cr4   2.085539 S    
C50   C52   1.389048 A    
O7    Cr1   1.968421 S    
C19   C31   1.495675 S    
C41   C47   1.387771 A    
C44   C46   1.399399 A    
C32   H14   1.111515 S    
C56   N2    1.459054 S    
O3    C2    1.277170 A    
C45   C57   1.499401 S    
C42   C51   1.387590 A    
C37   C53   1.406400 A    
C36   H18   1.112695 S    
C50   H20   1.061339 S    
C51   C54   1.411120 A    
C39   C54   1.384457 A    
O13   C9    1.274161 A    
Cr5   O26   2.016684 S    
Cr1   O25   2.016594 S    
C36   H12   1.111601 S    
C6    C13   1.456493 S    
C43   C47   1.392547 A    
C56   C58   1.487103 S    
N3    O31   1.301654 A    
C21   C24   1.383134 A    
N5    O36   1.300556 A    
O6    C5    1.285279 A    
C55   C59   1.498969 S    
C44   C56   1.504185 S    
C27   C30   1.394436 A    
O8    C2    1.294507 A    
C14   C28   1.403116 A    
O20   Cr2   1.959408 S    
C17   C25   1.412566 A    
C38   C52   1.380723 A    
C16   C26   1.411483 A    
C40   C46   1.417057 A    
N6    O38   1.300394 A    
O16   C12   1.277798 A    
O23   C11   1.302654 A    
O17   Cr5   2.101584 S    
O24   C12   1.301529 A    
C25   H1    1.082626 S    
O9    C3    1.289840 A    
C10   C39   1.484443 S    
Cr2   O25   2.023966 S    
C43   C55   1.520760 S    
C24   C36   1.491141 S    
C9    C40   1.466629 S    
C60   H30   1.115217 S    
C59   H29   1.107714 S    
C31   H7    1.111855 S    
C37   C43   1.418220 A    
C13   C29   1.401974 A    
C57   C60   1.514388 S    
O11   Cr5   1.981785 S    
C19   C23   1.384057 A    
C58   N4    1.428607 S    
N1    O28   1.303612 A    
N6    O37   1.287572 A    
O22   C10   1.315778 A    
C1    C18   1.451514 S    
C2    C17   1.454200 S    
Cr4   O26   2.024027 S    
N4    O34   1.303212 A    
C7    C42   1.471036 S    
O6    Cr6   2.091848 S    
O12   C6    1.286092 A    
C28   H4    1.083446 S    
O23   Cr5   1.961739 S    
O24   Cr6   1.969683 S    
O10   C4    1.284548 A    
C41   C49   1.376576 A    
C27   H3    1.082548 S    
N3    O32   1.299806 A    
O14   C7    1.274573 A    
