data_mof_unit_44553.cif
_audit_creation_date              2012-10-26T20:25:37-0400
_audit_creation_method            fapswitch 2.2
_symmetry_space_group_name_H-M    P1
_symmetry_Int_Tables_number       1
_space_group_crystal_system       triclinic
_cell_length_a                    23.512841
_cell_length_b                    10.628589
_cell_length_c                    9.39679
_cell_angle_alpha                 89.204295
_cell_angle_beta                  89.990565
_cell_angle_gamma                 89.971551
_cell_volume                      2348.10925865

loop_
_atom_site_label
_atom_site_type_symbol
_atom_type_description
_atom_site_fract_x
_atom_site_fract_y
_atom_site_fract_z
_atom_type_partial_charge
C1    C     C_R   0.500765 0.259611 0.501037 0.548741
C2    C     C_R   0.700202 0.490640 0.632944 -0.196543
C3    C     C_R   0.242118 0.425615 0.615881 -0.111391
C4    C     C_R   0.759034 0.488216 0.640968 -0.107756
C5    C     C_R   0.209506 0.485736 0.511145 0.248354
C6    C     C_R   0.791962 0.497994 0.517904 0.245844
C7    C     C_3   0.516595 0.035634 0.626895 0.155710
C8    C     C_3   0.483785 0.964764 0.373250 0.147908
C9    C     C_3   0.553119 0.955419 0.527394 -0.145169
C10   C     C_3   0.447200 0.044784 0.472874 -0.122117
C11   C     C_3   0.499424 0.876986 0.497175 0.023550
C12   C     C_R   0.499376 0.740464 0.498968 0.544555
C13   C     C_3   0.500882 0.123218 0.502927 0.029234
C14   C     C_3   0.463245 0.956112 0.599788 -0.116060
C15   C     C_3   0.537097 0.044191 0.400507 -0.141569
C16   C     C_R   0.391067 0.500466 0.500103 0.562222
C17   C     C_R   0.609265 0.501252 0.499795 0.559784
C18   C     C_3   0.521989 0.602635 0.048902 -0.000725
C19   C     C_3   0.477976 0.397245 0.951028 -0.016855
C20   C     C_3   0.470813 0.593596 0.947860 -0.004024
C21   C     C_3   0.529162 0.406351 0.052159 0.000519
C22   C     C_3   0.551216 0.509001 0.949517 -0.003227
C23   C     C_R   0.235992 0.553506 0.399470 0.195890
C24   C     C_3   0.448748 0.490903 0.050511 -0.009715
C25   C     C_R   0.881557 0.589980 0.588067 0.386703
C26   C     C_R   0.120045 0.377366 0.480409 0.395189
C27   C     C_R   0.880341 0.385863 0.485044 0.423265
C28   C     C_R   0.121069 0.583836 0.577435 0.418519
C29   C     C_R   0.939817 0.379571 0.489447 -0.001762
C30   C     C_R   0.061663 0.584327 0.587487 0.000497
C31   C     C_R   0.970708 0.482237 0.542469 -0.072954
C32   C     C_R   0.030829 0.479497 0.539690 -0.069302
C33   C     C_R   0.941550 0.588024 0.596595 0.046597
C34   C     C_R   0.765746 0.512364 0.383350 0.201114
C35   C     C_R   0.060029 0.372861 0.487631 0.049880
C36   C     C_R   0.968728 0.273058 0.441188 -0.118980
C37   C     C_R   0.032788 0.687317 0.644644 -0.128062
C38   C     C_R   0.028175 0.267390 0.442115 0.125706
C39   C     C_R   0.973400 0.689110 0.653094 0.128581
C40   C     C_3   0.065552 0.064476 0.509352 -0.256442
C41   C     C_3   0.934723 0.771804 0.869459 -0.265296
C42   C     C_3   0.183704 0.543401 0.178401 -0.297452
C43   C     C_3   0.830690 0.639503 0.238336 -0.281828
C44   C     C_3   0.341144 0.757000 0.325060 -0.279966
C45   C     C_R   0.296123 0.561287 0.395035 0.117602
C46   C     C_3   0.668979 0.657202 0.193594 -0.286762
C47   C     C_3   0.547883 0.977387 0.866013 -0.321442
C48   C     C_3   0.443156 0.021351 0.142319 -0.322344
C49   C     C_R   0.705364 0.514270 0.374709 0.119340
C50   C     C_R   0.328539 0.498788 0.501500 0.007422
C51   C     C_R   0.672426 0.502630 0.501161 0.001192
C52   C     C_R   0.301029 0.432336 0.611459 -0.195823
Cu1   Cu    Cu3+1 0.500010 0.499990 0.643150 0.913699
Cu2   Cu    Cu3+1 0.499990 0.500010 0.356850 0.944514
H1    H     H_    0.594418 0.516864 0.902852 0.096585
H2    H     H_    0.056304 0.766771 0.685371 0.148526
H3    H     H_    0.446327 0.672410 0.898992 0.100832
H4    H     H_    0.553732 0.327710 0.101119 0.104370
H5    H     H_    0.540813 0.688603 0.094792 0.082849
H6    H     H_    0.459457 0.310811 0.904897 0.118877
H7    H     H_    0.035281 0.114518 0.310089 0.242273
H8    H     H_    0.089518 0.983172 0.466802 0.168289
H9    H     H_    0.024631 0.029907 0.554247 0.110341
H10   H     H_    0.091227 0.107392 0.595266 0.180423
H11   H     H_    0.966719 0.877660 0.701658 0.236049
H12   H     H_    0.405535 0.483106 0.097296 0.125818
H13   H     H_    0.910575 0.853010 0.911557 0.150476
H14   H     H_    0.975126 0.761971 0.930041 0.120003
H15   H     H_    0.908674 0.685538 0.885389 0.171470
H16   H     H_    0.216917 0.705594 0.266466 0.256421
H17   H     H_    0.155407 0.600233 0.108079 0.149114
H18   H     H_    0.159631 0.459617 0.215840 0.194786
H19   H     H_    0.221106 0.512381 0.115706 0.130730
H20   H     H_    0.782495 0.489513 0.165757 0.246652
H21   H     H_    0.847633 0.645676 0.128095 0.121805
H22   H     H_    0.867434 0.644273 0.311510 0.177880
H23   H     H_    0.325297 0.384102 0.693683 0.131542
H24   H     H_    0.802365 0.721326 0.256332 0.146518
H25   H     H_    0.304448 0.629427 0.187135 0.243214
H26   H     H_    0.303325 0.814665 0.351995 0.135262
H27   H     H_    0.363707 0.802786 0.234547 0.171512
H28   H     H_    0.370423 0.753352 0.417745 0.167837
H29   H     H_    0.691253 0.469321 0.161750 0.235433
H30   H     H_    0.710289 0.704007 0.172831 0.137094
H31   H     H_    0.644892 0.710362 0.274895 0.158892
H32   H     H_    0.644301 0.658496 0.093077 0.119322
H33   H     H_    0.566460 0.144727 0.759662 0.258945
H34   H     H_    0.676415 0.481477 0.731181 0.129118
H35   H     H_    0.557851 0.018148 0.971234 0.130312
H36   H     H_    0.585355 0.922908 0.829452 0.142328
H37   H     H_    0.510938 0.913140 0.878689 0.151697
H38   H     H_    0.497221 0.871130 0.184138 0.249886
H39   H     H_    0.430683 0.980522 0.038808 0.136406
H40   H     H_    0.475207 0.096513 0.123053 0.150030
H41   H     H_    0.404541 0.062606 0.191120 0.154851
H42   H     H_    0.433735 0.918087 0.681985 0.106399
H43   H     H_    0.566380 0.082109 0.317729 0.108900
H44   H     H_    0.221529 0.374376 0.701951 0.128371
H45   H     H_    0.779369 0.477218 0.743830 0.130412
H46   H     H_    0.595981 0.916700 0.551295 0.109350
H47   H     H_    0.404250 0.083619 0.450348 0.105452
H48   H     H_    0.945225 0.192505 0.403225 0.159972
N1    N     N_R   0.852732 0.490932 0.530803 -0.392366
N2    N     N_2   0.677604 0.528477 0.240630 -0.497271
N3    N     N_2   0.534907 0.077539 0.765442 -0.506747
N4    N     N_2   0.466421 0.923623 0.233731 -0.519386
N5    N     N_R   0.148711 0.482361 0.522729 -0.385137
N6    N     N_3   0.500040 0.499970 0.858290 -0.229125
N7    N     N_3   0.499960 0.500030 0.141710 -0.224071
N8    N     N_2   0.055084 0.155096 0.396022 -0.458840
N9    N     N_2   0.946527 0.792812 0.719863 -0.452998
N10   N     N_2   0.201656 0.618558 0.297431 -0.499448
N11   N     N_2   0.800227 0.522092 0.258261 -0.490530
N12   N     N_2   0.324005 0.631619 0.285176 -0.518762
O1    O     O_R   0.500030 0.316850 0.620870 -0.494429
O2    O     O_2   0.149790 0.279499 0.428848 -0.480228
O3    O     O_2   0.850177 0.288085 0.434617 -0.490538
O4    O     O_2   0.151166 0.684115 0.621649 -0.508217
O5    O     O_R   0.499970 0.683150 0.379130 -0.497477
O6    O     O_R   0.500000 0.316860 0.379090 -0.512856
O7    O     O_R   0.500000 0.683140 0.620910 -0.510626
O8    O     O_R   0.417890 0.499960 0.620920 -0.510916
O9    O     O_R   0.582110 0.500040 0.379080 -0.460782
O10   O     O_R   0.417870 0.499970 0.379140 -0.469985
O11   O     O_R   0.582130 0.500030 0.620860 -0.518068
O12   O     O_2   0.852050 0.691435 0.631160 -0.473388

loop_
_geom_bond_atom_site_label_1
_geom_bond_atom_site_label_2
_ccdc_geom_bond_type
Cu2   O9    S    
C23   C45   A    
C48   H41   S    
Cu2   O6    S    
C27   C29   A    
C3    H44   S    
C18   N7    S    
C17   C51   S    
C49   N2    S    
C41   H13   S    
Cu1   Cu2   S    
C43   H24   S    
C23   N10   S    
C29   C36   A    
C33   C39   A    
C40   H9    S    
C48   H40   S    
C19   C21   S    
C16   C50   S    
C44   H28   S    
Cu1   O8    S    
C8    C10   S    
C11   C14   S    
C28   N5    A    
C40   H8    S    
C36   H48   S    
C27   N1    A    
C16   O8    A    
H11   N9    S    
C42   N10   S    
C37   H2    S    
C45   N12   S    
C17   O9    A    
C7    C14   S    
C48   N4    S    
C12   O7    A    
C20   C24   S    
C49   C51   A    
C5    C23   A    
C50   C52   A    
C7    N3    S    
C2    H34   S    
C38   N8    S    
C24   H12   S    
C46   H31   S    
C19   N6    S    
C39   N9    S    
C44   N12   S    
Cu2   O5    S    
C47   H35   S    
C15   H43   S    
H7    N8    S    
C14   H42   S    
C41   H14   S    
C27   O3    S    
C43   H21   S    
C48   H39   S    
C32   C35   A    
C44   H26   S    
C35   C38   A    
C4    C6    A    
C44   H27   S    
H29   N2    S    
C25   N1    A    
C40   N8    S    
C47   N3    S    
H20   N11   S    
C46   N2    S    
C6    C34   A    
Cu2   N7    S    
C34   N11   S    
C1    O6    A    
C2    C4    A    
C25   O12   S    
C12   O5    A    
C26   C35   A    
C31   C32   A    
H33   N3    S    
C11   C12   S    
C31   C33   A    
C42   H18   S    
C6    N1    S    
C9    C11   S    
Cu1   O11   S    
C46   H30   S    
H38   N4    S    
C9    H46   S    
C13   C15   S    
C10   C14   S    
C47   H36   S    
H25   N12   S    
C1    C13   S    
C52   H23   S    
C41   H15   S    
C5    N5    S    
C43   H22   S    
C7    C9    S    
Cu2   O10   S    
C34   C49   A    
C18   C22   S    
C47   H37   S    
C10   H47   S    
C24   N7    S    
C3    C5    A    
C10   C13   S    
C8    N4    S    
C26   N5    A    
C21   N7    S    
C3    C52   A    
C22   H1    S    
C19   H6    S    
C8    C15   S    
C40   H10   S    
C28   C30   A    
C19   C24   S    
C16   O10   A    
C21   H4    S    
C29   C31   A    
Cu1   O7    S    
C43   N11   S    
C30   C32   A    
Cu1   N6    S    
C17   O11   A    
C45   C50   A    
C8    C11   S    
C22   N6    S    
C36   C38   A    
C42   H17   S    
C42   H19   S    
C18   C20   S    
C9    C15   S    
H16   N10   S    
C26   O2    S    
C2    C51   A    
C18   H5    S    
C7    C13   S    
C30   C37   A    
C37   C39   A    
C41   N9    S    
C4    H45   S    
C28   O4    S    
C1    O1    A    
C20   N6    S    
C20   H3    S    
C21   C22   S    
Cu1   O1    S    
C25   C33   A    
C46   H32   S    
