data_mof_unit_32133.cif
_audit_creation_date              2012-12-10T17:06:02-0500
_audit_creation_method            fapswitch 2.2
_symmetry_space_group_name_H-M    P1
_symmetry_Int_Tables_number       1
_space_group_crystal_system       triclinic
_cell_length_a                    25.907844
_cell_length_b                    25.921793
_cell_length_c                    18.347821
_cell_angle_alpha                 89.931611
_cell_angle_beta                  135.123204
_cell_angle_gamma                 90.230358
_cell_volume                      8694.11182306

loop_
_atom_site_label
_atom_site_type_symbol
_atom_type_description
_atom_site_fract_x
_atom_site_fract_y
_atom_site_fract_z
_atom_type_partial_charge
C1    C     C_R   0.890550 0.750443 0.779957 0.844357
C2    C     C_R   0.447684 0.207283 0.451788 0.025476
C3    C     C_R   0.207186 0.526481 0.410234 0.302355
C4    C     C_R   0.845716 0.554459 0.491601 -0.163993
C5    C     C_R   0.853780 0.447426 0.506228 -0.170263
C6    C     C_R   0.351545 0.054355 0.501348 -0.184378
C7    C     C_R   0.354008 0.947062 0.505884 -0.181952
C8    C     C_R   0.897261 0.528346 0.501524 -0.170115
C9    C     C_R   0.902647 0.475104 0.511744 -0.157540
C10   C     C_R   0.403184 0.027851 0.511981 -0.156542
C11   C     C_R   0.404670 0.974384 0.514806 -0.163185
C12   C     C_R   0.802182 0.473079 0.499311 0.105996
C13   C     C_R   0.020373 0.237132 0.595730 0.018421
C14   C     C_R   0.799837 0.527720 0.495128 0.113103
C15   C     C_R   0.302961 0.972992 0.499772 0.108901
C16   C     C_R   0.302147 0.027721 0.498310 0.103201
C17   C     C_R   0.749631 0.553948 0.490453 -0.085048
C18   C     C_R   0.751232 0.446111 0.493004 -0.082247
C19   C     C_R   0.250173 0.053990 0.490071 -0.084030
C20   C     C_R   0.250975 0.946122 0.491383 -0.080366
C21   C     C_R   0.698600 0.526350 0.480652 -0.193606
C22   C     C_R   0.699000 0.473066 0.481029 -0.188918
C23   C     C_R   0.197318 0.026414 0.476155 -0.199757
C24   C     C_R   0.998880 0.710580 0.547942 -0.003130
C25   C     C_R   0.197628 0.973172 0.476597 -0.185539
C26   C     C_R   0.750043 0.889906 0.499879 0.829861
C27   C     C_R   0.749729 0.110088 0.499746 0.810992
C28   C     C_R   0.252484 0.390023 0.502639 0.906076
C29   C     C_R   0.251475 0.610110 0.501505 0.815014
C30   C     C_R   0.889620 0.749547 0.498609 0.820104
C31   C     C_R   0.889801 0.250140 0.499447 0.810108
C32   C     C_R   0.390299 0.250471 0.500720 0.823259
C33   C     C_R   0.389869 0.750290 0.499842 0.818923
C34   C     C_R   0.609531 0.750327 0.498981 1.018102
C35   C     C_R   0.504282 0.795207 0.454263 -0.049292
C36   C     C_R   0.609633 0.249542 0.499100 1.046744
C37   C     C_R   0.110856 0.249109 0.501472 1.018738
C38   C     C_R   0.113766 0.752855 0.507194 0.909963
C39   C     C_R   0.505890 0.837870 0.406231 0.456163
C40   C     C_R   0.501868 0.163639 0.400546 0.469686
C41   C     C_R   0.147793 0.218693 0.690238 0.471351
C42   C     C_R   0.127080 0.689799 0.661085 0.513565
C43   C     C_R   0.456890 0.879047 0.366674 -0.202589
C44   C     C_R   0.450300 0.123537 0.357064 -0.211325
C45   C     C_R   0.163593 0.209740 0.779988 -0.210566
C46   C     C_R   0.501555 0.206124 0.450040 -0.041036
C47   C     C_R   0.116362 0.643530 0.689064 -0.269963
C48   C     C_R   0.405939 0.878351 0.371565 -0.217738
C49   C     C_R   0.398165 0.125123 0.359644 -0.215395
C50   C     C_R   0.109546 0.213763 0.778395 -0.191390
C51   C     C_R   0.046421 0.628419 0.639410 -0.199428
C52   C     C_R   0.476835 0.660552 0.564650 0.114905
C53   C     C_R   0.493126 0.660219 0.655789 -0.159211
C54   C     C_R   0.479003 0.616154 0.683536 -0.160569
C55   C     C_R   0.448728 0.572237 0.620713 -0.111679
C56   C     C_R   0.432244 0.572350 0.529849 -0.116127
C57   C     C_R   0.075816 0.234646 0.597242 -0.037701
C58   C     C_R   0.446209 0.616339 0.501747 -0.107576
C59   C     C_R   0.492241 0.334474 0.591927 0.073561
C60   C     C_R   0.437442 0.372237 0.533455 -0.110835
C61   C     C_R   0.436659 0.412869 0.582793 -0.153473
C62   C     C_R   0.491211 0.416537 0.690516 -0.065945
C63   C     C_R   0.546611 0.379577 0.749049 -0.099261
C64   C     C_R   0.546942 0.338467 0.700105 -0.154622
C65   C     C_R   0.850246 0.258385 0.307244 0.104718
C66   C     C_R   0.806899 0.213650 0.258154 -0.058908
C67   C     C_R   0.736020 0.216300 0.158933 -0.107544
C68   C     C_R   0.065229 0.719701 0.578188 -0.032150
C69   C     C_R   0.708557 0.263352 0.106753 -0.118977
C70   C     C_R   0.751721 0.307851 0.154143 -0.156825
C71   C     C_R   0.821962 0.305683 0.254689 -0.199065
C72   C     C_R   0.913269 0.843672 0.435408 0.144297
C73   C     C_R   0.849493 0.852213 0.330643 -0.111738
C74   C     C_R   0.806762 0.895853 0.301061 -0.099771
C75   C     C_R   0.827652 0.931268 0.375582 -0.095630
C76   C     C_R   0.891411 0.923174 0.479788 -0.144691
C77   C     C_R   0.934113 0.879465 0.509819 -0.120409
C78   C     C_R   0.345359 0.729653 0.084313 0.136659
C79   C     C_R   0.551328 0.751842 0.494736 -0.155406
C80   C     C_R   0.385974 0.736185 0.189532 -0.132847
C81   C     C_R   0.359569 0.716618 0.229193 -0.127244
C82   C     C_R   0.292163 0.691314 0.164824 -0.105320
C83   C     C_R   0.251063 0.684854 0.060346 -0.123583
C84   C     C_R   0.277528 0.703487 0.020337 -0.150882
C85   C     C_R   0.638187 0.428718 0.113961 0.120541
C86   C     C_R   0.712922 0.422966 0.204552 -0.194638
C87   C     C_R   0.759788 0.465608 0.249749 -0.114607
C88   C     C_R   0.732173 0.514954 0.209835 -0.102542
C89   C     C_R   0.657557 0.521547 0.122430 -0.131423
C90   C     C_R   0.551815 0.248111 0.495683 -0.151389
C91   C     C_R   0.610950 0.478675 0.073858 -0.117692
C92   C     C_R   0.865803 0.162726 0.085056 0.122815
C93   C     C_R   0.913749 0.158981 0.193031 -0.143551
C94   C     C_R   0.895547 0.128690 0.235247 -0.139219
C95   C     C_R   0.829292 0.101774 0.170647 -0.127569
C96   C     C_R   0.781217 0.104952 0.063643 -0.127162
C97   C     C_R   0.799290 0.134993 0.020930 -0.143437
C98   C     C_R   0.102665 0.940295 0.116534 0.138096
C99   C     C_R   0.179522 0.941796 0.193218 -0.163210
C100  C     C_R   0.216490 0.988023 0.244373 -0.133871
C101  C     C_R   0.056514 0.246586 0.504744 -0.155652
C102  C     C_R   0.177342 0.032674 0.221726 -0.095488
C103  C     C_R   0.100935 0.031386 0.146446 -0.115245
C104  C     C_R   0.063605 0.985522 0.093257 -0.133225
C105  C     C_R   0.888613 0.251644 0.779748 0.828056
C106  C     C_R   0.065827 0.757971 0.523181 -0.128880
C107  C     C_R   0.544097 0.708421 0.532964 0.358020
C108  C     C_R   0.547348 0.290800 0.538114 0.379847
C109  C     C_R   0.983758 0.255475 0.411134 0.352775
C110  C     C_R   0.014262 0.798039 0.472794 0.382545
C111  C     C_R   0.489759 0.707674 0.532981 -0.138260
C112  C     C_R   0.494020 0.291484 0.540139 -0.126521
C113  C     C_R   0.928066 0.254142 0.408285 -0.128921
C114  C     C_R   0.957637 0.796550 0.467992 -0.143952
C115  C     C_R   0.445528 0.751474 0.498734 -0.141466
C116  C     C_R   0.390229 0.250060 0.779947 0.875817
C117  C     C_R   0.445019 0.249583 0.497731 -0.124746
C118  C     C_R   0.947224 0.247871 0.501694 -0.139577
C119  C     C_R   0.947284 0.751170 0.500423 -0.158397
C120  C     C_R   0.448851 0.746051 0.098775 -0.207367
C121  C     C_R   0.594906 0.340334 0.109363 -0.192769
C122  C     C_R   0.958594 0.201406 0.091670 -0.183825
C123  C     C_R   0.079253 0.845919 0.110101 -0.205653
C124  C     C_R   0.373842 0.747580 0.040843 -0.031959
C125  C     C_R   0.590068 0.382719 0.057195 0.021518
C126  C     C_R   0.885313 0.194708 0.039504 -0.029522
C127  C     C_R   0.389831 0.750610 0.779894 0.832264
C128  C     C_R   0.063298 0.892145 0.058312 -0.032028
C129  C     C_R   0.325016 0.764758 0.938825 -0.173727
C130  C     C_R   0.542020 0.380127 0.950082 -0.185269
C131  C     C_R   0.830969 0.219223 0.944325 -0.176153
C132  C     C_R   0.012614 0.892055 0.950857 -0.164072
C133  C     C_R   0.608308 0.750936 0.219627 0.853380
C134  C     C_R   0.610716 0.250724 0.220051 0.875653
C135  C     C_R   0.109701 0.248907 0.219189 0.860800
C136  C     C_R   0.110706 0.750695 0.220026 0.848379
C137  C     C_R   0.348005 0.773632 0.890699 0.488072
C138  C     C_R   0.402850 0.836884 0.416241 -0.156774
C139  C     C_R   0.497826 0.337005 0.894228 0.378953
C140  C     C_R   0.848141 0.244821 0.896837 0.474180
C141  C     C_R   0.978990 0.846375 0.894733 0.456278
C142  C     C_R   0.420952 0.761152 0.943074 -0.043514
C143  C     C_R   0.498272 0.295271 0.945378 -0.015555
C144  C     C_R   0.921791 0.245016 0.944675 -0.042390
C145  C     C_R   0.989402 0.799824 0.945596 -0.031245
C146  C     C_R   0.473892 0.753082 0.051166 -0.038661
C147  C     C_R   0.549785 0.296277 0.054912 -0.053264
C148  C     C_R   0.978332 0.231193 0.049443 -0.030018
C149  C     C_R   0.396343 0.166468 0.405707 -0.147646
C150  C     C_R   0.041662 0.799653 0.055223 -0.043935
C151  C     C_R   0.549513 0.751837 0.106665 -0.098805
C152  C     C_R   0.556283 0.252537 0.107611 -0.086213
C153  C     C_R   0.051810 0.246727 0.105636 -0.120340
C154  C     C_R   0.056810 0.752815 0.107606 -0.087636
C155  C     C_R   0.570208 0.752909 0.053516 0.448104
C156  C     C_R   0.511893 0.208911 0.053139 0.445368
C157  C     C_R   0.068803 0.264398 0.051997 0.443498
C158  C     C_R   0.021441 0.706729 0.052825 0.442075
C159  C     C_R   0.516256 0.753291 0.946040 -0.325205
C160  C     C_R   0.038603 0.226174 0.687398 -0.149461
C161  C     C_R   0.458162 0.209625 0.945492 -0.328367
C162  C     C_R   0.013533 0.266879 0.944782 -0.311050
C163  C     C_R   0.968205 0.707577 0.945306 -0.320577
C164  C     C_R   0.442597 0.755925 0.891246 -0.118180
C165  C     C_R   0.449941 0.252372 0.891871 -0.109230
C166  C     C_R   0.941032 0.256464 0.891194 -0.128329
C167  C     C_R   0.950566 0.753360 0.891857 -0.106584
C168  C     C_R   0.619719 0.945738 0.331753 -0.373620
C169  C     C_R   0.618895 0.053184 0.333137 -0.353695
C170  C     C_R   0.346450 0.448345 0.698524 -0.335574
C171  C     C_R   0.988035 0.661781 0.570026 -0.126703
C172  C     C_R   0.353841 0.554927 0.695825 -0.355770
C173  C     C_R   0.554765 0.972224 0.250858 0.478266
C174  C     C_R   0.554211 0.026069 0.251927 0.483679
C175  C     C_R   0.387918 0.476250 0.790992 0.461326
C176  C     C_R   0.394333 0.529525 0.790300 0.465701
C177  C     C_R   0.684471 0.026960 0.415511 0.010764
C178  C     C_R   0.684725 0.972530 0.415063 0.016335
C179  C     C_R   0.303032 0.527961 0.600552 0.007978
C180  C     C_R   0.301563 0.473598 0.601716 -0.044998
C181  C     C_R   0.749903 0.609965 0.497493 0.795197
C182  C     C_R   0.451560 0.794930 0.458287 0.015523
C183  C     C_R   0.750386 0.390047 0.497928 0.790111
C184  C     C_R   0.250027 0.109984 0.497097 0.788486
C185  C     C_R   0.250342 0.890049 0.497450 0.786187
C186  C     C_R   0.749556 0.946020 0.498537 -0.239336
C187  C     C_R   0.749256 0.053969 0.499196 -0.232586
C188  C     C_R   0.255817 0.446293 0.506345 -0.190011
C189  C     C_R   0.254351 0.554073 0.504502 -0.189644
C190  C     C_R   0.814037 0.973354 0.581466 0.392475
C191  C     C_R   0.813817 0.027030 0.582442 0.405822
C192  C     C_R   0.210625 0.472618 0.411550 0.394636
H1    H     H_    0.268363 0.771953 0.895997 0.183311
H2    H     H_    0.617105 0.094881 0.331490 0.172008
H3    H     H_    0.210741 0.907582 0.211522 0.120194
H4    H     H_    0.275511 0.989303 0.301015 0.144925
H5    H     H_    0.206205 0.068306 0.262096 0.115167
H6    H     H_    0.070616 0.066028 0.128701 0.136666
H7    H     H_    0.004354 0.985177 0.034388 0.143251
H8    H     H_    0.350301 0.407028 0.705200 0.221672
H9    H     H_    0.362716 0.595888 0.698578 0.163334
H10   H     H_    0.659300 0.546195 0.475370 0.176704
H11   H     H_    0.659624 0.452711 0.475348 0.176226
H12   H     H_    0.156783 0.046243 0.468187 0.169493
H13   H     H_    0.157170 0.952933 0.468682 0.181726
H14   H     H_    0.840840 0.595426 0.477986 0.133784
H15   H     H_    0.856266 0.406043 0.504207 0.161315
H16   H     H_    0.350157 0.095622 0.492969 0.153710
H17   H     H_    0.540346 0.411340 0.909132 0.151751
H18   H     H_    0.354780 0.905730 0.501170 0.158256
H19   H     H_    0.931749 0.549280 0.498230 0.137387
H20   H     H_    0.941834 0.454851 0.517386 0.143161
H21   H     H_    0.441212 0.048872 0.515756 0.158146
H22   H     H_    0.443982 0.953938 0.521020 0.160524
H23   H     H_    0.457326 0.911614 0.330065 0.149174
H24   H     H_    0.449920 0.091017 0.319662 0.149687
H25   H     H_    0.217890 0.198242 0.851257 0.143119
H26   H     H_    0.162250 0.619453 0.749935 0.144484
H27   H     H_    0.122246 0.205736 0.847626 0.161574
H28   H     H_    0.774656 0.218877 0.906310 0.157073
H29   H     H_    0.038099 0.592058 0.658967 0.166743
H30   H     H_    0.367780 0.909915 0.339151 0.150888
H31   H     H_    0.358397 0.094230 0.324911 0.156048
H32   H     H_    0.360633 0.837675 0.415226 0.120094
H33   H     H_    0.353620 0.166227 0.403727 0.121837
H34   H     H_    0.998339 0.225823 0.690158 0.151999
H35   H     H_    0.934706 0.648869 0.533900 0.152917
H36   H     H_    0.485814 0.736516 0.179069 0.184288
H37   H     H_    0.633970 0.342227 0.192646 0.137978
H38   H     H_    0.998178 0.178829 0.160126 0.185198
H39   H     H_    0.002840 0.927189 0.910546 0.199792
H40   H     H_    0.121135 0.846914 0.193578 0.149751
H41   H     H_    0.590368 0.643908 0.610972 0.345505
H42   H     H_    0.581260 0.361864 0.588863 0.347624
H43   H     H_    0.917528 0.263973 0.260683 0.351758
H44   H     H_    0.978561 0.859966 0.386577 0.336458
H45   H     H_    0.325997 0.819951 0.789477 0.312548
H46   H     H_    0.471346 0.304478 0.778292 0.322853
H47   H     H_    0.814342 0.300898 0.802206 0.317146
H48   H     H_    0.958908 0.819847 0.779442 0.302959
H49   H     H_    0.878614 0.913467 0.643614 0.341601
H50   H     H_    0.531700 0.750560 0.904551 0.147935
H51   H     H_    0.875367 0.089030 0.655641 0.313998
H52   H     H_    0.141568 0.467040 0.260690 0.387473
H53   H     H_    0.137333 0.581706 0.323184 0.350575
H54   H     H_    0.499842 0.908696 0.180343 0.316942
H55   H     H_    0.497048 0.088871 0.186626 0.336385
H56   H     H_    0.406589 0.415726 0.869260 0.340751
H57   H     H_    0.438384 0.593277 0.869674 0.321192
H58   H     H_    0.545801 0.870207 0.358499 0.318874
H59   H     H_    0.543140 0.130124 0.356043 0.320438
H60   H     H_    0.247104 0.198707 0.762013 0.323091
H61   H     H_    0.421826 0.176729 0.902868 0.147423
H62   H     H_    0.232999 0.683586 0.775186 0.322807
H63   H     H_    0.516436 0.694080 0.704879 0.130851
H64   H     H_    0.491488 0.616052 0.753701 0.126847
H65   H     H_    0.437993 0.538132 0.642350 0.125858
H66   H     H_    0.408541 0.538370 0.481130 0.133752
H67   H     H_    0.432789 0.616158 0.430813 0.140482
H68   H     H_    0.395529 0.370206 0.449898 0.161367
H69   H     H_    0.393987 0.441638 0.537535 0.130464
H70   H     H_    0.490601 0.447997 0.728637 0.117444
H71   H     H_    0.589041 0.382541 0.832439 0.127897
H72   H     H_    0.027475 0.276144 0.902770 0.164030
H73   H     H_    0.589907 0.309912 0.746258 0.150280
H74   H     H_    0.828281 0.176695 0.296715 0.132308
H75   H     H_    0.702832 0.181726 0.121914 0.137899
H76   H     H_    0.654067 0.265283 0.029318 0.133801
H77   H     H_    0.730797 0.343987 0.112505 0.146767
H78   H     H_    0.855160 0.340354 0.290240 0.147244
H79   H     H_    0.832657 0.824804 0.272499 0.135460
H80   H     H_    0.757353 0.902143 0.220415 0.135516
H81   H     H_    0.794422 0.964942 0.352646 0.132327
H82   H     H_    0.907616 0.950705 0.537302 0.163195
H83   H     H_    0.938887 0.672364 0.902591 0.151925
H84   H     H_    0.983042 0.873287 0.590854 0.137606
H85   H     H_    0.648429 0.751729 0.059356 0.326912
H86   H     H_    0.485910 0.139107 0.057251 0.346246
H87   H     H_    0.142534 0.287758 0.055922 0.333072
H88   H     H_    0.008544 0.632879 0.056340 0.341110
H89   H     H_    0.437854 0.756401 0.241193 0.142072
H90   H     H_    0.391454 0.720673 0.310057 0.146158
H91   H     H_    0.272044 0.676441 0.196118 0.153546
H92   H     H_    0.199016 0.664831 0.010459 0.145513
H93   H     H_    0.245402 0.696412 0.939617 0.131027
H94   H     H_    0.618555 0.904038 0.329043 0.150790
H95   H     H_    0.735772 0.385387 0.238291 0.124950
H96   H     H_    0.817793 0.460108 0.314505 0.141443
H97   H     H_    0.768674 0.547949 0.246019 0.129744
H98   H     H_    0.636007 0.559752 0.091004 0.153024
H99   H     H_    0.553809 0.484617 0.004689 0.215126
H100  H     H_    0.965118 0.179769 0.245288 0.185787
H101  H     H_    0.932693 0.126426 0.318251 0.139619
H102  H     H_    0.815158 0.078528 0.203524 0.129908
H103  H     H_    0.729980 0.083880 0.013622 0.137148
H104  H     H_    0.761614 0.135735 0.937755 0.129854
O1    O     O_3   0.750020 0.750020 0.500000 -0.504834
O2    O     O_R   0.750010 0.134170 0.560720 -0.621098
O3    O     O_R   0.250010 0.365830 0.560720 -0.659329
O4    O     O_R   0.250010 0.634170 0.560720 -0.650671
O5    O     O_R   0.896180 0.719660 0.731600 -0.648904
O6    O     O_R   0.896180 0.280340 0.731600 -0.651624
O7    O     O_R   0.396180 0.219660 0.731600 -0.650672
O8    O     O_R   0.396180 0.780340 0.731600 -0.644742
O9    O     O_R   0.664580 0.780370 0.268400 -0.591332
O10   O     O_R   0.664580 0.219630 0.268400 -0.618098
O11   O     O_R   0.164580 0.280370 0.268400 -0.562214
O12   O     O_3   0.750020 0.249980 0.500000 -0.504105
O13   O     O_R   0.164580 0.719630 0.268400 -0.605737
O14   O     O_R   0.835450 0.780390 0.731600 -0.598338
O15   O     O_R   0.835450 0.219610 0.731600 -0.608203
O16   O     O_R   0.335450 0.280390 0.731600 -0.600492
O17   O     O_R   0.335450 0.719610 0.731600 -0.601638
O18   O     O_R   0.603870 0.719650 0.268400 -0.669545
O19   O     O_R   0.603870 0.280350 0.268400 -0.644927
O20   O     O_R   0.103870 0.219650 0.268400 -0.689021
O21   O     O_R   0.103870 0.780350 0.268400 -0.656288
O22   O     O_R   0.810750 0.634210 0.560720 -0.650612
O23   O     O_3   0.250020 0.250020 0.500000 -0.504338
O24   O     O_R   0.810750 0.365790 0.560720 -0.651726
O25   O     O_R   0.310750 0.134210 0.560720 -0.644382
O26   O     O_R   0.310750 0.865790 0.560720 -0.649950
O27   O     O_R   0.750010 0.865820 0.439280 -0.644165
O28   O     O_R   0.750010 0.134180 0.439280 -0.635629
O29   O     O_R   0.250010 0.365820 0.439280 -0.591980
O30   O     O_R   0.250010 0.634180 0.439280 -0.605245
O31   O     O_R   0.896180 0.719650 0.560720 -0.655367
O32   O     O_R   0.896180 0.280350 0.560720 -0.655886
O33   O     O_R   0.396180 0.219650 0.560720 -0.654072
O34   O     O_3   0.250020 0.749980 0.500000 -0.505895
O35   O     O_R   0.396180 0.780350 0.560720 -0.653362
O36   O     O_R   0.664570 0.780390 0.560720 -0.617958
O37   O     O_R   0.664570 0.219610 0.560720 -0.596855
O38   O     O_R   0.164570 0.280390 0.560720 -0.614958
O39   O     O_R   0.164570 0.719610 0.560720 -0.598558
O40   O     O_R   0.835460 0.780370 0.439280 -0.621270
O41   O     O_R   0.835460 0.219630 0.439280 -0.649244
O42   O     O_R   0.335460 0.280370 0.439280 -0.636134
O43   O     O_R   0.335460 0.719630 0.439280 -0.640756
O44   O     O_R   0.603860 0.719660 0.439280 -0.634280
O45   O     O_R   0.689310 0.634210 0.439280 -0.627805
O46   O     O_R   0.603860 0.280340 0.439280 -0.621828
O47   O     O_R   0.103860 0.219660 0.439280 -0.633077
O48   O     O_R   0.103860 0.780340 0.439280 -0.588194
O49   O     O_3   0.591986 0.667738 0.570511 -0.783054
O50   O     O_3   0.597154 0.330742 0.578139 -0.768209
O51   O     O_3   0.970208 0.266281 0.324687 -0.788578
O52   O     O_3   0.023823 0.839424 0.435331 -0.737425
O53   O     O_3   0.298472 0.796403 0.794622 -0.725531
O54   O     O_3   0.457507 0.336371 0.790700 -0.802537
O55   O     O_3   0.792452 0.271653 0.807585 -0.743488
O56   O     O_R   0.689310 0.365790 0.439280 -0.633493
O57   O     O_3   0.940670 0.848406 0.792034 -0.762438
O58   O     O_3   0.879380 0.949193 0.663101 -0.693373
O59   O     O_3   0.879016 0.051302 0.665806 -0.711341
O60   O     O_3   0.166108 0.444161 0.320761 -0.736878
O61   O     O_3   0.155644 0.550856 0.315630 -0.745377
O62   O     O_3   0.490748 0.946379 0.169986 -0.717892
O63   O     O_3   0.489437 0.051262 0.172648 -0.722335
O64   O     O_3   0.422596 0.452294 0.883190 -0.743954
O65   O     O_3   0.439949 0.555949 0.883029 -0.745826
O66   O     O_3   0.553038 0.838270 0.394544 -0.820142
O67   O     O_R   0.189310 0.134210 0.439280 -0.649143
O68   O     O_3   0.551104 0.162006 0.392737 -0.803148
O69   O     O_3   0.201011 0.209299 0.691709 -0.798201
O70   O     O_3   0.196888 0.709220 0.721530 -0.715500
O71   O     O_3   0.643476 0.750564 0.108210 -0.767286
O72   O     O_3   0.520834 0.166543 0.107004 -0.780412
O73   O     O_3   0.140417 0.275977 0.105216 -0.743469
O74   O     O_3   0.038161 0.661632 0.106222 -0.751901
O75   O     O_R   0.189310 0.865790 0.439280 -0.628680
O76   O     O_R   0.750010 0.865830 0.560720 -0.589467
Zn1   Zn    Zn3+2 0.663270 0.706640 0.413250 0.997896
Zn2   Zn    Zn3+2 0.750020 0.206610 0.413240 0.979431
Zn3   Zn    Zn3+2 0.250020 0.293390 0.413240 1.038746
Zn4   Zn    Zn3+2 0.250020 0.706610 0.413240 0.993422
Zn5   Zn    Zn3+2 0.750010 0.793400 0.586760 1.046506
Zn6   Zn    Zn3+2 0.750010 0.206600 0.586760 1.042734
Zn7   Zn    Zn3+2 0.250010 0.293400 0.586760 1.031718
Zn8   Zn    Zn3+2 0.250010 0.706600 0.586760 1.012269
Zn9   Zn    Zn3+2 0.663270 0.293360 0.413250 1.022837
Zn10  Zn    Zn3+2 0.163270 0.206640 0.413250 0.973078
Zn11  Zn    Zn3+2 0.163270 0.793360 0.413250 1.008397
Zn12  Zn    Zn3+2 0.836780 0.706640 0.586750 0.963588
Zn13  Zn    Zn3+2 0.836780 0.293360 0.586750 0.953151
Zn14  Zn    Zn3+2 0.336780 0.206640 0.586750 0.971229
Zn15  Zn    Zn3+2 0.336780 0.793360 0.586750 0.959689
Zn16  Zn    Zn3+2 0.750020 0.793390 0.413240 1.002780

loop_
_geom_bond_atom_site_label_1
_geom_bond_atom_site_label_2
_ccdc_geom_bond_type
H51   O59   S    
C174  O63   S    
C142  C146  A    
O27   Zn16  S    
C133  C151  S    
C84   H93   S    
C108  O50   S    
O13   Zn4   S    
C40   C46   A    
C91   H99   S    
C22   H11   S    
H43   O51   S    
O12   Zn13  S    
C154  C158  A    
C64   H73   S    
C3    C189  A    
C141  O57   S    
C173  O62   S    
C1    C167  S    
O5    Zn12  S    
C99   H3    S    
O75   Zn11  S    
C73   C74   A    
O1    Zn5   S    
C24   C171  A    
C181  O45   A    
C131  C140  A    
C152  C156  A    
C169  C174  A    
C121  C147  A    
C151  C155  A    
C8    H19   S    
C32   O42   A    
C28   O3    A    
C141  C145  A    
C7    C15   A    
O15   Zn6   S    
C80   H89   S    
C21   C22   A    
O1    Zn12  S    
C65   C113  S    
C133  O18   A    
C2    C117  A    
C100  H4    S    
C15   C20   A    
O7    Zn14  S    
H59   O68   S    
C5    C12   A    
C73   H79   S    
C74   H80   S    
C191  O59   S    
C50   C160  A    
O4    Zn8   S    
C17   C21   A    
C63   H71   S    
C186  C190  A    
C39   O66   S    
C19   C23   A    
C75   C76   A    
O16   Zn7   S    
C140  O55   S    
C5    H15   S    
C175  C176  A    
C138  H32   S    
C155  O71   S    
C27   C187  S    
C52   C58   A    
C26   O27   A    
C172  C179  A    
H58   O66   S    
C143  C147  A    
H41   O49   S    
C29   C189  S    
C38   O39   A    
C7    H18   S    
C181  O22   A    
C44   H24   S    
C54   H64   S    
O67   Zn10  S    
C72   C73   A    
C10   H21   S    
C109  O51   S    
C176  O65   S    
C116  O7    A    
C48   C138  A    
C40   O68   S    
C60   H68   S    
C61   H69   S    
O22   Zn12  S    
C48   H30   S    
C45   C50   A    
H54   O62   S    
O56   Zn9   S    
C4    C14   A    
C69   C70   A    
C138  C182  A    
C11   H22   S    
C6    C16   A    
C178  C186  A    
C129  C137  A    
C88   C89   A    
C98   C99   A    
C34   O36   A    
C41   C45   A    
C175  O64   S    
C157  C162  A    
C161  C165  A    
C183  O56   A    
O12   Zn2   S    
C137  C142  A    
C38   C106  S    
C127  C164  S    
O40   Zn16  S    
C97   H104  S    
C32   C117  S    
O6    Zn13  S    
C13   C118  A    
H47   O55   S    
C85   C86   A    
C121  C125  A    
O36   Zn5   S    
C18   C183  S    
C94   H101  S    
C51   H29   S    
C16   C19   A    
C78   C80   A    
C13   C57   A    
C50   H27   S    
C105  C166  S    
C29   O30   A    
C83   H92   S    
C139  C143  A    
C123  H40   S    
C83   C84   A    
C89   C91   A    
C110  C114  A    
C159  H50   S    
C6    H16   S    
C145  C150  A    
C185  O26   A    
C66   C67   A    
C123  C150  A    
C162  C166  A    
C75   H81   S    
O46   Zn9   S    
C14   C17   A    
C169  C177  A    
O35   Zn15  S    
C92   C97   A    
C26   O76   A    
C121  H37   S    
O76   Zn5   S    
C155  C159  A    
C95   H102  S    
C102  H5    S    
C127  O8    A    
C131  H28   S    
C31   C118  S    
C5    C9    A    
C34   C79   S    
H87   O73   S    
C110  O52   S    
C28   O29   A    
C179  C189  A    
C162  H72   S    
O24   Zn13  S    
C158  C163  A    
C168  H94   S    
C127  O17   A    
C156  C161  A    
C177  C178  A    
C122  C148  A    
O31   Zn12  S    
H62   O70   S    
C132  H39   S    
C115  C182  A    
H45   O53   S    
C52   C53   A    
O2    Zn6   S    
C36   C90   S    
C132  C141  A    
O33   Zn14  S    
H48   O57   S    
C13   C160  A    
C93   H100  S    
C18   C22   A    
C107  C111  A    
C19   C184  S    
O12   Zn9   S    
C57   C101  A    
C23   H12   S    
C188  C192  A    
C30   O40   A    
O20   Zn10  S    
C96   H103  S    
C90   C108  A    
C3    C192  A    
C105  O15   A    
C37   C101  S    
C26   C186  S    
C139  O54   S    
C35   C79   A    
C56   C58   A    
C102  C103  A    
C10   C11   A    
C146  C151  A    
C17   C181  S    
C59   C60   A    
C158  O74   S    
C32   O33   A    
C159  C164  A    
C130  H17   S    
C36   O46   A    
C134  O19   A    
C172  C176  A    
C136  O13   A    
C55   C56   A    
C86   H95   S    
C1    O14   A    
O25   Zn14  S    
C163  H83   S    
C33   O43   A    
C190  C191  A    
C31   O32   A    
C28   C188  S    
C142  C164  A    
C112  C117  A    
C20   C25   A    
C9    H20   S    
C101  C109  A    
C72   C114  S    
C120  C146  A    
C149  H33   S    
O23   Zn14  S    
C143  C165  A    
O37   Zn6   S    
C180  C188  A    
C54   C55   A    
O12   Zn6   S    
C37   O47   A    
O44   Zn1   S    
O8    Zn15  S    
C70   C71   A    
C27   O28   A    
C120  H36   S    
C31   O41   A    
C4    C8    A    
C98   C128  S    
C185  O75   A    
O34   Zn15  S    
C49   H31   S    
C25   H13   S    
C130  C139  A    
C170  H8    S    
C170  C175  A    
C47   H26   S    
C33   C115  S    
C88   H97   S    
H44   O52   S    
C87   H96   S    
C86   C87   A    
C70   H77   S    
C47   C51   A    
C53   C54   A    
O29   Zn3   S    
C108  C112  A    
C144  C166  A    
C60   C61   A    
C55   H65   S    
C103  H6    S    
C35   C39   A    
C62   C63   A    
C136  C154  S    
C129  H1    S    
O34   Zn11  S    
C134  C152  S    
C30   O31   A    
C79   C107  A    
O21   Zn11  S    
O45   Zn1   S    
H42   O50   S    
O14   Zn5   S    
C171  H35   S    
H57   O65   S    
C116  C165  S    
O34   Zn4   S    
O26   Zn15  S    
C145  C167  A    
C24   C119  A    
C21   H10   S    
C33   O35   A    
C81   H90   S    
C140  C144  A    
C92   C126  S    
C6    C10   A    
C169  H2    S    
C46   C90   A    
O39   Zn8   S    
C177  C187  A    
H55   O63   S    
C58   H67   S    
C183  O24   A    
C3    O61   S    
C41   C57   A    
C190  O58   S    
H49   O58   S    
C34   O44   A    
C71   H78   S    
H53   O61   S    
C92   C93   A    
C124  C129  A    
C105  O6    A    
C153  C157  A    
C94   C95   A    
C27   O2    A    
C24   C68   A    
C179  C180  A    
C135  O20   A    
C87   C88   A    
C82   C83   A    
C103  C104  A    
C53   H63   S    
O1    Zn1   S    
C107  O49   S    
O47   Zn10  S    
C134  O10   A    
C38   O48   A    
C44   C49   A    
O34   Zn8   S    
H88   O74   S    
C93   C94   A    
C45   H25   S    
C85   C125  S    
C95   C96   A    
C144  C148  A    
C43   H23   S    
C62   H70   S    
C69   H76   S    
C161  H61   S    
C81   C82   A    
C85   C91   A    
C135  O11   A    
O32   Zn13  S    
C173  C174  A    
C2    C46   A    
C35   C182  A    
C7    C11   A    
C59   C64   A    
O48   Zn11  S    
C29   O4    A    
C168  C178  A    
C30   C119  S    
C15   C16   A    
C192  O60   S    
O23   Zn3   S    
O28   Zn2   S    
C20   C185  S    
C125  C130  A    
O30   Zn4   S    
C8    C9    A    
O11   Zn3   S    
C160  H34   S    
C78   C124  S    
C43   C48   A    
C187  C191  A    
C66   H74   S    
C109  C113  A    
C2    C149  A    
C42   O70   S    
C42   C68   A    
H60   O69   S    
C77   H84   S    
C1    O5    A    
C61   C62   A    
C68   C106  A    
O42   Zn3   S    
C82   H91   S    
C128  C132  A    
H85   O71   S    
C59   C112  S    
C168  C173  A    
C122  H38   S    
O9    Zn16  S    
C74   C75   A    
C76   H82   S    
C184  O25   A    
C76   C77   A    
C39   C43   A    
C52   C111  S    
C65   C71   A    
O41   Zn2   S    
O18   Zn1   S    
C63   C64   A    
C170  C180  A    
C67   C69   A    
O43   Zn4   S    
C122  C126  A    
C163  C167  A    
C72   C77   A    
C137  O53   S    
C67   H75   S    
C99   C100  A    
C40   C44   A    
C136  O21   A    
C96   C97   A    
H56   O64   S    
C100  C102  A    
O38   Zn7   S    
C133  O9    A    
H52   O60   S    
C116  O16   A    
C12   C14   A    
C36   O37   A    
C150  C154  A    
C104  H7    S    
H46   O54   S    
O3    Zn7   S    
C37   O38   A    
O10   Zn2   S    
C56   H66   S    
C114  C119  A    
C80   C81   A    
O1    Zn16  S    
O23   Zn7   S    
C184  O67   A    
C4    H14   S    
O19   Zn9   S    
H86   O72   S    
C135  C153  S    
C49   C149  A    
C51   C171  A    
C147  C152  A    
C41   O69   S    
O17   Zn8   S    
C123  C128  A    
C126  C131  A    
C98   C104  A    
C42   C47   A    
C23   C25   A    
C172  H9    S    
O23   Zn10  S    
C113  C118  A    
C78   C84   A    
C89   H98   S    
C106  C110  A    
C65   C66   A    
C148  C153  A    
C12   C18   A    
C157  O73   S    
C111  C115  A    
C156  O72   S    
C120  C124  A    
