data_mof_unit_14560.cif
_audit_creation_date              2012-12-11T16:45:51-0500
_audit_creation_method            fapswitch 2.2
_symmetry_space_group_name_H-M    P1
_symmetry_Int_Tables_number       1
_space_group_crystal_system       triclinic
_cell_length_a                    19.797832
_cell_length_b                    17.169406
_cell_length_c                    15.332833
_cell_angle_alpha                 90.000011
_cell_angle_beta                  52.73586
_cell_angle_gamma                 90.0
_cell_volume                      4147.89686021

loop_
_atom_site_label
_atom_site_type_symbol
_atom_type_description
_atom_site_fract_x
_atom_site_fract_y
_atom_site_fract_z
_atom_type_partial_charge
C1    C     C_R   0.846172 0.678983 0.032208 -0.123967
C2    C     C_R   0.152163 0.310736 0.066570 0.107025
C3    C     C_R   0.347837 0.810736 0.933430 0.107025
C4    C     C_R   0.652164 0.810737 0.066569 0.107025
C5    C     C_R   0.811942 0.641616 0.326187 0.062829
C6    C     C_R   0.188058 0.641616 0.673813 0.062829
C7    C     C_R   0.311942 0.141616 0.326187 0.062830
C8    C     C_R   0.688058 0.141616 0.673813 0.062829
C9    C     C_R   0.708416 0.638147 0.528801 0.148288
C10   C     C_R   0.291582 0.638147 0.471199 0.148288
C11   C     C_R   0.208417 0.138147 0.528801 0.148289
C12   C     C_R   0.153829 0.678982 0.967791 -0.123967
C13   C     C_R   0.791583 0.138148 0.471199 0.148288
C14   C     C_R   0.733058 0.667303 0.428100 0.029024
C15   C     C_R   0.266941 0.667303 0.571899 0.029024
C16   C     C_R   0.233058 0.167303 0.428101 0.029023
C17   C     C_R   0.766941 0.167303 0.571899 0.029025
C18   C     C_R   0.186828 0.230011 0.429125 -0.187426
C19   C     C_R   0.813172 0.230011 0.570874 -0.187427
C20   C     C_R   0.686828 0.730012 0.429125 -0.187426
C21   C     C_R   0.313172 0.730011 0.570874 -0.187427
C22   C     C_R   0.135282 0.274736 0.524248 -0.170151
C23   C     C_R   0.346171 0.178982 0.032209 -0.123967
C24   C     C_R   0.864718 0.274736 0.475751 -0.170150
C25   C     C_R   0.635282 0.774736 0.524248 -0.170150
C26   C     C_R   0.364718 0.774736 0.475751 -0.170150
C27   C     C_R   0.130405 0.256071 0.617340 0.030843
C28   C     C_R   0.869595 0.256071 0.382660 0.030843
C29   C     C_R   0.630404 0.756071 0.617340 0.030843
C30   C     C_R   0.369595 0.756070 0.382660 0.030843
C31   C     C_R   0.657486 0.682055 0.622525 0.155301
C32   C     C_R   0.342512 0.682056 0.377475 0.155302
C33   C     C_R   0.157487 0.182055 0.622525 0.155301
C34   C     C_R   0.653829 0.178982 0.967791 -0.123967
C35   C     C_R   0.842512 0.182056 0.377475 0.155301
C36   C     C_3   0.704120 0.656113 0.666144 -0.508109
C37   C     C_3   0.295878 0.656115 0.333857 -0.508111
C38   C     C_3   0.204121 0.156114 0.666143 -0.508112
C39   C     C_3   0.795878 0.156115 0.333857 -0.508111
C40   C     C_R   0.898304 0.302324 0.207605 -0.136190
C41   C     C_R   0.101696 0.302324 0.792395 -0.136190
C42   C     C_R   0.398303 0.802324 0.207605 -0.136190
C43   C     C_R   0.601696 0.802324 0.792395 -0.136191
C44   C     C_3   0.759887 0.608209 0.563608 -0.485360
C45   C     C_R   0.887105 0.315921 0.304077 0.074598
C46   C     C_3   0.240110 0.608211 0.436393 -0.485362
C47   C     C_3   0.259888 0.108210 0.563607 -0.485362
C48   C     C_3   0.740111 0.108210 0.436393 -0.485362
C49   C     C_2   0.778719 0.186931 0.970499 -0.204255
C50   C     C_2   0.221281 0.186931 0.029501 -0.204256
C51   C     C_2   0.278719 0.686931 0.970498 -0.204255
C52   C     C_2   0.721281 0.686931 0.029501 -0.204254
C53   C     C_2   0.308694 0.751869 0.909990 -0.159690
C54   C     C_2   0.691307 0.751869 0.090009 -0.159689
C55   C     C_2   0.808694 0.251869 0.909990 -0.159689
C56   C     C_R   0.112895 0.315921 0.695923 0.074598
C57   C     C_2   0.191306 0.251869 0.090010 -0.159690
C58   C     C_R   0.868280 0.386487 0.893982 0.156657
C59   C     C_R   0.131720 0.386487 0.106018 0.156657
C60   C     C_R   0.368279 0.886487 0.893982 0.156657
C61   C     C_R   0.631721 0.886488 0.106017 0.156657
C62   C     C_R   0.860106 0.579312 0.315666 -0.122610
C63   C     C_R   0.139894 0.579312 0.684334 -0.122610
C64   C     C_R   0.360106 0.079312 0.315666 -0.122610
C65   C     C_R   0.639894 0.079312 0.684334 -0.122610
C66   C     C_R   0.873861 0.299828 0.997352 -0.160608
C67   C     C_R   0.387105 0.815921 0.304077 0.074598
C68   C     C_R   0.126139 0.299828 0.002648 -0.160608
C69   C     C_R   0.373861 0.799828 0.997352 -0.160608
C70   C     C_R   0.626140 0.799829 0.002647 -0.160608
C71   C     C_R   0.854367 0.675708 0.223369 -0.123893
C72   C     C_R   0.145633 0.675708 0.776630 -0.123894
C73   C     C_R   0.354367 0.175708 0.223370 -0.123894
C74   C     C_R   0.645633 0.175708 0.776630 -0.123893
C75   C     C_R   0.905230 0.393799 0.304793 -0.125370
C76   C     C_R   0.094770 0.393799 0.695206 -0.125369
C77   C     C_R   0.405230 0.893799 0.304793 -0.125369
C78   C     C_R   0.612895 0.815921 0.695923 0.074598
C79   C     C_R   0.594770 0.893799 0.695206 -0.125370
C80   C     C_R   0.832201 0.582117 0.946496 -0.119624
C81   C     C_R   0.167799 0.582117 0.053504 -0.119624
C82   C     C_R   0.332201 0.082117 0.946496 -0.119624
C83   C     C_R   0.667799 0.082117 0.053504 -0.119624
C84   C     C_R   0.794223 0.648468 0.009027 0.135692
C85   C     C_R   0.205777 0.648468 0.990973 0.135692
C86   C     C_R   0.294222 0.148468 0.009027 0.135692
C87   C     C_R   0.705777 0.148468 0.990973 0.135692
C88   C     C_R   0.847837 0.310736 0.933430 0.107025
H1    H     H_    0.842981 0.736166 0.063297 0.095382
H2    H     H_    0.260390 0.703824 0.328754 0.205231
H3    H     H_    0.239608 0.203822 0.671247 0.205231
H4    H     H_    0.760391 0.203823 0.328753 0.205231
H5    H     H_    0.663863 0.619921 0.741259 0.194464
H6    H     H_    0.336133 0.619923 0.258742 0.194465
H7    H     H_    0.163865 0.119922 0.741258 0.194465
H8    H     H_    0.836134 0.119923 0.258742 0.194465
H9    H     H_    0.826711 0.629110 0.511001 0.206915
H10   H     H_    0.173287 0.629113 0.489001 0.206915
H11   H     H_    0.326712 0.129111 0.511000 0.206915
H12   H     H_    0.157019 0.736166 0.936702 0.095382
H13   H     H_    0.673287 0.129112 0.489000 0.206915
H14   H     H_    0.751787 0.544478 0.579809 0.199561
H15   H     H_    0.248210 0.544481 0.420192 0.199562
H16   H     H_    0.251789 0.044480 0.579808 0.199562
H17   H     H_    0.748210 0.044480 0.420192 0.199562
H18   H     H_    0.797701 0.168204 0.020229 0.133524
H19   H     H_    0.202299 0.168204 0.979770 0.133525
H20   H     H_    0.297701 0.668204 0.020229 0.133524
H21   H     H_    0.702298 0.668203 0.979772 0.133524
H22   H     H_    0.291245 0.768128 0.857683 0.151686
H23   H     H_    0.342981 0.236166 0.063297 0.095382
H24   H     H_    0.708756 0.768129 0.142315 0.151686
H25   H     H_    0.791246 0.268128 0.857683 0.151686
H26   H     H_    0.208754 0.268128 0.142317 0.151686
H27   H     H_    0.904537 0.246505 0.171007 0.099814
H28   H     H_    0.095463 0.246505 0.828993 0.099814
H29   H     H_    0.404537 0.746505 0.171007 0.099814
H30   H     H_    0.595463 0.746505 0.828993 0.099814
H31   H     H_    0.845866 0.537912 0.377342 0.110004
H32   H     H_    0.154133 0.537912 0.622658 0.110004
H33   H     H_    0.345866 0.037912 0.377342 0.110004
H34   H     H_    0.657019 0.236166 0.936702 0.095382
H35   H     H_    0.654133 0.037912 0.622658 0.110004
H36   H     H_    0.879615 0.245885 0.028578 0.100278
H37   H     H_    0.120385 0.245885 0.971422 0.100278
H38   H     H_    0.379615 0.745885 0.028578 0.100278
H39   H     H_    0.620386 0.745886 0.971420 0.100279
H40   H     H_    0.837457 0.729227 0.204721 0.094747
H41   H     H_    0.162543 0.729227 0.795278 0.094747
H42   H     H_    0.337457 0.229227 0.204722 0.094747
H43   H     H_    0.662543 0.229227 0.795278 0.094747
H44   H     H_    0.914852 0.421174 0.359920 0.125205
H45   H     H_    0.109133 0.328400 0.519400 0.158623
H46   H     H_    0.085148 0.421174 0.640080 0.125204
H47   H     H_    0.414852 0.921174 0.359920 0.125205
H48   H     H_    0.585148 0.921174 0.640080 0.125204
H49   H     H_    0.809952 0.547261 0.910270 0.143793
H50   H     H_    0.190048 0.547261 0.089729 0.143793
H51   H     H_    0.309952 0.047261 0.910270 0.143794
H52   H     H_    0.690048 0.047261 0.089729 0.143793
H53   H     H_    0.198324 0.250541 0.354464 0.144889
H54   H     H_    0.801676 0.250541 0.645536 0.144890
H55   H     H_    0.698325 0.750542 0.354463 0.144889
H56   H     H_    0.890867 0.328400 0.480599 0.158623
H57   H     H_    0.301676 0.750541 0.645536 0.144890
H58   H     H_    0.609134 0.828401 0.519400 0.158623
H59   H     H_    0.390867 0.828400 0.480599 0.158623
H60   H     H_    0.739607 0.703821 0.671249 0.205230
I1    I     I_    0.882123 0.424666 0.752441 -0.528498
I2    I     I_    0.117877 0.424665 0.247559 -0.528498
I3    I     I_    0.382123 0.924666 0.752441 -0.528498
I4    I     I_    0.617877 0.924665 0.247559 -0.528498
N1    N     N_R   0.908660 0.628630 0.995840 -0.048373
N2    N     N_R   0.096530 0.421430 0.063580 -0.059737
N3    N     N_R   0.403470 0.921430 0.936420 -0.059737
N4    N     N_R   0.596530 0.921430 0.063580 -0.059737
N5    N     N_R   0.927500 0.575670 0.211370 -0.037296
N6    N     N_R   0.072500 0.575670 0.788630 -0.037296
N7    N     N_R   0.427500 0.075670 0.211370 -0.037296
N8    N     N_R   0.572500 0.075670 0.788630 -0.037296
N9    N     N_R   0.908660 0.365680 0.995820 -0.055238
N10   N     N_R   0.091340 0.365680 0.004180 -0.055238
N11   N     N_R   0.408660 0.865680 0.995820 -0.055238
N12   N     N_R   0.091340 0.628630 0.004160 -0.048373
N13   N     N_R   0.591340 0.865680 0.004180 -0.055238
N14   N     N_R   0.922310 0.631420 0.151980 -0.043639
N15   N     N_R   0.077690 0.631420 0.848020 -0.043638
N16   N     N_R   0.422310 0.131420 0.151980 -0.043638
N17   N     N_R   0.577690 0.131420 0.848020 -0.043638
N18   N     N_R   0.927500 0.426330 0.211360 -0.039888
N19   N     N_R   0.072500 0.426330 0.788640 -0.039888
N20   N     N_R   0.427500 0.926330 0.211360 -0.039888
N21   N     N_R   0.572500 0.926330 0.788640 -0.039888
N22   N     N_R   0.903470 0.570760 0.936440 -0.039216
N23   N     N_R   0.408660 0.128630 0.995840 -0.048373
N24   N     N_R   0.096530 0.570760 0.063560 -0.039216
N25   N     N_R   0.403470 0.070760 0.936440 -0.039216
N26   N     N_R   0.596530 0.070760 0.063560 -0.039216
N27   N     N_R   0.591340 0.128630 0.004160 -0.048373
N28   N     N_R   0.922310 0.368460 0.151950 -0.040530
N29   N     N_R   0.077690 0.368460 0.848050 -0.040530
N30   N     N_R   0.422310 0.868460 0.151950 -0.040530
N31   N     N_R   0.577690 0.868460 0.848050 -0.040530
N32   N     N_R   0.903470 0.421430 0.936420 -0.059737
Ni1   Ni    Ni4+2 0.000000 0.630300 0.000000 0.217525
Ni2   Ni    Ni4+2 0.500000 0.130300 0.000000 0.217525
Ni3   Ni    Ni4+2 1.000000 0.369700 0.000000 0.202864
Ni4   Ni    Ni4+2 0.500000 0.869700 0.000000 0.202864
Ni5   Ni    Ni4+2 0.988090 0.497570 0.863760 0.245100
Ni6   Ni    Ni4+2 0.011910 0.497570 0.136240 0.245100
Ni7   Ni    Ni4+2 0.488090 0.997570 0.863760 0.245100
Ni8   Ni    Ni4+2 0.511910 0.997570 0.136240 0.245100

loop_
_geom_bond_atom_site_label_1
_geom_bond_atom_site_label_2
_ccdc_geom_bond_type
C70   H39   S    
C53   H22   S    
C83   C87   A    
C21   C26   A    
N25   Ni7   S    
N14   Ni1   S    
C79   N21   A    
C11   C47   S    
C67   C77   A    
C80   C84   A    
C51   C85   S    
C4    C70   A    
N26   N27   A    
N29   Ni3   S    
C2    C57   S    
C72   H41   S    
N23   N25   A    
N27   Ni2   S    
N20   Ni8   S    
C43   C78   A    
C6    C72   A    
C79   H48   S    
C12   C85   A    
C56   C76   A    
N4    N13   A    
C3    C69   A    
N17   Ni2   S    
C13   C35   A    
C2    C68   A    
C10   C15   A    
C65   N8    A    
C43   H30   S    
C66   C88   A    
N10   Ni3   S    
C40   H27   S    
C23   N23   A    
C20   C25   A    
C64   H33   S    
N15   Ni1   S    
C47   H11   S    
N7    N16   A    
N19   Ni5   S    
C58   N32   A    
C44   H9    S    
C55   C88   S    
C52   C84   S    
C49   C87   S    
N5    Ni6   S    
C74   N17   A    
C6    C15   S    
C40   N28   A    
C36   H5    S    
C36   H60   S    
C29   C78   S    
C28   C35   A    
C5    C62   A    
C51   H20   S    
C23   C86   A    
C82   N25   A    
C38   H7    S    
C10   C46   S    
N8    N17   A    
C25   H58   S    
N9    Ni3   S    
C24   C28   A    
C30   C67   S    
C58   I1    S    
C3    C60   A    
N2    Ni6   S    
C8    C65   A    
C34   H34   S    
C18   C22   A    
C74   H43   S    
C20   H55   S    
C41   N29   A    
C34   N27   A    
C40   C45   A    
C73   N16   A    
C83   H52   S    
C59   N2    A    
C52   C54   D    
N6    N15   A    
C9    C31   A    
N1    N22   A    
C25   C29   A    
C81   H50   S    
C39   H8    S    
C28   C45   S    
N13   Ni4   S    
N16   Ni2   S    
C22   H45   S    
C81   N24   A    
C14   C20   A    
C11   C33   A    
C7    C73   A    
N12   Ni1   S    
C70   N13   A    
C76   H46   S    
C78   C79   A    
C55   H25   S    
N3    N11   A    
C82   C86   A    
C4    C61   A    
C71   N14   A    
C42   N30   A    
C66   N9    A    
N18   N28   A    
N11   Ni4   S    
C1    C84   A    
C60   I3    S    
C21   H57   S    
C6    C63   A    
N5    N14   A    
C76   N19   A    
C35   C39   S    
C9    C14   A    
C41   C56   A    
C82   H51   S    
N28   Ni3   S    
N20   N30   A    
C12   N12   A    
N26   Ni8   S    
C11   C16   A    
N24   Ni6   S    
C48   H17   S    
C75   N18   A    
C8    C74   A    
C62   H31   S    
C62   N5    A    
C54   H24   S    
N30   Ni4   S    
C32   C37   S    
C27   C56   S    
C1    N1    A    
C5    C14   S    
C57   H26   S    
N3    Ni7   S    
C37   H2    S    
C16   C18   A    
C7    C16   S    
C69   H38   S    
C26   C30   A    
C19   H54   S    
C22   C27   A    
C50   H19   S    
C72   N15   A    
C66   H36   S    
C71   H40   S    
N6    Ni5   S    
C41   H28   S    
C61   N4    A    
N4    Ni8   S    
C39   H4    S    
C75   H44   S    
C59   I2    S    
C73   H42   S    
C9    C44   S    
C1    H1    S    
C47   H16   S    
C83   N26   A    
C4    C54   S    
C2    C59   A    
C50   C57   D    
N7    Ni8   S    
N19   N29   A    
C18   H53   S    
C69   N11   A    
N8    Ni7   S    
C58   C88   A    
N2    N10   A    
C13   C48   S    
C42   H29   S    
C49   H18   S    
C68   N10   A    
C23   H23   S    
C46   H15   S    
N18   Ni6   S    
C8    C17   S    
C38   C47   S    
C45   C75   A    
N9    N32   A    
C19   C24   A    
C60   N3    A    
C80   N22   A    
C5    C71   A    
C49   C55   D    
N31   Ni4   S    
N23   Ni2   S    
C30   C32   A    
C63   H32   S    
C3    C53   S    
C42   C67   A    
N1    Ni1   S    
C52   H21   S    
C24   H56   S    
C77   N20   A    
C48   H13   S    
C38   H3    S    
C64   N7    A    
C43   N31   A    
C17   C19   A    
N21   Ni7   S    
C37   H6    S    
N12   N24   A    
C34   C87   A    
C65   H35   S    
C46   H10   S    
C26   H59   S    
C61   I4    S    
C7    C64   A    
C12   H12   S    
C36   C44   S    
C50   C86   S    
N22   Ni5   S    
C13   C17   A    
C10   C32   A    
C15   C21   A    
N21   N31   A    
C29   C31   A    
C27   C33   A    
C31   C36   S    
C33   C38   S    
C77   H47   S    
C63   N6    A    
C51   C53   D    
C37   C46   S    
C68   H37   S    
N32   Ni5   S    
C81   C85   A    
C80   H49   S    
C39   C48   S    
C44   H14   S    
