data_mof_unit_23233.cif
_audit_creation_date              2012-12-10T19:06:26-0500
_audit_creation_method            fapswitch 2.2
_symmetry_space_group_name_H-M    P1
_symmetry_Int_Tables_number       1
_space_group_crystal_system       triclinic
_cell_length_a                    23.514714
_cell_length_b                    10.888386
_cell_length_c                    9.547019
_cell_angle_alpha                 90.807212
_cell_angle_beta                  89.984772
_cell_angle_gamma                 90.79068
_cell_volume                      2443.91748437

loop_
_atom_site_label
_atom_site_type_symbol
_atom_type_description
_atom_site_fract_x
_atom_site_fract_y
_atom_site_fract_z
_atom_type_partial_charge
C1    C     C_R   0.499206 0.262898 0.498958 0.804446
C2    C     C_R   0.970194 0.282517 0.391378 -0.162543
C3    C     C_R   0.029541 0.284647 0.391087 -0.160546
C4    C     C_R   0.059753 0.386560 0.446148 -0.014538
C5    C     C_R   0.029723 0.486929 0.502189 -0.017703
C6    C     C_R   0.059578 0.589562 0.557670 -0.014965
C7    C     C_R   0.029209 0.689190 0.613322 -0.160971
C8    C     C_R   0.969877 0.686965 0.613894 -0.162507
C9    C     C_R   0.119420 0.390762 0.447027 0.533436
C10   C     C_R   0.119235 0.589919 0.555597 0.534126
C11   C     C_R   0.238832 0.492150 0.627412 -0.099900
C12   C     C_R   0.390914 0.499564 0.500057 0.801943
C13   C     C_R   0.298125 0.494402 0.627335 -0.218696
C14   C     C_R   0.328265 0.498124 0.500219 -0.039117
C15   C     C_R   0.297966 0.499726 0.373332 -0.217018
C16   C     C_R   0.238658 0.497608 0.373729 -0.099558
C17   C     C_R   0.208869 0.493721 0.500699 0.354192
C18   C     C_R   0.760383 0.471399 0.627321 -0.116828
C19   C     C_R   0.701159 0.474838 0.626634 -0.212911
C20   C     C_R   0.671493 0.488451 0.500058 -0.071933
C21   C     C_R   0.702103 0.492762 0.373741 -0.231235
C22   C     C_R   0.761326 0.489050 0.374605 -0.109977
C23   C     C_R   0.499768 0.737583 0.500706 0.783005
C24   C     C_R   0.790667 0.479665 0.501482 0.356581
C25   C     C_R   0.494438 0.065340 0.619034 0.137155
C26   C     C_R   0.498065 0.130683 0.496235 -0.105787
C27   C     C_R   0.501098 0.063019 0.369633 -0.212715
C28   C     C_R   0.501146 0.934129 0.371442 -0.220689
C29   C     C_R   0.499331 0.870702 0.499833 -0.116488
C30   C     C_R   0.496164 0.941693 0.621903 0.144415
C31   C     C_3   0.491469 0.941042 0.778149 -0.500415
C32   C     C_3   0.488585 0.081534 0.772790 -0.459821
C33   C     C_R   0.546773 0.541151 0.074345 0.171830
C34   C     C_R   0.609026 0.496905 0.499933 0.794284
C35   C     C_R   0.456468 0.447941 0.073539 -0.084809
C36   C     C_R   0.456399 0.448209 0.924781 -0.088018
C37   C     C_R   0.546956 0.538910 0.926651 0.175131
C38   C     C_3   0.573540 0.662486 0.918188 0.195354
C39   C     C_3   0.572050 0.668456 0.078237 0.196826
C40   C     C_R   0.880034 0.581094 0.557505 0.532697
C41   C     C_R   0.880146 0.382261 0.448101 0.534498
C42   C     C_R   0.939819 0.382210 0.446837 -0.015256
C43   C     C_R   0.969692 0.484718 0.502641 -0.017840
C44   C     C_R   0.939678 0.585108 0.558725 -0.013333
Cu1   Cu    Cu3+1 0.500000 0.499980 0.640670 0.954310
Cu2   Cu    Cu3+1 0.500000 0.500020 0.359330 0.950082
H1    H     H_    0.948241 0.202590 0.347976 0.189569
H2    H     H_    0.678734 0.468197 0.725289 0.206327
H3    H     H_    0.680431 0.499813 0.274349 0.208293
H4    H     H_    0.784507 0.494800 0.276846 0.149189
H5    H     H_    0.503583 0.108807 0.269796 0.172081
H6    H     H_    0.502899 0.885087 0.272372 0.162151
H7    H     H_    0.451627 0.896244 0.815566 0.208110
H8    H     H_    0.531237 0.913445 0.829663 0.178390
H9    H     H_    0.446444 0.118596 0.802987 0.201303
H10   H     H_    0.526059 0.129420 0.820480 0.202924
H11   H     H_    0.420811 0.407302 0.128360 0.144852
H12   H     H_    0.051622 0.206279 0.347491 0.190759
H13   H     H_    0.420661 0.407884 0.868728 0.142783
H14   H     H_    0.544682 0.724939 0.863864 0.062908
H15   H     H_    0.541245 0.737017 0.119078 0.031541
H16   H     H_    0.051155 0.769186 0.656575 0.190791
H17   H     H_    0.947797 0.765319 0.657536 0.189538
H18   H     H_    0.216087 0.488746 0.725954 0.143162
H19   H     H_    0.320278 0.492870 0.726720 0.152173
H20   H     H_    0.320007 0.502632 0.273790 0.153251
H21   H     H_    0.215772 0.499276 0.275375 0.143380
H22   H     H_    0.782827 0.462991 0.725669 0.148869
N1    N     N_R   0.851635 0.480772 0.502728 -0.468225
N2    N     N_R   0.147834 0.491437 0.501025 -0.469566
N3    N     N_R   0.500360 0.500930 0.147930 -0.209413
N4    N     N_R   0.500360 0.500890 0.852020 -0.212641
O1    O     O_R   0.500000 0.319640 0.618810 -0.579370
O2    O     O_2   0.850807 0.284518 0.395998 -0.538467
O3    O     O_2   0.148849 0.294679 0.395450 -0.535356
O4    O     O_2   0.148474 0.688243 0.606611 -0.534249
O5    O     O_R   0.500010 0.319680 0.381230 -0.582817
O6    O     O_R   0.417880 0.499940 0.618820 -0.589457
O7    O     O_R   0.417880 0.499980 0.381240 -0.587047
O8    O     O_R   0.499990 0.680320 0.618770 -0.578544
O9    O     O_R   0.500000 0.680360 0.381190 -0.593691
O10   O     O_R   0.582120 0.500020 0.618760 -0.554587
O11   O     O_R   0.582120 0.500060 0.381180 -0.569622
O12   O     O_2   0.850589 0.677042 0.609425 -0.544221
O13   O     O_3   0.628684 0.654446 0.860177 -0.565071
C45   C     C_3   0.652258 0.773034 0.839189 0.134869
H23   H     H_    0.693999 0.777524 0.893575 0.174658
H24   H     H_    0.626092 0.849505 0.881951 0.095674
C46   C     C_3   0.662331 0.794119 0.683414 -0.373212
H25   H     H_    0.693014 0.725884 0.642749 0.244866
H26   H     H_    0.621682 0.782729 0.624958 0.207219
C47   C     C_3   0.686699 0.922631 0.659423 -0.888635
H27   H     H_    0.654061 0.992899 0.682615 0.252598
H28   H     H_    0.700235 0.930580 0.549005 0.265221
H29   H     H_    0.724556 0.940049 0.726792 0.269316
O14   O     O_3   0.627477 0.671175 0.137105 -0.576379
C48   C     C_3   0.633477 0.765672 0.239987 0.083685
H30   H     H_    0.673275 0.748741 0.298856 0.169105
H31   H     H_    0.598568 0.762225 0.318099 0.144438
C49   C     C_3   0.638260 0.893659 0.174466 -0.404709
H32   H     H_    0.673398 0.894649 0.097057 0.222253
H33   H     H_    0.597988 0.916163 0.120447 0.194534
C50   C     C_3   0.650909 0.993588 0.283927 -0.872883
H34   H     H_    0.621810 0.985396 0.374988 0.264795
H35   H     H_    0.645343 0.085306 0.236795 0.261626
H36   H     H_    0.695653 0.986885 0.319475 0.262767

loop_
_geom_bond_atom_site_label_1
_geom_bond_atom_site_label_2
_ccdc_geom_bond_type
C1    O5    A    
C41   C42   A    
C40   O12   S    
C19   C20   A    
C36   H13   S    
C21   H3    S    
C48   H30   S    
C7    C8    A    
C13   H19   S    
O13   C45   S    
C26   C27   A    
C29   C30   A    
C18   C24   A    
C23   C29   S    
C28   C29   A    
C30   C31   S    
C45   H24   S    
C18   H22   S    
C15   C16   A    
C12   O7    A    
Cu1   O1    S    
C18   C19   A    
C49   H32   S    
C41   O2    S    
C10   O4    S    
Cu2   O7    S    
Cu1   O10   S    
C16   C17   A    
C12   O6    A    
Cu1   O6    S    
C23   O8    A    
C46   H26   S    
C32   H9    S    
C22   H4    S    
C20   C34   S    
C25   C32   S    
C5    C43   A    
C35   N3    A    
C17   N2    S    
C21   C22   A    
Cu1   N4    S    
C49   H33   S    
C48   H31   S    
C27   H5    S    
C24   N1    S    
C38   C39   S    
C39   H15   S    
C40   N1    A    
C38   O13   S    
C9    N2    A    
C11   H18   S    
C45   H23   S    
C25   C26   A    
Cu1   Cu2   S    
C15   H20   S    
C49   C50   S    
C33   C37   A    
C35   C36   A    
C50   H36   S    
C43   C44   A    
C7    H16   S    
C37   C38   S    
Cu2   O9    S    
C31   C32   S    
O14   C48   S    
C47   H28   S    
C50   H35   S    
C16   H21   S    
C33   C39   S    
C31   H7    S    
C46   C47   S    
Cu2   N3    S    
C38   H14   S    
C10   N2    A    
C12   C14   S    
C1    C26   S    
C22   C24   A    
C34   O11   A    
C3    C4    A    
C50   H34   S    
C48   C49   S    
C41   N1    A    
C25   C30   A    
C11   C17   A    
C23   O9    A    
C19   H2    S    
C8    C44   A    
C4    C5    A    
C45   C46   S    
C6    C10   A    
Cu2   O5    S    
C6    C7    A    
C28   H6    S    
C2    H1    S    
C9    O3    S    
C35   H11   S    
C1    O1    A    
C2    C3    A    
C4    C9    A    
C11   C13   A    
C5    C6    A    
C2    C42   A    
C47   H27   S    
Cu1   O8    S    
C47   H29   S    
C31   H8    S    
C39   O14   S    
C33   N3    A    
C8    H17   S    
Cu2   O11   S    
C3    H12   S    
C40   C44   A    
C20   C21   A    
C42   C43   A    
C37   N4    A    
C27   C28   A    
C14   C15   A    
C34   O10   A    
C46   H25   S    
C13   C14   A    
C32   H10   S    
C36   N4    A    
