data_mof_unit_7858.cif
_audit_creation_date              2012-12-10T17:22:10-0500
_audit_creation_method            fapswitch 2.2
_symmetry_space_group_name_H-M    P1
_symmetry_Int_Tables_number       1
_space_group_crystal_system       triclinic
_cell_length_a                    10.190218
_cell_length_b                    10.445307
_cell_length_c                    15.754737
_cell_angle_alpha                 90.279668
_cell_angle_beta                  82.033611
_cell_angle_gamma                 94.056708
_cell_volume                      1656.56877513

loop_
_atom_site_label
_atom_site_type_symbol
_atom_type_description
_atom_site_fract_x
_atom_site_fract_y
_atom_site_fract_z
_atom_type_partial_charge
C1    C     C_R   0.553318 0.734546 0.487863 0.954170
C2    C     C_2   0.486437 0.929037 0.423606 -0.026920
C3    C     C_2   0.420630 0.129160 0.485704 -0.310754
C4    C     C_R   0.500985 0.500118 0.661435 0.904976
C5    C     C_2   0.492858 0.068695 0.420971 0.099408
C6    C     C_2   0.923937 0.496670 0.516569 -0.210283
C7    C     C_2   0.068814 0.471192 0.506641 0.014795
C8    C     C_R   0.446031 0.265354 0.500731 0.882898
C9    C     C_R   0.498730 0.498000 0.338583 0.928403
C10   C     C_3   0.374181 0.568018 0.962173 -0.082263
C11   C     C_3   0.633595 0.610498 0.939277 -0.031957
C12   C     C_3   0.363557 0.545493 0.061361 -0.208179
C13   C     C_3   0.615846 0.622153 0.043793 -0.223291
C14   C     C_1   0.497617 0.499565 0.250058 -0.015781
C15   C     C_3   0.508776 0.518891 0.916251 0.182160
C16   C     C_3   0.245577 0.536249 0.919540 -0.369819
C17   C     C_3   0.206633 0.394603 0.903730 -0.787979
C18   C     C_2   0.246345 0.454884 0.099921 0.962898
C19   C     C_3   0.579214 0.135847 0.345171 -0.324869
C20   C     C_3   0.532172 0.097862 0.260013 -0.816795
C21   C     C_2   0.379406 0.861400 0.381833 0.980946
C22   C     C_2   0.105668 0.346370 0.469521 0.999792
C23   C     C_3   0.505069 0.512763 0.082708 0.045316
C24   C     C_2   0.893429 0.426375 0.378249 1.072088
C25   C     C_3   0.765530 0.544386 0.899879 -0.447615
C26   C     C_3   0.893223 0.629924 0.872154 -0.787338
C27   C     C_2   0.640926 0.744191 0.896743 1.001904
C28   C     C_2   0.568169 0.752130 0.080860 0.917829
C29   C     C_2   0.750596 0.611884 0.077097 0.972461
C30   C     C_3   0.539313 0.380673 0.042755 -0.373484
C31   C     C_3   0.520392 0.379585 0.948260 -0.443144
C32   C     C_1   0.499686 0.503825 0.174787 0.038501
C33   C     C_1   0.507090 0.511434 0.824556 -0.012310
C34   C     C_1   0.504583 0.505270 0.749684 -0.159640
C35   C     C_2   0.575779 0.870134 0.463595 -0.427901
H1    H     H_    0.339004 0.637746 0.093072 0.139595
H2    H     H_    0.478547 0.299073 0.076371 0.227460
H3    H     H_    0.276844 0.355230 0.851697 0.244653
H4    H     H_    0.201103 0.335059 0.962116 0.272052
H5    H     H_    0.106938 0.386373 0.882567 0.243144
H6    H     H_    0.160551 0.579929 0.957767 0.249204
H7    H     H_    0.257162 0.586312 0.856513 0.214472
H8    H     H_    0.046957 0.424875 0.126140 0.367646
H9    H     H_    0.545425 0.994941 0.246540 0.300442
H10   H     H_    0.425878 0.116600 0.261434 0.269713
H11   H     H_    0.591676 0.155371 0.207207 0.260509
H12   H     H_    0.642498 0.359107 0.048204 0.215516
H13   H     H_    0.578298 0.241181 0.348560 0.237691
H14   H     H_    0.683505 0.110548 0.344131 0.253367
H15   H     H_    0.191180 0.859007 0.355352 0.360062
H16   H     H_    0.202126 0.250124 0.371410 0.347719
H17   H     H_    0.022471 0.482022 0.273975 0.367728
H18   H     H_    0.881329 0.691837 0.817024 0.259639
H19   H     H_    0.923580 0.690084 0.924716 0.314774
H20   H     H_    0.975486 0.568185 0.850290 0.228742
H21   H     H_    0.789753 0.469328 0.943472 0.228708
H22   H     H_    0.748943 0.491939 0.840460 0.211422
H23   H     H_    0.350100 0.074759 0.532473 0.161739
H24   H     H_    0.727902 0.924582 0.887633 0.347710
H25   H     H_    0.469626 0.911338 0.069961 0.356301
H26   H     H_    0.925532 0.702419 0.097058 0.367112
H27   H     H_    0.659378 0.925504 0.484939 0.173590
H28   H     H_    0.883286 0.547273 0.573432 0.167250
H29   H     H_    0.123335 0.635191 0.560723 0.170740
H30   H     H_    0.384864 0.673613 0.954220 0.196983
H31   H     H_    0.430683 0.316962 0.940802 0.215940
H32   H     H_    0.603357 0.332078 0.910222 0.174147
N1    N     N_2   0.842720 0.448890 0.465540 -0.166211
N2    N     N_2   0.157250 0.551040 0.534500 -0.226009
O1    O     O_R   0.431050 0.692470 0.506940 -0.604460
O2    O     O_R   0.117382 0.494005 0.102822 -0.812425
O3    O     O_2   0.402194 0.766592 0.338192 -0.609099
O4    O     O_R   0.254984 0.911829 0.387847 -0.796216
O5    O     O_2   0.059155 0.247172 0.506326 -0.635506
O6    O     O_R   0.186204 0.341284 0.390412 -0.752237
O7    O     O_2   0.842795 0.338542 0.339720 -0.631817
O8    O     O_R   0.995927 0.508264 0.335522 -0.783661
O9    O     O_2   0.567930 0.768478 0.844399 -0.650077
O10   O     O_R   0.732150 0.840855 0.919089 -0.756652
O11   O     O_2   0.586630 0.782739 0.153684 -0.594790
O12   O     O_R   0.651130 0.659650 0.484820 -0.598443
O13   O     O_R   0.496026 0.831852 0.036454 -0.824185
O14   O     O_2   0.777546 0.513835 0.111001 -0.642400
O15   O     O_R   0.841629 0.719349 0.072343 -0.749076
O16   O     O_R   0.389910 0.516410 0.633920 -0.609888
O17   O     O_R   0.609990 0.483590 0.611800 -0.618252
O18   O     O_R   0.348870 0.340350 0.515180 -0.595826
O19   O     O_R   0.568950 0.307530 0.493060 -0.605496
O20   O     O_R   0.390010 0.516410 0.388200 -0.528534
O21   O     O_R   0.610090 0.483590 0.366080 -0.621185
O22   O     O_2   0.262675 0.351345 0.131148 -0.637442
Zn1   Zn    Zn3+2 0.353060 0.521920 0.514770 1.009082
Zn2   Zn    Zn3+2 0.646940 0.478080 0.485230 0.996816

loop_
_geom_bond_atom_site_label_1
_geom_bond_atom_site_label_2
_ccdc_geom_bond_type
C2    C35   D    
C31   H31   S    
C19   C20   S    
C25   H21   S    
C27   O9    D    
C26   H20   S    
C31   H32   S    
C12   C23   S    
C18   O22   D    
C13   C29   S    
H16   O6    S    
C29   O14   D    
C27   O10   S    
C10   C15   S    
C30   C31   S    
C4    O17   A    
C11   C25   S    
C1    O12   A    
C21   O4    S    
C13   C23   S    
C17   H4    S    
C11   C15   S    
C16   C17   S    
C13   C28   S    
C12   H1    S    
N2    Zn1   S    
C20   H10   S    
C6    N1    D    
O18   Zn1   S    
C25   H22   S    
C22   O6    S    
C26   H19   S    
C20   H9    S    
O16   Zn1   S    
C4    C34   S    
C21   O3    D    
C28   O13   S    
C23   C30   S    
C30   H12   S    
C29   O15   S    
C3    C8    S    
H15   O4    S    
C9    O20   A    
C19   H13   S    
C24   O7    D    
C4    O16   A    
C25   C26   S    
C30   H2    S    
C8    O19   A    
C17   H5    S    
C6    H28   S    
C9    C14   S    
O17   Zn2   S    
O12   Zn2   S    
C19   H14   S    
C11   C27   S    
C2    C21   S    
C33   C34   T    
H29   N2    S    
O20   Zn1   S    
C10   C12   S    
C2    C5    S    
C22   O5    D    
H24   O10   S    
H17   O8    S    
C26   H18   S    
C16   H7    S    
C1    C35   S    
O21   Zn2   S    
C10   H30   S    
C18   O2    S    
O19   Zn2   S    
H8    O2    S    
O1    Zn1   S    
C1    O1    A    
C14   C32   T    
C3    C5    D    
H26   O15   S    
C9    O21   A    
C7    N2    D    
C15   C31   S    
C6    C7    S    
C5    C19   S    
C7    C22   S    
N1    Zn2   S    
C8    O18   A    
C23   C32   S    
H25   O13   S    
C10   C16   S    
C11   C13   S    
C35   H27   S    
C17   H3    S    
C28   O11   D    
C24   N1    S    
C3    H23   S    
C24   O8    S    
C12   C18   S    
C16   H6    S    
C15   C33   S    
C20   H11   S    
