data_mof_unit_40107.cif
_audit_creation_date              2012-10-26T18:29:02-0400
_audit_creation_method            fapswitch 2.2
_symmetry_space_group_name_H-M    P1
_symmetry_Int_Tables_number       1
_space_group_crystal_system       triclinic
_cell_length_a                    11.763864
_cell_length_b                    13.046839
_cell_length_c                    15.8552
_cell_angle_alpha                 95.275347
_cell_angle_beta                  74.461318
_cell_angle_gamma                 99.622331
_cell_volume                      2308.69540442

loop_
_atom_site_label
_atom_site_type_symbol
_atom_type_description
_atom_site_fract_x
_atom_site_fract_y
_atom_site_fract_z
_atom_type_partial_charge
C1    C     C_R   0.522958 0.700527 0.495691 0.576016
C2    C     C_R   0.348971 0.024433 0.565935 0.034519
C3    C     C_R   0.653044 0.873922 0.459708 -0.013159
C4    C     C_R   0.359994 0.133466 0.562879 -0.010416
C5    C     C_R   0.436293 0.864788 0.508671 0.255146
C6    C     C_R   0.562819 0.136693 0.469912 0.255616
C7    C     C_R   0.448209 0.973420 0.522472 -0.056691
C8    C     C_R   0.560134 0.032173 0.486390 -0.057763
C9    C     C_R   0.945241 0.607978 0.577295 -0.008767
C10   C     C_R   0.056240 0.396359 0.418646 -0.020063
C11   C     C_R   0.824637 0.593834 0.572640 0.185402
C12   C     C_R   0.478257 0.299978 0.501650 0.579781
C13   C     C_R   0.172174 0.401615 0.431875 0.169005
C14   C     C_R   0.857943 0.455060 0.465929 0.051648
C15   C     C_R   0.143555 0.547776 0.531337 0.043479
C16   C     C_R   0.427112 0.494893 0.668063 0.583282
C17   C     C_R   0.572606 0.505463 0.331704 0.568572
C18   C     C_R   0.979270 0.464334 0.469003 -0.070087
C19   C     C_R   0.023208 0.541014 0.526142 -0.076286
C20   C     C_R   0.380907 0.487356 0.764025 0.042458
C21   C     C_R   0.613261 0.499040 0.234544 0.009038
C22   C     C_R   0.220339 0.483178 0.897064 -0.102257
C23   C     C_R   0.337376 0.472104 0.088013 0.066839
C24   C     C_R   0.752963 0.452435 0.099715 -0.126720
C25   C     C_R   0.259659 0.492414 0.806198 0.292953
C26   C     C_R   0.729216 0.482201 0.189109 0.235586
C27   C     C_R   0.458940 0.473207 0.813777 -0.117564
C28   C     C_R   0.530036 0.503036 0.186654 -0.136753
C29   C     C_R   0.418807 0.459940 0.904621 0.026440
C30   C     C_R   0.548977 0.468831 0.097613 0.014800
C31   C     C_R   0.299850 0.472753 0.945975 -0.017786
C32   C     C_R   0.663601 0.443381 0.054620 -0.022900
C33   C     C_R   0.495377 0.440985 0.956175 0.010023
C34   C     C_R   0.604278 0.400132 0.918926 0.053970
C35   C     C_R   0.460231 0.461820 0.049178 0.000274
C36   C     C_2   0.238727 0.313852 0.395665 0.694005
C37   C     C_2   0.744914 0.662878 0.629489 0.674625
C38   C     C_2   0.988674 0.694965 0.633945 0.536728
C39   C     C_2   0.020325 0.325876 0.347269 0.575900
C40   C     C_3   0.897001 0.585443 0.208512 0.032078
C41   C     C_3   0.968843 0.616334 0.275912 -0.317410
C42   C     C_3   0.108912 0.578525 0.790170 -0.020030
C43   C     C_3   0.977997 0.530740 0.817762 -0.334112
C44   C     C_2   0.276508 0.462199 0.180787 0.568293
C45   C     C_R   0.259934 0.475303 0.036216 -0.110832
C46   C     C_2   0.626865 0.335356 0.835627 0.566990
C47   C     C_3   0.634550 0.168083 0.325732 -0.028084
C48   C     C_3   0.739881 0.219004 0.256953 -0.313260
C49   C     C_3   0.323278 0.813696 0.412494 0.013872
C50   C     C_3   0.195710 0.785084 0.404692 -0.319554
C51   C     C_2   0.269517 0.192424 0.621744 0.629518
C52   C     C_2   0.759731 0.822030 0.420411 0.637670
C53   C     C_2   0.784110 0.047291 0.441379 0.701044
C54   C     C_2   0.241187 0.966849 0.624577 0.674499
C55   C     C_R   0.688155 0.406456 0.967512 -0.128530
C56   C     C_R   0.464707 0.187741 0.510120 -0.021661
C57   C     C_R   0.538299 0.814415 0.487238 -0.034643
C58   C     C_R   0.664019 0.983377 0.460261 0.021816
Cu1   Cu    Cu3+1 0.386820 0.492450 0.493500 1.045916
Cu2   Cu    Cu3+1 0.613180 0.507550 0.506500 1.057504
H1    H     H_    0.166713 0.481315 0.067140 0.125014
H2    H     H_    0.633595 0.688788 0.747764 0.334548
H3    H     H_    0.962850 0.772648 0.752002 0.339882
H4    H     H_    0.016463 0.184996 0.283169 0.366569
H5    H     H_    0.848616 0.651414 0.206221 0.164001
H6    H     H_    0.959770 0.573500 0.143313 0.118449
H7    H     H_    0.023217 0.555378 0.276685 0.208465
H8    H     H_    0.028823 0.690913 0.259227 0.108633
H9    H     H_    0.908417 0.625358 0.342252 0.189380
H10   H     H_    0.121173 0.631616 0.736768 0.189643
H11   H     H_    0.133599 0.628707 0.845309 0.113780
H12   H     H_    0.772017 0.377703 0.938272 0.143909
H13   H     H_    0.965116 0.470184 0.865522 0.143821
H14   H     H_    0.922386 0.591617 0.848971 0.151561
H15   H     H_    0.948382 0.494605 0.759522 0.214910
H16   H     H_    0.210544 0.535334 0.297046 0.324075
H17   H     H_    0.747024 0.290898 0.727329 0.365040
H18   H     H_    0.554271 0.201629 0.323977 0.118896
H19   H     H_    0.620969 0.082994 0.308159 0.130070
H20   H     H_    0.819897 0.182310 0.252733 0.192844
H21   H     H_    0.719396 0.209792 0.192013 0.105866
H22   H     H_    0.758246 0.302957 0.275027 0.233063
H23   H     H_    0.453015 0.536698 0.221047 0.178698
H24   H     H_    0.377974 0.757196 0.370546 0.145984
H25   H     H_    0.356759 0.892670 0.386075 0.113318
H26   H     H_    0.193380 0.791684 0.335873 0.104787
H27   H     H_    0.160498 0.703887 0.422931 0.158466
H28   H     H_    0.138473 0.838787 0.447649 0.224474
H29   H     H_    0.106147 0.235262 0.648624 0.352702
H30   H     H_    0.928393 0.807655 0.418757 0.319747
H31   H     H_    0.896058 0.161847 0.484834 0.377595
H32   H     H_    0.061754 0.944784 0.669744 0.361310
H33   H     H_    0.551982 0.474898 0.781022 0.193471
H34   H     H_    0.127346 0.485511 0.930086 0.100069
H35   H     H_    0.841225 0.434972 0.065884 0.115661
H36   H     H_    0.179631 0.604280 0.574985 0.199115
H37   H     H_    0.820913 0.395599 0.424685 0.202822
H38   H     H_    0.375719 0.259201 0.307331 0.318599
N1    N     N_R   0.216750 0.481110 0.483710 -0.288536
N2    N     N_R   0.783250 0.518890 0.516290 -0.292597
O1    O     O_R   0.419950 0.645670 0.495380 -0.483127
O2    O     O_R   0.341319 0.326323 0.326547 -0.645874
O3    O     O_2   0.747099 0.750711 0.607703 -0.468825
O4    O     O_R   0.680910 0.633413 0.713419 -0.686027
O5    O     O_2   0.079573 0.754258 0.603888 -0.487643
O6    O     O_R   0.924156 0.710838 0.720746 -0.689345
O7    O     O_2   0.979233 0.360757 0.294751 -0.524782
O8    O     O_R   0.038011 0.221786 0.337145 -0.622473
O9    O     O_3   0.818358 0.492255 0.232373 -0.534316
O10   O     O_3   0.179644 0.498729 0.757027 -0.533846
O11   O     O_2   0.244598 0.375689 0.209526 -0.454335
O12   O     O_R   0.580050 0.354330 0.504620 -0.465185
O13   O     O_R   0.248198 0.551042 0.233458 -0.746782
O14   O     O_2   0.544585 0.277239 0.815037 -0.468977
O15   O     O_R   0.743003 0.338433 0.782032 -0.709412
O16   O     O_3   0.658080 0.187680 0.409071 -0.530538
O17   O     O_3   0.327162 0.810913 0.501026 -0.489219
O18   O     O_2   0.293770 0.244803 0.684314 -0.492188
O19   O     O_R   0.158693 0.190314 0.604596 -0.589140
O20   O     O_2   0.757982 0.757177 0.359861 -0.557138
O21   O     O_R   0.862295 0.848567 0.451069 -0.608707
O22   O     O_2   0.858266 0.032649 0.372604 -0.486616
O23   O     O_R   0.611110 0.658410 0.506370 -0.477110
O24   O     O_R   0.811071 0.124881 0.502978 -0.629014
O25   O     O_2   0.252373 0.905314 0.674502 -0.469577
O26   O     O_R   0.127398 0.983835 0.623523 -0.608483
O27   O     O_R   0.388890 0.341590 0.493630 -0.491203
O28   O     O_R   0.350820 0.490050 0.621260 -0.447529
O29   O     O_R   0.649180 0.509950 0.378740 -0.455753
O30   O     O_R   0.541970 0.502800 0.632250 -0.500939
O31   O     O_R   0.458030 0.497200 0.367750 -0.491596
O32   O     O_2   0.202002 0.228518 0.426730 -0.442374

loop_
_geom_bond_atom_site_label_1
_geom_bond_atom_site_label_2
_ccdc_geom_bond_type
C43   H13   S    
C21   C26   A    
C38   O6    S    
C23   C45   A    
C1    O1    A    
C17   O31   A    
Cu1   N1    S    
C14   C18   A    
C2    C4    A    
C2    C7    A    
C47   H19   S    
C1    O23   A    
C7    C8    A    
C41   H7    S    
C12   O27   A    
C15   C19   A    
C54   O26   S    
Cu1   O31   S    
C46   O15   S    
C49   H24   S    
C24   C26   A    
C53   O22   D    
C36   O32   D    
C3    C52   S    
C27   C29   A    
C20   C25   A    
Cu1   O27   S    
C29   C33   A    
C42   H10   S    
C51   O18   D    
C48   H21   S    
C36   O2    S    
C18   C19   A    
C45   H1    S    
C11   C37   S    
C42   H11   S    
C8    C58   A    
C9    C19   A    
C49   O17   S    
H29   O19   S    
C3    C57   A    
C22   C25   A    
C51   O19   S    
C34   C46   S    
C16   O30   A    
C32   C55   A    
C55   H12   S    
C50   H28   S    
C43   H14   S    
Cu1   Cu2   S    
C40   H6    S    
C4    C56   A    
C28   H23   S    
C22   H34   S    
C47   O16   S    
H4    O8    S    
C41   H8    S    
H2    O4    S    
C43   H15   S    
C39   O8    S    
C54   O25   D    
C22   C31   A    
C46   O14   D    
C4    C51   S    
C17   O29   A    
Cu1   O1    S    
C49   H25   S    
C13   C36   S    
C2    C54   S    
C24   H35   S    
Cu2   O30   S    
C15   H36   S    
C5    C7    A    
C6    C8    A    
Cu1   O28   S    
H38   O2    S    
C53   O24   S    
C17   C21   S    
C23   C44   S    
C5    O17   S    
C10   C39   S    
C13   N1    A    
Cu2   O23   S    
C39   O7    D    
C24   C32   A    
Cu2   O12   S    
C1    C57   S    
C9    C11   A    
C52   O21   S    
C47   C48   S    
C16   C20   S    
C33   C34   A    
H3    O6    S    
C16   O28   A    
C26   O9    S    
C6    O16   S    
C12   C56   S    
C50   H27   S    
C30   C35   A    
C40   C41   S    
C21   C28   A    
C44   O13   S    
C23   C35   A    
C40   H5    S    
C31   C45   A    
C44   O11   D    
H30   O21   S    
C27   H33   S    
C42   C43   S    
C52   O20   D    
C12   O12   A    
C14   H37   S    
C41   H9    S    
C6    C56   A    
Cu2   N2    S    
C10   C13   A    
H32   O26   S    
Cu2   O29   S    
C37   O4    S    
C37   O3    D    
C53   C58   S    
C14   N2    A    
C40   O9    S    
C20   C27   A    
C5    C57   A    
H31   O24   S    
C48   H20   S    
C38   O5    D    
H16   O13   S    
C42   O10   S    
C29   C31   A    
C30   C32   A    
C10   C18   A    
C28   C30   A    
C9    C38   S    
C33   C35   A    
C48   H22   S    
C50   H26   S    
C3    C58   A    
C34   C55   A    
C49   C50   S    
C15   N1    A    
C11   N2    A    
C47   H18   S    
H17   O15   S    
C25   O10   S    
