data_mof_unit_16581.cif
_audit_creation_date              2012-12-10T17:31:51-0500
_audit_creation_method            fapswitch 2.2
_symmetry_space_group_name_H-M    P1
_symmetry_Int_Tables_number       1
_space_group_crystal_system       triclinic
_cell_length_a                    12.105565
_cell_length_b                    11.497118
_cell_length_c                    12.81592
_cell_angle_alpha                 92.394324
_cell_angle_beta                  91.522944
_cell_angle_gamma                 88.672018
_cell_volume                      1781.08677386

loop_
_atom_site_label
_atom_site_type_symbol
_atom_type_description
_atom_site_fract_x
_atom_site_fract_y
_atom_site_fract_z
_atom_type_partial_charge
C1    C     C_R   0.479414 0.495046 0.298363 0.859727
C2    C     C_R   0.976935 0.549419 0.526181 0.061692
C3    C     C_R   0.498219 0.282209 0.499913 0.872655
C4    C     C_R   0.501795 0.717751 0.499947 0.927731
C5    C     C_1   0.495790 0.161833 0.501062 -0.201904
C6    C     C_1   0.504474 0.838210 0.499744 -0.212766
C7    C     C_1   0.498069 0.059446 0.501104 -0.012693
C8    C     C_1   0.502427 0.940631 0.500274 -0.011576
C9    C     C_R   0.523840 0.424019 0.799449 -0.153588
C10   C     C_R   0.466727 0.471245 0.184694 -0.150918
C11   C     C_R   0.347949 0.446072 0.031690 -0.241600
C12   C     C_R   0.518222 0.473415 0.695353 0.881406
C13   C     C_R   0.636741 0.391011 0.952374 -0.248528
C14   C     C_R   0.361276 0.488095 0.134149 0.054339
C15   C     C_R   0.626495 0.388326 0.844247 0.063165
C16   C     C_R   0.557110 0.422913 0.125770 0.032016
C17   C     C_R   0.426799 0.418875 0.859112 0.029681
C18   C     C_R   0.545340 0.414947 0.015924 0.083446
C19   C     C_R   0.439229 0.424783 0.968738 0.082457
C20   C     C_3   0.313296 0.393954 0.808294 -0.373110
C21   C     C_3   0.234728 0.501817 0.805687 -0.306100
C22   C     C_3   0.114488 0.466081 0.790119 -0.920307
C23   C     C_R   0.049443 0.632682 0.572770 -0.345356
C24   C     C_3   0.661908 0.369613 0.175831 -0.385359
C25   C     C_3   0.758720 0.455279 0.182319 -0.296415
C26   C     C_3   0.870418 0.392083 0.169219 -0.939415
C27   C     C_3   0.725655 0.347443 0.779878 -0.375868
C28   C     C_3   0.780617 0.234051 0.817509 -0.377385
C29   C     C_3   0.868194 0.188067 0.741599 -0.889716
C30   C     C_3   0.263078 0.550097 0.187845 -0.357112
C31   C     C_3   0.167534 0.593090 0.116486 -0.399614
C32   C     C_3   0.085582 0.669961 0.178272 -0.884460
C33   C     C_3   0.810959 0.662898 0.595034 -0.385788
C34   C     C_R   0.950489 0.367062 0.428003 -0.341549
C35   C     C_3   0.811664 0.777904 0.537294 -0.343668
C36   C     C_3   0.776255 0.880815 0.608811 -0.880566
C37   C     C_3   0.188860 0.335121 0.407916 -0.395875
C38   C     C_3   0.188148 0.222080 0.468430 -0.335848
C39   C     C_3   0.222910 0.117211 0.399028 -0.877505
C40   C     C_R   0.163370 0.617690 0.566658 -0.019443
C41   C     C_R   0.836517 0.382908 0.432512 -0.019574
C42   C     C_R   0.140326 0.437665 0.470790 0.177099
C43   C     C_R   0.859578 0.561839 0.530156 0.180942
C44   C     C_R   0.022976 0.450399 0.474441 0.057026
H1    H     H_    0.265546 0.438507 0.999924 0.164186
H2    H     H_    0.242160 0.558757 0.877156 0.198016
H3    H     H_    0.256112 0.557732 0.742098 0.248732
H4    H     H_    0.321047 0.354037 0.728338 0.208876
H5    H     H_    0.275218 0.324009 0.851708 0.181562
H6    H     H_    0.881189 0.362029 0.086639 0.248643
H7    H     H_    0.938232 0.452035 0.191986 0.265459
H8    H     H_    0.876814 0.315178 0.218609 0.261811
H9    H     H_    0.749531 0.520946 0.121256 0.213033
H10   H     H_    0.759396 0.504307 0.258606 0.247796
H11   H     H_    0.646854 0.333135 0.252627 0.198334
H12   H     H_    0.718349 0.378405 0.985349 0.169646
H13   H     H_    0.685430 0.288990 0.129971 0.184891
H14   H     H_    0.829944 0.167247 0.663482 0.264837
H15   H     H_    0.932957 0.253854 0.733777 0.264813
H16   H     H_    0.907682 0.107429 0.771369 0.247637
H17   H     H_    0.821783 0.248901 0.895183 0.215533
H18   H     H_    0.716963 0.166706 0.823985 0.232311
H19   H     H_    0.699430 0.327086 0.697837 0.242275
H20   H     H_    0.787547 0.417503 0.781644 0.203417
H21   H     H_    0.053837 0.622497 0.244641 0.263363
H22   H     H_    0.126007 0.750541 0.209095 0.262072
H23   H     H_    0.782947 0.317333 0.397645 0.145284
H24   H     H_    0.014717 0.694833 0.126443 0.250991
H25   H     H_    0.200540 0.644385 0.053128 0.229366
H26   H     H_    0.121682 0.517745 0.081594 0.222694
H27   H     H_    0.227574 0.490743 0.243447 0.210884
H28   H     H_    0.294831 0.628848 0.231049 0.226021
H29   H     H_    0.694156 0.865636 0.641700 0.267524
H30   H     H_    0.837660 0.893534 0.674006 0.253889
H31   H     H_    0.770965 0.961317 0.563811 0.253442
H32   H     H_    0.894971 0.795077 0.508282 0.211094
H33   H     H_    0.755862 0.773120 0.467344 0.245010
H34   H     H_    0.216892 0.683699 0.601024 0.138297
H35   H     H_    0.727827 0.645129 0.620525 0.258736
H36   H     H_    0.857346 0.671992 0.670776 0.161421
H37   H     H_    0.160744 0.102556 0.334788 0.251657
H38   H     H_    0.304485 0.131492 0.364711 0.266587
H39   H     H_    0.228919 0.038207 0.446010 0.253921
H40   H     H_    0.244234 0.228708 0.538123 0.240386
H41   H     H_    0.104800 0.206215 0.498094 0.209423
H42   H     H_    0.142373 0.323734 0.332444 0.162761
H43   H     H_    0.271770 0.352428 0.381435 0.249638
H44   H     H_    0.020815 0.710590 0.614391 0.161431
H45   H     H_    0.979202 0.288269 0.387856 0.161105
H46   H     H_    0.103931 0.412991 0.716240 0.270761
H47   H     H_    0.088790 0.414818 0.856571 0.253301
H48   H     H_    0.060117 0.544967 0.786239 0.253652
N1    N     N_R   0.792200 0.479100 0.480660 -0.119996
N2    N     N_R   0.207800 0.520900 0.519340 -0.111455
O1    O     O_R   0.578300 0.494420 0.341180 -0.616590
O2    O     O_R   0.421700 0.505580 0.658820 -0.623396
O3    O     O_R   0.390690 0.507830 0.353590 -0.647657
O4    O     O_R   0.609310 0.492170 0.646410 -0.652240
O5    O     O_R   0.593810 0.327740 0.493800 -0.634790
O6    O     O_R   0.406190 0.672260 0.506200 -0.613291
O7    O     O_R   0.406190 0.341150 0.506220 -0.637002
O8    O     O_R   0.593810 0.658850 0.493780 -0.623829
Zn1   Zn    Zn3+2 0.625270 0.491050 0.491710 0.899476
Zn2   Zn    Zn3+2 0.374730 0.508950 0.508290 0.904478

loop_
_geom_bond_atom_site_label_1
_geom_bond_atom_site_label_2
_ccdc_geom_bond_type
O5    Zn1   S    
C35   C36   S    
N1    Zn1   S    
C30   H27   S    
C7    C8    S    
C41   H23   S    
C24   H11   S    
C11   C19   A    
C37   C38   S    
C13   C18   A    
C28   C29   S    
C25   H9    S    
C26   H6    S    
C30   C31   S    
C11   C14   A    
C23   C40   A    
O6    Zn2   S    
C17   C20   S    
C18   C19   A    
C37   C42   S    
C17   C19   A    
C31   H26   S    
C41   N1    A    
C29   H15   S    
C2    C44   A    
C24   H13   S    
C4    O8    A    
C22   H47   S    
C12   O4    A    
C32   H24   S    
C13   H12   S    
C28   H17   S    
C3    O7    A    
N2    Zn2   S    
C16   C24   S    
C21   C22   S    
C34   C41   A    
C42   C44   A    
C14   C30   S    
O1    Zn1   S    
C35   H32   S    
C38   H41   S    
C33   C43   S    
C37   H42   S    
C34   C44   A    
C25   H10   S    
C39   H37   S    
C4    C6    S    
C10   C14   A    
C1    O3    A    
C5    C7    T    
C33   H35   S    
C6    C8    T    
C25   C26   S    
C35   H33   S    
C20   H5    S    
C36   H31   S    
C26   H8    S    
C15   C27   S    
C31   C32   S    
C29   H16   S    
C2    C43   A    
C1    O1    A    
C20   C21   S    
C22   H46   S    
C24   C25   S    
C20   H4    S    
C27   H19   S    
C9    C17   A    
O7    Zn2   S    
C23   H44   S    
C4    O6    A    
C40   H34   S    
C11   H1    S    
C2    C23   A    
C32   H22   S    
C21   H2    S    
O2    Zn2   S    
C36   H30   S    
C38   H40   S    
C42   N2    A    
C37   H43   S    
C1    C10   S    
C39   H38   S    
C40   N2    A    
C3    C5    S    
C30   H28   S    
C33   H36   S    
C43   N1    A    
C13   C15   A    
C9    C15   A    
C34   H45   S    
C39   H39   S    
C10   C16   A    
C26   H7    S    
C38   C39   S    
C33   C35   S    
O8    Zn1   S    
C9    C12   S    
O3    Zn2   S    
C27   H20   S    
C3    O5    A    
C31   H25   S    
C29   H14   S    
C16   C18   A    
C27   C28   S    
C22   H48   S    
C12   O2    A    
C36   H29   S    
O4    Zn1   S    
C32   H21   S    
C21   H3    S    
C28   H18   S    
