data_mof_unit_64672.cif
_audit_creation_date              2012-12-10T20:38:09-0500
_audit_creation_method            fapswitch 2.2
_symmetry_space_group_name_H-M    P1
_symmetry_Int_Tables_number       1
_space_group_crystal_system       triclinic
_cell_length_a                    28.140501
_cell_length_b                    28.140456
_cell_length_c                    42.868314
_cell_angle_alpha                 89.998373
_cell_angle_beta                  89.998202
_cell_angle_gamma                 90.079586
_cell_volume                      33946.80765

loop_
_atom_site_label
_atom_site_type_symbol
_atom_type_description
_atom_site_fract_x
_atom_site_fract_y
_atom_site_fract_z
_atom_type_partial_charge
C1    C     C_R   0.301245 0.801649 0.749923 -0.003769
C2    C     C_R   0.698587 0.198518 0.249987 -0.003696
C3    C     C_R   0.198885 0.301117 0.750001 -0.004359
C4    C     C_R   0.801439 0.698561 0.250000 -0.002428
C5    C     C_R   0.698349 0.198754 0.750077 -0.003771
C6    C     C_R   0.301483 0.801415 0.250014 -0.003697
C7    C     C_R   0.801583 0.698414 0.750005 -0.003899
C8    C     C_R   0.198738 0.301266 0.249997 -0.003406
C9    C     C_R   0.301375 0.198630 0.249996 -0.003399
C10   C     C_R   0.698819 0.801176 0.750005 -0.004246
C11   C     C_R   0.198510 0.698622 0.250014 -0.003941
C12   C     C_R   0.801234 0.301639 0.750080 -0.003984
C13   C     C_R   0.698566 0.801434 0.250000 -0.002570
C14   C     C_R   0.301616 0.198385 0.750001 -0.004154
C15   C     C_R   0.801382 0.301490 0.249987 -0.003879
C16   C     C_R   0.198360 0.698766 0.749920 -0.003950
C17   C     C_R   0.314110 0.823847 0.721589 0.086031
C18   C     C_R   0.685768 0.176339 0.278336 0.086294
C19   C     C_R   0.180855 0.318000 0.721359 0.072141
C20   C     C_R   0.788406 0.650517 0.245602 0.092995
C21   C     C_R   0.685591 0.176571 0.721719 0.089901
C22   C     C_R   0.314318 0.823584 0.278361 0.089670
C23   C     C_R   0.788691 0.650566 0.755343 0.085606
C24   C     C_R   0.181156 0.318559 0.278653 0.081112
C25   C     C_R   0.317745 0.180121 0.278643 0.081671
C26   C     C_R   0.682749 0.820036 0.721381 0.072533
C27   C     C_R   0.185484 0.676659 0.221636 0.090197
C28   C     C_R   0.814242 0.323688 0.778435 0.086350
C29   C     C_R   0.650513 0.788391 0.245664 0.092850
C30   C     C_R   0.349482 0.211311 0.755218 0.085416
C31   C     C_R   0.814355 0.323530 0.221623 0.086587
C32   C     C_R   0.185470 0.676710 0.778293 0.090402
C33   C     C_R   0.823387 0.314474 0.278358 0.090216
C34   C     C_R   0.176288 0.685782 0.721572 0.086353
C35   C     C_R   0.711609 0.849487 0.254336 0.092852
C36   C     C_R   0.288690 0.150520 0.744784 0.085418
C37   C     C_R   0.176508 0.685612 0.278384 0.086634
C38   C     C_R   0.823266 0.314552 0.721700 0.090412
C39   C     C_R   0.319886 0.182258 0.221351 0.081676
C40   C     C_R   0.679955 0.817248 0.778627 0.072540
C41   C     C_R   0.849430 0.711308 0.744664 0.085605
C42   C     C_R   0.181442 0.318849 0.221342 0.081117
C43   C     C_R   0.676145 0.185897 0.778410 0.086026
C44   C     C_R   0.323673 0.814222 0.221666 0.086289
C45   C     C_R   0.182001 0.319147 0.778643 0.072141
C46   C     C_R   0.849483 0.711594 0.254397 0.093002
C47   C     C_R   0.323422 0.814415 0.778282 0.089892
C48   C     C_R   0.676428 0.185672 0.221638 0.089655
C49   C     C_R   0.349487 0.859448 0.721759 0.344390
C50   C     C_R   0.650454 0.140676 0.278193 0.344428
C51   C     C_R   0.145209 0.353266 0.721460 0.341778
C52   C     C_R   0.824025 0.615216 0.245442 0.346379
C53   C     C_R   0.650340 0.140847 0.721844 0.335408
C54   C     C_R   0.349631 0.859247 0.278210 0.335747
C55   C     C_R   0.824291 0.615270 0.755425 0.345028
C56   C     C_R   0.145452 0.353720 0.278554 0.342215
C57   C     C_R   0.352936 0.144452 0.278533 0.341213
C58   C     C_R   0.647456 0.855661 0.721488 0.340934
C59   C     C_R   0.150185 0.640982 0.221778 0.335871
C60   C     C_R   0.849612 0.359296 0.778266 0.344817
C61   C     C_R   0.615211 0.824009 0.245501 0.345390
C62   C     C_R   0.384773 0.175716 0.755312 0.344011
C63   C     C_R   0.849667 0.359196 0.221773 0.344872
C64   C     C_R   0.150225 0.640980 0.778169 0.335433
C65   C     C_R   0.859063 0.349773 0.278216 0.335809
C66   C     C_R   0.140681 0.650410 0.721742 0.344793
C67   C     C_R   0.675991 0.884789 0.254499 0.345397
C68   C     C_R   0.324285 0.115228 0.744689 0.344017
C69   C     C_R   0.140846 0.650297 0.278233 0.344887
C70   C     C_R   0.858997 0.349796 0.721823 0.335462
C71   C     C_R   0.355555 0.147066 0.221463 0.341212
C72   C     C_R   0.644331 0.852542 0.778517 0.340935
C73   C     C_R   0.884727 0.675709 0.744579 0.345027
C74   C     C_R   0.146280 0.354551 0.221443 0.342208
C75   C     C_R   0.640545 0.150519 0.778240 0.344383
C76   C     C_R   0.359335 0.849537 0.221809 0.344419
C77   C     C_R   0.146734 0.354793 0.778541 0.341784
C78   C     C_R   0.884784 0.675975 0.254558 0.346381
C79   C     C_R   0.359146 0.849665 0.778157 0.335416
C80   C     C_R   0.640765 0.150360 0.221789 0.335761
C81   C     C_R   0.371982 0.872121 0.749967 -0.264658
C82   C     C_R   0.627975 0.127923 0.249996 -0.264398
C83   C     C_R   0.128216 0.371785 0.750000 -0.277868
C84   C     C_R   0.872028 0.627972 0.250000 -0.260563
C85   C     C_R   0.627879 0.128018 0.750033 -0.264650
C86   C     C_R   0.372077 0.872026 0.250004 -0.264388
C87   C     C_R   0.872102 0.627896 0.750001 -0.258437
C88   C     C_R   0.128138 0.371864 0.249999 -0.280542
C89   C     C_R   0.371936 0.128067 0.249998 -0.279138
C90   C     C_R   0.628165 0.871831 0.750002 -0.276528
C91   C     C_R   0.127922 0.627994 0.250006 -0.263490
C92   C     C_R   0.871975 0.372113 0.750036 -0.263781
C93   C     C_R   0.627975 0.872025 0.250000 -0.261665
C94   C     C_R   0.372117 0.127883 0.750000 -0.259556
C95   C     C_R   0.872008 0.372079 0.249994 -0.263454
C96   C     C_R   0.127887 0.628025 0.749964 -0.263712
C97   C     C_1   0.264894 0.765346 0.749899 0.022490
C98   C     C_1   0.734883 0.234876 0.249984 0.022622
C99   C     C_1   0.235163 0.264838 0.750001 0.014676
C100  C     C_1   0.765111 0.734888 0.250000 0.026734
C101  C     C_1   0.734653 0.235106 0.750101 0.022487
C102  C     C_1   0.265125 0.765119 0.250016 0.022617
C103  C     C_1   0.765299 0.734697 0.750006 0.017591
C104  C     C_1   0.234977 0.265027 0.249996 0.021995
C105  C     C_1   0.265138 0.234867 0.249996 0.021831
C106  C     C_1   0.735108 0.764887 0.750006 0.014680
C107  C     C_1   0.234867 0.734919 0.250019 0.022673
C108  C     C_1   0.764882 0.265336 0.750103 0.022542
C109  C     C_1   0.734893 0.765106 0.250000 0.026637
C110  C     C_1   0.265346 0.234655 0.750001 0.017253
C111  C     C_1   0.765084 0.265134 0.249981 0.022674
C112  C     C_1   0.234664 0.735117 0.749898 0.022502
C113  C     C_R   0.998730 0.500182 0.868386 -0.323489
C114  C     C_R   0.998737 0.500185 0.131614 -0.323322
C115  C     C_R   0.499870 0.000072 0.868358 -0.323460
C116  C     C_R   0.500130 0.999951 0.131642 -0.323327
C117  C     C_R   0.500049 0.999869 0.368358 -0.323326
C118  C     C_R   0.499928 0.000131 0.631642 -0.323458
C119  C     C_R   0.999814 0.501263 0.368386 -0.323318
C120  C     C_R   0.999817 0.501270 0.631614 -0.323485
C121  C     C_R   0.957601 0.515457 0.884113 0.297275
C122  C     C_R   0.038730 0.485288 0.114582 0.304503
C123  C     C_R   0.487812 0.041698 0.884673 0.295113
C124  C     C_R   0.512172 0.958331 0.115316 0.295216
C125  C     C_R   0.038737 0.485326 0.885419 0.304321
C126  C     C_R   0.957623 0.515498 0.115886 0.297423
C127  C     C_R   0.511511 0.958428 0.884770 0.304600
C128  C     C_R   0.488505 0.041611 0.115241 0.304803
C129  C     C_R   0.458399 0.011526 0.384760 0.304802
C130  C     C_R   0.541563 0.988459 0.615229 0.304600
C131  C     C_R   0.984495 0.542374 0.384114 0.297426
C132  C     C_R   0.014679 0.461265 0.614581 0.304323
C133  C     C_R   0.541660 0.987793 0.384684 0.295234
C134  C     C_R   0.458311 0.012220 0.615327 0.295130
C135  C     C_R   0.014717 0.461272 0.385418 0.304503
C136  C     C_R   0.984537 0.542397 0.615887 0.297278
C137  C     C_R   0.956259 0.515315 0.916875 0.341423
C138  C     C_R   0.037535 0.485141 0.081839 0.335336
C139  C     C_R   0.487892 0.041866 0.917444 0.341452
C140  C     C_R   0.512096 0.958184 0.082545 0.341590
C141  C     C_R   0.037539 0.485176 0.918160 0.335302
C142  C     C_R   0.956282 0.515354 0.083125 0.341566
C143  C     C_R   0.511566 0.958430 0.917525 0.335921
C144  C     C_R   0.488452 0.041628 0.082486 0.335946
C145  C     C_R   0.458383 0.011580 0.417515 0.335942
C146  C     C_R   0.541560 0.988403 0.582474 0.335918
C147  C     C_R   0.984639 0.543715 0.416875 0.341574
C148  C     C_R   0.014829 0.462463 0.581839 0.335305
C149  C     C_R   0.541807 0.987869 0.417455 0.341591
C150  C     C_R   0.458143 0.012140 0.582556 0.341453
C151  C     C_R   0.014863 0.462467 0.418160 0.335332
C152  C     C_R   0.984678 0.543739 0.583125 0.341420
C153  C     C_R   0.999970 0.500081 0.665853 0.997810
C154  C     C_R   0.999969 0.500079 0.334147 0.997419
C155  C     C_R   0.499996 0.000021 0.665867 0.999892
C156  C     C_R   0.500001 0.999979 0.334133 0.999592
C157  C     C_R   0.500021 0.999999 0.165867 0.999609
C158  C     C_R   0.499979 0.000003 0.834133 0.999909
C159  C     C_R   0.999921 0.500031 0.165853 0.997423
C160  C     C_R   0.999919 0.500030 0.834147 0.997820
C161  C     C_R   0.909085 0.590914 0.750000 0.974509
C162  C     C_R   0.091003 0.408997 0.250000 0.949009
C163  C     C_R   0.409062 0.909087 0.749993 0.965607
C164  C     C_R   0.590933 0.090918 0.250002 0.965289
C165  C     C_R   0.091030 0.408970 0.750000 0.948526
C166  C     C_R   0.909059 0.590941 0.250000 0.973386
C167  C     C_R   0.590912 0.090938 0.750007 0.965616
C168  C     C_R   0.409083 0.909068 0.249998 0.965306
C169  C     C_R   0.909063 0.409081 0.249996 0.963825
C170  C     C_R   0.090915 0.590940 0.749992 0.964230
C171  C     C_R   0.409023 0.090977 0.250000 0.952317
C172  C     C_R   0.591012 0.908987 0.750000 0.951492
C173  C     C_R   0.090919 0.590938 0.250004 0.963747
C174  C     C_R   0.909059 0.409085 0.750008 0.964161
C175  C     C_R   0.590943 0.909057 0.250000 0.971662
C176  C     C_R   0.409090 0.090910 0.750000 0.972804
C177  C     C_R   0.499759 0.000036 0.531606 0.439121
C178  C     C_R   0.500158 0.999953 0.468393 0.439121
C179  C     C_R   0.000194 0.504999 0.531604 0.439626
C180  C     C_R   0.000192 0.504989 0.468397 0.439599
C181  C     C_R   0.995010 0.499807 0.031602 0.439594
C182  C     C_R   0.995001 0.499804 0.968396 0.439623
C183  C     C_R   0.500047 0.999844 0.031607 0.439117
C184  C     C_R   0.499964 0.000241 0.968394 0.439117
C185  C     C_R   0.996209 0.500029 0.934019 -0.263966
C186  C     C_R   0.996220 0.500032 0.065980 -0.264066
C187  C     C_R   0.499855 0.000211 0.934000 -0.264272
C188  C     C_R   0.500151 0.999854 0.066000 -0.264365
C189  C     C_R   0.500148 0.999848 0.434000 -0.264363
C190  C     C_R   0.499789 0.000146 0.566000 -0.264271
C191  C     C_R   0.999966 0.503780 0.434020 -0.264064
C192  C     C_R   0.999970 0.503791 0.565980 -0.263966
N1    N     N_R   0.004648 0.459412 0.984474 -0.082910
N2    N     N_R   0.985138 0.540160 0.015530 -0.083896
N3    N     N_R   0.539404 0.987073 0.984417 -0.082968
N4    N     N_R   0.460607 0.013014 0.015583 -0.083213
N5    N     N_R   0.985133 0.540159 0.984467 -0.083984
N6    N     N_R   0.004652 0.459413 0.015525 -0.082900
N7    N     N_R   0.460559 0.013194 0.984526 -0.083821
N8    N     N_R   0.539452 0.986893 0.015475 -0.083521
N9    N     N_R   0.513077 0.960537 0.484525 -0.083519
N10   N     N_R   0.486839 0.039451 0.515474 -0.083819
N11   N     N_R   0.040586 0.495353 0.484474 -0.082897
N12   N     N_R   0.959839 0.514861 0.515533 -0.083982
N13   N     N_R   0.487019 0.039404 0.484417 -0.083213
N14   N     N_R   0.512896 0.960585 0.515583 -0.082969
N15   N     N_R   0.959838 0.514857 0.484470 -0.083898
N16   N     N_R   0.040587 0.495357 0.515525 -0.082912
O1    O     O_3   0.000000 0.500000 0.750000 -0.565659
O2    O     O_3   1.000000 0.500000 0.250000 -0.566088
O3    O     O_3   0.500000 1.000000 0.750000 -0.565001
O4    O     O_3   0.500000 0.000000 0.250000 -0.565391
O5    O     O_R   0.039240 0.500000 0.680730 -0.590320
O6    O     O_R   0.960760 0.500000 0.319270 -0.604516
O7    O     O_R   0.500000 0.039240 0.680730 -0.606573
O8    O     O_R   0.500000 0.960760 0.319270 -0.606334
O9    O     O_R   0.960760 0.500000 0.680730 -0.604720
O10   O     O_R   0.039240 0.500000 0.319270 -0.590168
O11   O     O_R   0.500000 0.960760 0.680730 -0.591256
O12   O     O_R   0.500000 0.039240 0.319270 -0.591227
O13   O     O_R   0.539240 0.000000 0.180730 -0.606346
O14   O     O_R   0.460760 1.000000 0.819270 -0.606585
O15   O     O_R   0.000000 0.539240 0.180730 -0.604492
O16   O     O_R   1.000000 0.460760 0.819270 -0.590304
O17   O     O_R   0.460760 0.000000 0.180730 -0.591235
O18   O     O_R   0.539240 1.000000 0.819270 -0.591260
O19   O     O_R   1.000000 0.460760 0.180730 -0.590200
O20   O     O_R   0.000000 0.539240 0.819270 -0.604740
O21   O     O_R   0.905530 0.555180 0.731880 -0.598966
O22   O     O_R   0.094470 0.444820 0.268120 -0.599582
O23   O     O_R   0.444820 0.905530 0.731880 -0.610427
O24   O     O_R   0.555180 0.094470 0.268120 -0.610305
O25   O     O_R   0.094470 0.444820 0.731880 -0.599815
O26   O     O_R   0.905530 0.555180 0.268120 -0.597994
O27   O     O_R   0.555180 0.094470 0.731880 -0.590086
O28   O     O_R   0.444820 0.905530 0.268120 -0.589691
O29   O     O_R   0.905530 0.444820 0.268120 -0.589651
O30   O     O_R   0.094470 0.555180 0.731880 -0.610404
O31   O     O_R   0.444820 0.094470 0.268120 -0.600734
O32   O     O_R   0.555180 0.905530 0.731880 -0.600849
O33   O     O_R   0.094470 0.555180 0.268120 -0.610192
O34   O     O_R   0.905530 0.444820 0.731880 -0.590066
O35   O     O_R   0.555180 0.905530 0.268120 -0.599303
O36   O     O_R   0.444820 0.094470 0.731880 -0.600258
O37   O     O_R   0.405530 0.055180 0.231880 -0.600747
O38   O     O_R   0.594470 0.944820 0.768120 -0.600861
O39   O     O_R   0.944820 0.405530 0.231880 -0.610236
O40   O     O_R   0.055180 0.594470 0.768120 -0.590089
O41   O     O_R   0.594470 0.944820 0.231880 -0.599322
O42   O     O_R   0.405530 0.055180 0.768120 -0.600277
O43   O     O_R   0.055180 0.594470 0.231880 -0.589617
O44   O     O_R   0.944820 0.405530 0.768120 -0.610396
O45   O     O_R   0.405530 0.944820 0.768120 -0.590082
O46   O     O_R   0.594470 0.055180 0.231880 -0.589684
O47   O     O_R   0.944820 0.594470 0.768120 -0.598979
O48   O     O_R   0.055180 0.405530 0.231880 -0.599586
O49   O     O_R   0.594470 0.055180 0.768120 -0.610434
O50   O     O_R   0.405530 0.944820 0.231880 -0.610315
O51   O     O_R   0.055180 0.405530 0.768120 -0.599821
O52   O     O_R   0.944820 0.594470 0.231880 -0.597989
Zn1   Zn    Zn3+2 0.000000 0.556030 0.776010 1.121577
Zn2   Zn    Zn3+2 0.000000 0.443970 0.223990 1.113340
Zn3   Zn    Zn3+2 0.443970 0.000000 0.776010 1.120642
Zn4   Zn    Zn3+2 0.556030 1.000000 0.223990 1.121042
Zn5   Zn    Zn3+2 0.000000 0.443970 0.776010 1.113274
Zn6   Zn    Zn3+2 0.000000 0.556030 0.223990 1.121952
Zn7   Zn    Zn3+2 0.556030 0.000000 0.776010 1.113829
Zn8   Zn    Zn3+2 0.443970 1.000000 0.223990 1.113865
Zn9   Zn    Zn3+2 0.500000 0.056030 0.276010 1.113876
Zn10  Zn    Zn3+2 0.500000 0.943970 0.723990 1.113837
Zn11  Zn    Zn3+2 0.943970 0.500000 0.276010 1.121937
Zn12  Zn    Zn3+2 0.056030 0.500000 0.723990 1.113273
Zn13  Zn    Zn3+2 0.500000 0.943970 0.276010 1.121052
Zn14  Zn    Zn3+2 0.500000 0.056030 0.723990 1.120652
Zn15  Zn    Zn3+2 0.056030 0.500000 0.276010 1.113362
Zn16  Zn    Zn3+2 0.943970 0.500000 0.723990 1.121592
Cl1   Cl    Cl    0.907047 0.533621 0.862689 -0.424947
Cl2   Cl    Cl    0.091325 0.468774 0.134285 -0.383677
Cl3   Cl    Cl    0.473594 0.094162 0.863959 -0.422180
Cl4   Cl    Cl    0.526369 0.905848 0.136017 -0.422142
Cl5   Cl    Cl    0.091350 0.468868 0.865716 -0.383548
Cl6   Cl    Cl    0.907084 0.533708 0.137309 -0.425108
Cl7   Cl    Cl    0.524303 0.905511 0.864227 -0.384344
Cl8   Cl    Cl    0.475733 0.094520 0.135798 -0.384416
Cl9   Cl    Cl    0.405498 0.024335 0.364204 -0.384398
Cl10  Cl    Cl    0.594472 0.975634 0.635772 -0.384332
Cl11  Cl    Cl    0.966278 0.592911 0.362691 -0.425164
Cl12  Cl    Cl    0.031143 0.408654 0.634283 -0.383572
Cl13  Cl    Cl    0.594131 0.973555 0.363983 -0.422178
Cl14  Cl    Cl    0.405857 0.026476 0.636041 -0.422210
Cl15  Cl    Cl    0.031238 0.408680 0.365715 -0.383626
Cl16  Cl    Cl    0.966366 0.592949 0.637311 -0.424928
Cl17  Cl    Cl    0.903508 0.532472 0.936256 -0.392777
Cl18  Cl    Cl    0.088964 0.468308 0.060837 -0.387520
Cl19  Cl    Cl    0.474904 0.095159 0.937576 -0.391323
Cl20  Cl    Cl    0.525066 0.904898 0.062399 -0.390204
Cl21  Cl    Cl    0.088980 0.468387 0.939164 -0.387511
Cl22  Cl    Cl    0.903544 0.532551 0.063745 -0.392070
Cl23  Cl    Cl    0.524277 0.905133 0.937749 -0.388333
Cl24  Cl    Cl    0.475758 0.094940 0.062275 -0.388821
Cl25  Cl    Cl    0.405082 0.024317 0.437727 -0.388820
Cl26  Cl    Cl    0.594847 0.975653 0.562250 -0.388333
Cl27  Cl    Cl    0.967434 0.596450 0.436255 -0.392076
Cl28  Cl    Cl    0.031624 0.411025 0.560836 -0.387509
Cl29  Cl    Cl    0.595083 0.974856 0.437600 -0.390206
Cl30  Cl    Cl    0.404860 0.025168 0.562423 -0.391324
Cl31  Cl    Cl    0.031704 0.411041 0.439162 -0.387515
Cl32  Cl    Cl    0.967514 0.596487 0.563744 -0.392774
C193  C     C_3   0.289459 0.809022 0.691669 -0.716622
H1    H     H_    0.302276 0.827845 0.670641 0.293052
H2    H     H_    0.295160 0.770472 0.687645 0.224979
H3    H     H_    0.250738 0.815888 0.693707 0.233373
C194  C     C_3   0.710400 0.191247 0.308245 -0.716904
H4    H     H_    0.697612 0.172442 0.329287 0.293073
H5    H     H_    0.749130 0.184428 0.306210 0.232573
H6    H     H_    0.704645 0.229795 0.312242 0.225706
C195  C     C_3   0.200131 0.297574 0.691150 -0.693785
H7    H     H_    0.184607 0.313360 0.669851 0.292600
H8    H     H_    0.239111 0.303557 0.690001 0.230164
H9    H     H_    0.193054 0.258753 0.690387 0.232444
C196  C     C_3   0.736436 0.638023 0.241029 -0.719394
H10   H     H_    0.729538 0.599571 0.238202 0.290403
H11   H     H_    0.715704 0.650055 0.261595 0.226330
H12   H     H_    0.722738 0.656184 0.219872 0.234173
C197  C     C_3   0.710223 0.191536 0.691821 -0.718838
H13   H     H_    0.697472 0.172737 0.670769 0.293453
H14   H     H_    0.704423 0.230080 0.687837 0.228096
H15   H     H_    0.748960 0.184760 0.693862 0.229585
C198  C     C_3   0.289701 0.808668 0.308275 -0.717877
H16   H     H_    0.302504 0.827461 0.329317 0.293455
H17   H     H_    0.250971 0.815493 0.306254 0.230458
H18   H     H_    0.295451 0.770117 0.312265 0.227444
C199  C     C_3   0.736906 0.638309 0.760996 -0.705802
H19   H     H_    0.730124 0.599977 0.764567 0.288121
H20   H     H_    0.724049 0.657292 0.782078 0.233777
H21   H     H_    0.715352 0.649631 0.740614 0.230020
C200  C     C_3   0.200963 0.298716 0.308878 -0.711705
H22   H     H_    0.185784 0.314854 0.330169 0.295303
H23   H     H_    0.193951 0.259916 0.310003 0.231515
H24   H     H_    0.239928 0.304845 0.309703 0.225457
C201  C     C_3   0.296917 0.198909 0.308858 -0.712035
H25   H     H_    0.312333 0.182962 0.330139 0.295158
H26   H     H_    0.303046 0.237827 0.310348 0.225446
H27   H     H_    0.258082 0.191906 0.309324 0.231679
C202  C     C_3   0.704045 0.801662 0.691194 -0.693629
H28   H     H_    0.688883 0.817855 0.669913 0.292495
H29   H     H_    0.742883 0.808734 0.691008 0.232153
H30   H     H_    0.698082 0.762729 0.689466 0.230649
C203  C     C_3   0.209888 0.691810 0.191697 -0.718419
H31   H     H_    0.196934 0.673188 0.170631 0.293276
H32   H     H_    0.204112 0.730392 0.187857 0.227611
H33   H     H_    0.248632 0.684967 0.193576 0.230330
C204  C     C_3   0.789749 0.308699 0.808377 -0.717098
H34   H     H_    0.802674 0.327405 0.829418 0.292838
H35   H     H_    0.751017 0.315575 0.806446 0.233368
H36   H     H_    0.795470 0.270128 0.812300 0.225081
C205  C     C_3   0.638009 0.736409 0.241157 -0.719838
H37   H     H_    0.599551 0.729503 0.238379 0.290459
H38   H     H_    0.656118 0.722662 0.219995 0.234115
H39   H     H_    0.650094 0.715727 0.261731 0.226372
C206  C     C_3   0.361762 0.263126 0.760733 -0.706418
H40   H     H_    0.400111 0.269931 0.764199 0.288135
H41   H     H_    0.350331 0.284578 0.740329 0.229825
H42   H     H_    0.342887 0.276084 0.781829 0.233968
C207  C     C_3   0.789888 0.308471 0.191689 -0.717359
H43   H     H_    0.802787 0.327173 0.170643 0.292874
H44   H     H_    0.795667 0.269910 0.187785 0.225821
H45   H     H_    0.751149 0.315290 0.193616 0.232591
C208  C     C_3   0.209958 0.691817 0.808207 -0.719321
H46   H     H_    0.197102 0.673123 0.829272 0.293297
H47   H     H_    0.248702 0.685029 0.806261 0.229499
H48   H     H_    0.204145 0.730378 0.812098 0.228254
C209  C     C_3   0.808282 0.290026 0.308291 -0.718532
H49   H     H_    0.826945 0.302941 0.329346 0.293303
H50   H     H_    0.769712 0.295804 0.312166 0.227632
H51   H     H_    0.815108 0.251287 0.306383 0.230328
C210  C     C_3   0.191250 0.710304 0.691638 -0.717125
H52   H     H_    0.172528 0.697394 0.670599 0.292843
H53   H     H_    0.184372 0.749031 0.693588 0.233375
H54   H     H_    0.229817 0.704592 0.687701 0.225081
C211  C     C_3   0.763590 0.861991 0.258843 -0.719842
H55   H     H_    0.770497 0.900449 0.261620 0.290457
H56   H     H_    0.777338 0.843882 0.280005 0.234119
H57   H     H_    0.784273 0.849905 0.238269 0.226368
C212  C     C_3   0.236874 0.138240 0.739270 -0.706424
H58   H     H_    0.230068 0.099891 0.735803 0.288134
H59   H     H_    0.215423 0.149671 0.759673 0.229822
H60   H     H_    0.223916 0.157115 0.718174 0.233971
C213  C     C_3   0.191598 0.710054 0.308324 -0.717272
H61   H     H_    0.172912 0.697143 0.329374 0.292856
H62   H     H_    0.230165 0.704272 0.312213 0.225833
H63   H     H_    0.184774 0.748800 0.306414 0.232541
C214  C     C_3   0.808135 0.290089 0.691780 -0.719348
H64   H     H_    0.826824 0.302949 0.670718 0.293302
H65   H     H_    0.814909 0.251341 0.693711 0.229473
H66   H     H_    0.769575 0.295918 0.687897 0.228281
C215  C     C_3   0.301102 0.203085 0.191134 -0.712041
H67   H     H_    0.317050 0.187666 0.169855 0.295154
H68   H     H_    0.262183 0.196956 0.189643 0.225445
H69   H     H_    0.308105 0.241919 0.190668 0.231685
C216  C     C_3   0.698326 0.795955 0.808815 -0.693638
H70   H     H_    0.682131 0.811119 0.830095 0.292492
H71   H     H_    0.691254 0.757117 0.809003 0.232157
H72   H     H_    0.737259 0.801917 0.810545 0.230647
C217  C     C_3   0.861685 0.763094 0.739013 -0.705808
H73   H     H_    0.900017 0.769877 0.735442 0.288121
H74   H     H_    0.842700 0.775953 0.717933 0.233777
H75   H     H_    0.850364 0.784645 0.759397 0.230019
C218  C     C_3   0.201284 0.299044 0.191115 -0.711709
H76   H     H_    0.185146 0.314225 0.169825 0.295301
H77   H     H_    0.240085 0.306057 0.189990 0.231516
H78   H     H_    0.195156 0.260079 0.190289 0.225457
C219  C     C_3   0.690962 0.210555 0.808329 -0.716618
H79   H     H_    0.672133 0.197745 0.829356 0.293055
H80   H     H_    0.729510 0.204856 0.812358 0.224975
H81   H     H_    0.684096 0.249277 0.806286 0.233376
C220  C     C_3   0.308777 0.789577 0.191759 -0.716901
H82   H     H_    0.327593 0.802355 0.170718 0.293079
H83   H     H_    0.315593 0.750847 0.193803 0.232577
H84   H     H_    0.270232 0.795332 0.187753 0.225694
C221  C     C_3   0.202427 0.299872 0.808852 -0.693792
H85   H     H_    0.186640 0.315398 0.830151 0.292600
H86   H     H_    0.196443 0.260892 0.810002 0.230162
H87   H     H_    0.241247 0.306950 0.809615 0.232446
C222  C     C_3   0.861977 0.763564 0.258971 -0.719399
H88   H     H_    0.900428 0.770462 0.261798 0.290403
H89   H     H_    0.849945 0.784296 0.238405 0.226330
H90   H     H_    0.843814 0.777262 0.280128 0.234171
C223  C     C_3   0.308448 0.789791 0.808181 -0.718824
H91   H     H_    0.327242 0.802548 0.829234 0.293452
H92   H     H_    0.269903 0.795592 0.812161 0.228091
H93   H     H_    0.315224 0.751054 0.806145 0.229587
C224  C     C_3   0.691358 0.210276 0.191722 -0.717863
H94   H     H_    0.672577 0.197462 0.170679 0.293454
H95   H     H_    0.684528 0.249007 0.193734 0.230464
H96   H     H_    0.729911 0.204527 0.187741 0.227442
Cl33  Cl    Cl    0.364617 0.890167 0.687000 -0.502929
Cl34  Cl    Cl    0.635384 0.109984 0.312973 -0.503305
Cl35  Cl    Cl    0.119917 0.372894 0.685890 -0.475610
Cl36  Cl    Cl    0.809380 0.554902 0.238134 -0.521340
Cl37  Cl    Cl    0.635312 0.110195 0.687041 -0.518502
Cl38  Cl    Cl    0.364753 0.889888 0.312999 -0.517827
Cl39  Cl    Cl    0.809943 0.555159 0.763641 -0.521984
Cl40  Cl    Cl    0.120480 0.373639 0.314160 -0.474430
Cl41  Cl    Cl    0.371900 0.118346 0.314031 -0.478290
Cl42  Cl    Cl    0.628691 0.881973 0.686019 -0.479129
Cl43  Cl    Cl    0.134875 0.610576 0.186938 -0.522992
Cl44  Cl    Cl    0.864879 0.389856 0.813058 -0.507208
Cl45  Cl    Cl    0.554883 0.809342 0.238260 -0.522122
Cl46  Cl    Cl    0.444911 0.190104 0.763411 -0.522900
Cl47  Cl    Cl    0.864890 0.389737 0.186965 -0.507609
Cl48  Cl    Cl    0.135064 0.610474 0.813001 -0.523574
Cl49  Cl    Cl    0.889519 0.365037 0.313047 -0.523019
Cl50  Cl    Cl    0.110100 0.635163 0.686957 -0.507236
Cl51  Cl    Cl    0.690658 0.945117 0.261740 -0.522138
Cl52  Cl    Cl    0.309895 0.055090 0.736589 -0.522912
Cl53  Cl    Cl    0.110361 0.635022 0.313050 -0.507646
Cl54  Cl    Cl    0.889472 0.364985 0.686981 -0.523527
Cl55  Cl    Cl    0.381666 0.128101 0.185966 -0.478341
Cl56  Cl    Cl    0.618013 0.871310 0.813984 -0.479176
Cl57  Cl    Cl    0.944836 0.690059 0.736361 -0.521967
Cl58  Cl    Cl    0.126358 0.379525 0.185837 -0.474466
Cl59  Cl    Cl    0.609818 0.135396 0.812998 -0.502878
Cl60  Cl    Cl    0.390039 0.864596 0.187031 -0.503250
Cl61  Cl    Cl    0.127105 0.380086 0.814111 -0.475601
Cl62  Cl    Cl    0.945098 0.690621 0.261865 -0.521392
Cl63  Cl    Cl    0.389791 0.864700 0.812962 -0.518453
Cl64  Cl    Cl    0.610135 0.135228 0.186997 -0.517772

loop_
_geom_bond_atom_site_label_1
_geom_bond_atom_site_label_2
_ccdc_geom_bond_type
O2    Zn2   S    
O9    Zn16  S    
O36   Zn14  S    
C57   Cl41  S    
C205  H37   S    
O48   Zn2   S    
O22   Zn15  S    
C130  C146  A    
C222  H88   S    
C18   C194  S    
C138  Cl18  S    
C117  C133  A    
C153  O5    A    
O14   Zn3   S    
C199  H19   S    
C167  O27   A    
C50   C82   A    
C66   Cl50  S    
C49   Cl33  S    
C121  Cl1   S    
C212  H58   S    
C37   C69   A    
C215  H68   S    
C30   C206  S    
C176  O42   A    
C123  Cl3   S    
N2    N5    A    
C17   C193  S    
C9    C39   A    
C91   C173  S    
C10   C40   A    
C11   C37   A    
C73   Cl57  S    
C210  H54   S    
C156  O8    A    
N9    N14   A    
C3    C19   A    
C158  O18   A    
O17   Zn8   S    
C129  C145  A    
C208  H48   S    
C28   C60   A    
C170  O30   A    
C100  C109  T    
C219  H80   S    
C6    C44   A    
C36   C212  S    
C170  O40   A    
C64   Cl48  S    
C104  C105  T    
C204  H35   S    
C200  H22   S    
C43   C75   A    
C206  H42   S    
C5    C101  S    
C115  C123  A    
O31   Zn9   S    
C9    C25   A    
C134  Cl14  S    
C162  O48   A    
C209  H51   S    
C12   C108  S    
C97   C112  T    
C99   C110  T    
C45   C221  S    
C182  C185  S    
C133  Cl13  S    
C195  H9    S    
C69   Cl53  S    
C150  C190  A    
C206  H41   S    
C144  Cl24  S    
C11   C27   A    
C224  H96   S    
C183  N4    A    
C156  O12   A    
C59   C91   A    
C202  H30   S    
C79   Cl63  S    
C181  N2    A    
C8    C104  S    
C32   C64   A    
C161  O21   A    
C160  O16   A    
C205  H39   S    
C211  H55   S    
C222  H90   S    
C207  H45   S    
O52   Zn6   S    
C51   C83   A    
C200  H24   S    
O20   Zn1   S    
C199  H21   S    
C53   Cl37  S    
C36   C68   A    
C23   C55   A    
C32   C208  S    
C24   C56   A    
C184  N3    A    
C214  H64   S    
C149  C189  A    
C128  C144  A    
C77   Cl61  S    
C164  O24   A    
C129  Cl9   S    
C152  C192  A    
C207  H43   S    
C82   C164  S    
C88   C162  S    
C61   C93   A    
C6    C102  S    
C175  O41   A    
C4    C20   A    
C20   C196  S    
C42   C218  S    
C5    C21   A    
C203  H33   S    
O4    Zn8   S    
C196  H10   S    
O27   Zn14  S    
C39   C71   A    
O24   Zn9   S    
C53   C85   A    
C167  O49   A    
C218  H76   S    
C183  C188  S    
O19   Zn2   S    
C212  H59   S    
O21   Zn16  S    
O10   Zn15  S    
O7    Zn14  S    
O49   Zn7   S    
C18   C50   A    
C130  Cl10  S    
C180  N11   A    
O50   Zn8   S    
C34   C66   A    
C216  H70   S    
C31   C207  S    
C29   C205  S    
C22   C54   A    
C223  H91   S    
C47   C223  S    
C171  O37   A    
C13   C35   A    
C34   C210  S    
C14   C36   A    
C114  C126  A    
C63   Cl47  S    
C56   C88   A    
C9    C105  S    
C123  C139  A    
C177  N14   A    
C163  O45   A    
C121  C137  A    
C197  H14   S    
C13   C109  S    
C16   C34   A    
O47   Zn1   S    
C125  C141  A    
C213  H63   S    
C119  C131  A    
C131  C147  A    
C117  C129  A    
C153  O9    A    
C118  C134  A    
O18   Zn7   S    
C68   Cl52  S    
O45   Zn3   S    
C141  Cl21  S    
O46   Zn4   S    
O41   Zn4   S    
C7    C103  S    
C157  O13   A    
C198  H17   S    
C182  N5    A    
C25   C57   A    
N4    N7    A    
C122  Cl2   S    
C220  H83   S    
C38   C214  S    
C145  Cl25  S    
C201  H26   S    
C214  H66   S    
C29   C61   A    
C115  C158  S    
C85   C167  S    
C31   C63   A    
C165  O25   A    
C86   C168  S    
C89   C171  S    
C80   C82   A    
C54   Cl38  S    
C217  H75   S    
C17   C49   A    
C54   C86   A    
C92   C174  S    
C93   C175  S    
C78   C84   A    
C68   C94   A    
C165  O51   A    
C166  O52   A    
C72   C90   A    
C59   Cl43  S    
C35   C67   A    
C196  H12   S    
O3    Zn7   S    
C102  C107  T    
C218  H78   S    
C71   Cl55  S    
C172  O32   A    
C125  Cl5   S    
C221  H87   S    
C51   Cl35  S    
C10   C106  S    
C128  Cl8   S    
C216  H72   S    
C213  H62   S    
C223  H93   S    
C14   C110  S    
C177  C190  S    
C40   C72   A    
C75   Cl59  S    
C164  O46   A    
C56   Cl40  S    
C180  C191  S    
C181  C186  S    
O1    Zn1   S    
C55   Cl39  S    
C16   C32   A    
N11   N16   A    
C1    C17   A    
C183  N8    A    
C184  C187  S    
C52   C84   A    
C215  H67   S    
C148  Cl28  S    
C7    C23   A    
C149  Cl29  S    
C48   C224  S    
C8    C24   A    
C64   C96   A    
C7    C41   A    
C55   C87   A    
C210  H53   S    
C174  O34   A    
C41   C73   A    
C3    C99   S    
C65   C95   A    
C113  C121  A    
O2    Zn6   S    
C178  N9    A    
C67   C93   A    
C45   C77   A    
C69   C91   A    
C208  H47   S    
C148  C192  A    
C38   C70   A    
C219  H79   S    
O3    Zn14  S    
C154  O6    A    
O25   Zn12  S    
C204  H34   S    
C143  Cl23  S    
O26   Zn11  S    
C173  O43   A    
O1    Zn5   S    
C83   C165  S    
C203  H31   S    
C57   C89   A    
C12   C28   A    
C5    C43   A    
C65   Cl49  S    
C13   C29   A    
C138  C186  A    
N3    N8    A    
C209  H50   S    
C37   C213  S    
C27   C203  S    
C44   C220  S    
N1    N6    A    
C6    C22   A    
O23   Zn10  S    
C63   C95   A    
O28   Zn13  S    
C74   Cl58  S    
C49   C81   A    
C195  H8    S    
C168  O50   A    
C73   C87   A    
O15   Zn6   S    
C136  C152  A    
C75   C85   A    
O1    Zn12  S    
C52   Cl36  S    
C224  H95   S    
N10   N13   A    
C152  Cl32  S    
O8    Zn13  S    
C155  O11   A    
C202  H29   S    
C180  N15   A    
O35   Zn13  S    
C46   C222  S    
C157  O17   A    
C176  O36   A    
O13   Zn4   S    
C101  C108  T    
C205  H38   S    
C169  O29   A    
C222  H89   S    
C19   C195  S    
C200  H23   S    
C137  C185  A    
C199  H20   S    
C124  Cl4   S    
C42   C74   A    
C132  Cl12  S    
C140  C188  A    
C122  C138  A    
C136  Cl16  S    
C215  H69   S    
C46   C78   A    
C1    C47   A    
C22   C198  S    
C2    C48   A    
O4    Zn13  S    
C126  C142  A    
C119  C135  A    
C160  O20   A    
C120  C136  A    
C28   C204  S    
C70   Cl54  S    
C175  O35   A    
C166  O26   A    
C218  H77   S    
C118  C130  A    
N12   N15   A    
C172  O38   A    
C150  Cl30  S    
O1    Zn16  S    
C1    C97   S    
C182  N1    A    
C15   C31   A    
O12   Zn9   S    
C26   C58   A    
C162  O22   A    
C40   C216  S    
C146  Cl26  S    
C119  C154  S    
C30   C62   A    
C41   C217  S    
C76   C86   A    
C204  H36   S    
C16   C112  S    
C66   C96   A    
O40   Zn1   S    
C178  C189  S    
C179  N16   A    
C116  C124  A    
C145  C189  A    
C203  H32   S    
C124  C140  A    
C70   C92   A    
C39   C215  S    
C58   Cl42  S    
C78   Cl62  S    
O3    Zn3   S    
O33   Zn15  S    
C217  H74   S    
O34   Zn16  S    
C139  Cl19  S    
C174  O44   A    
C194  H4    S    
C50   Cl34  S    
C135  C151  A    
C126  Cl6   S    
O5    Zn12  S    
C137  Cl17  S    
C3    C45   A    
O6    Zn11  S    
C147  Cl27  S    
C221  H85   S    
C197  H13   S    
O42   Zn3   S    
C194  H5    S    
C76   Cl60  S    
C90   C172  S    
C211  H56   S    
C77   C83   A    
C74   C88   A    
C60   C92   A    
C94   C176  S    
C131  Cl11  S    
C24   C200  S    
C2    C18   A    
C198  H16   S    
C47   C79   A    
C60   Cl44  S    
C25   C201  S    
C220  H82   S    
C33   C65   A    
C4    C46   A    
C193  H1    S    
C23   C199  S    
C33   C209  S    
C214  H65   S    
C8    C42   A    
C163  O23   A    
C207  H44   S    
C113  C125  A    
C62   Cl46  S    
O32   Zn10  S    
C134  C150  A    
C178  N13   A    
C61   Cl45  S    
C115  C127  A    
C44   C76   A    
C35   C211  S    
C127  Cl7   S    
C179  C192  S    
O2    Zn11  S    
C196  H11   S    
O3    Zn10  S    
C159  O19   A    
C154  O10   A    
C168  O28   A    
C212  H60   S    
C10   C26   A    
C151  C191  A    
C158  O14   A    
C96   C170  S    
C81   C163  S    
C14   C30   A    
C139  C187  A    
C181  N6    A    
C216  H71   S    
C223  H92   S    
C142  C186  A    
C132  C148  A    
C15   C111  S    
C133  C149  A    
C147  C191  A    
O16   Zn5   S    
C79   C81   A    
C194  H6    S    
C127  C143  A    
C43   C219  S    
C26   C202  S    
C197  H15   S    
C155  O7    A    
O51   Zn5   S    
C173  O33   A    
C211  H57   S    
C58   C90   A    
C71   C89   A    
C142  Cl22  S    
C184  N7    A    
C117  C156  S    
O2    Zn15  S    
C118  C155  S    
O29   Zn11  S    
C169  O39   A    
O30   Zn12  S    
C95   C169  S    
O43   Zn6   S    
C210  H52   S    
C87   C161  S    
C67   Cl51  S    
C4    C100  S    
C11   C107  S    
C198  H18   S    
O37   Zn8   S    
C141  C185  A    
O38   Zn7   S    
C161  O47   A    
C220  H84   S    
C208  H46   S    
C144  C188  A    
C193  H3    S    
O4    Zn4   S    
C98   C111  T    
C120  C132  A    
C143  C187  A    
C72   Cl56  S    
C140  Cl20  S    
C219  H81   S    
C206  H40   S    
C151  Cl31  S    
C80   Cl64  S    
O11   Zn10  S    
C48   C80   A    
C62   C94   A    
C116  C157  S    
C20   C52   A    
C27   C59   A    
C209  H49   S    
C21   C53   A    
C213  H61   S    
C193  H2    S    
C171  O31   A    
O4    Zn9   S    
C159  O15   A    
C120  C153  S    
C103  C106  T    
C217  H73   S    
C113  C160  S    
C12   C38   A    
C195  H7    S    
C114  C159  S    
O39   Zn2   S    
C84   C166  S    
C114  C122  A    
C19   C51   A    
O44   Zn5   S    
C179  N12   A    
C2    C98   S    
C221  H86   S    
C224  H94   S    
C116  C128  A    
C201  H25   S    
C177  N10   A    
C146  C190  A    
C201  H27   S    
C202  H28   S    
C135  Cl15  S    
C15   C33   A    
C21   C197  S    
