data_mof_unit_57802.cif
_audit_creation_date              2012-10-26T18:28:11-0400
_audit_creation_method            fapswitch 2.2
_symmetry_space_group_name_H-M    P1
_symmetry_Int_Tables_number       1
_space_group_crystal_system       triclinic
_cell_length_a                    27.747454
_cell_length_b                    11.03655
_cell_length_c                    9.909752
_cell_angle_alpha                 111.627326
_cell_angle_beta                  99.025056
_cell_angle_gamma                 90.256834
_cell_volume                      2779.73499988

loop_
_atom_site_label
_atom_site_type_symbol
_atom_type_description
_atom_site_fract_x
_atom_site_fract_y
_atom_site_fract_z
_atom_type_partial_charge
C1    C     C_R   0.496451 0.254009 0.440330 0.541860
C2    C     C_R   0.876678 0.451734 0.578921 0.024628
C3    C     C_R   0.355054 0.508007 0.506498 0.031865
C4    C     C_R   0.645091 0.498161 0.497614 0.029235
C5    C     C_R   0.977084 0.431289 0.563054 0.017407
C6    C     C_R   0.022318 0.581879 0.437669 0.014738
C7    C     C_R   0.970453 0.566152 0.412963 0.010578
C8    C     C_R   0.027105 0.417273 0.550078 0.011877
C9    C     C_R   0.948502 0.502583 0.490261 0.007436
C10   C     C_R   0.050459 0.503590 0.501632 0.006578
C11   C     C_R   0.955755 0.384878 0.655852 -0.151118
C12   C     C_R   0.503667 0.745995 0.559670 0.545206
C13   C     C_R   0.046963 0.679344 0.409548 -0.148104
C14   C     C_R   0.906278 0.393780 0.662838 -0.127302
C15   C     C_R   0.097468 0.684598 0.419507 -0.124374
C16   C     C_R   0.407700 0.500994 0.501001 0.544882
C17   C     C_R   0.592269 0.499501 0.499468 0.549353
C18   C     C_R   0.055141 0.323050 0.587110 0.025377
C19   C     C_R   0.939604 0.611776 0.315244 0.025742
C20   C     C_2   0.494583 0.114159 0.406760 -0.141031
C21   C     C_2   0.505575 0.885855 0.593240 -0.141268
C22   C     C_2   0.500913 0.069705 0.516142 -0.159670
C23   C     C_R   0.102040 0.510458 0.514869 -0.048997
C24   C     C_2   0.499349 0.930313 0.483862 -0.160307
C25   C     C_2   0.506371 0.505695 0.082808 0.001942
C26   C     C_2   0.502027 0.479368 0.917658 0.010401
C27   C     C_R   0.181408 0.434937 0.576557 0.381329
C28   C     C_R   0.817022 0.562313 0.408230 0.380777
C29   C     C_R   0.175874 0.599237 0.472698 0.388755
C30   C     C_R   0.826422 0.456203 0.580529 0.389309
C31   C     C_R   0.287057 0.627441 0.612674 0.063165
C32   C     C_R   0.716094 0.387914 0.402568 0.067471
C33   C     C_R   0.337060 0.625305 0.597491 -0.018406
C34   C     C_R   0.897754 0.508385 0.493441 -0.048965
C35   C     C_R   0.665426 0.384307 0.408641 -0.020314
C36   C     C_R   0.322723 0.395979 0.428448 -0.048184
C37   C     C_R   0.675303 0.613025 0.581645 -0.045900
C38   C     C_R   0.272854 0.404673 0.432579 -0.055122
C39   C     C_R   0.725296 0.613533 0.577014 -0.058382
C40   C     C_R   0.254732 0.517689 0.524560 0.229299
C41   C     C_R   0.745755 0.503018 0.489373 0.239192
C42   C     C_3   0.339590 0.263333 0.346079 -0.409551
C43   C     C_3   0.654679 0.736640 0.674202 -0.391211
C44   C     C_3   0.556001 0.663277 0.956929 -0.125060
C45   C     C_R   0.130405 0.432742 0.578497 0.009792
C46   C     C_3   0.606186 0.615767 0.994794 -0.415129
C47   C     C_3   0.443917 0.340227 0.029642 -0.117708
C48   C     C_3   0.402840 0.296121 0.089453 -0.356732
C49   C     C_3   0.132810 0.299062 0.745686 -0.245714
C50   C     C_3   0.104542 0.315066 0.871708 -0.460437
C51   C     C_3   0.866212 0.745083 0.294541 -0.246343
C52   C     C_3   0.899989 0.868628 0.338404 -0.466375
C53   C     C_3   0.634170 0.257943 0.322204 -0.391487
C54   C     C_3   0.370369 0.748741 0.679000 -0.385779
C55   C     C_3   0.738195 0.269289 0.304072 -0.353656
C56   C     C_R   0.868383 0.573301 0.414832 0.008620
C57   C     C_3   0.268826 0.745480 0.724310 -0.351579
C58   C     C_3   0.034078 0.182892 0.544515 -0.266951
C59   C     C_3   0.009965 0.123627 0.382562 -0.434358
C60   C     C_3   0.953426 0.603595 0.168609 -0.261593
C61   C     C_3   0.970210 0.469259 0.083305 -0.433899
C62   C     C_R   0.106275 0.349467 0.631471 0.028456
C63   C     C_R   0.890967 0.638043 0.338051 0.030170
C64   C     C_R   0.125204 0.597934 0.467530 0.025414
Cu1   Cu    Cu3+1 0.508480 0.521810 0.644910 0.912487
Cu2   Cu    Cu3+1 0.491520 0.478190 0.355090 0.917055
H1    H     H_    0.511972 0.952808 0.707735 0.093023
H2    H     H_    0.027767 0.756149 0.386482 0.108219
H3    H     H_    0.492989 0.863606 0.369183 0.155559
H4    H     H_    0.507340 0.136412 0.630823 0.151936
H5    H     H_    0.324135 0.189945 0.382699 0.144508
H6    H     H_    0.326342 0.234664 0.226205 0.124879
H7    H     H_    0.379814 0.259394 0.366709 0.135879
H8    H     H_    0.683121 0.818913 0.726212 0.121554
H9    H     H_    0.625443 0.766017 0.604383 0.136068
H10   H     H_    0.639320 0.720627 0.763562 0.145866
H11   H     H_    0.604203 0.551236 0.057292 0.145667
H12   H     H_    0.488108 0.047215 0.292262 0.093766
H13   H     H_    0.620727 0.560871 0.892749 0.182888
H14   H     H_    0.632070 0.701117 0.063122 0.123326
H15   H     H_    0.561059 0.728871 0.897858 0.171223
H16   H     H_    0.541922 0.724241 0.057844 0.091672
H17   H     H_    0.416535 0.251953 0.169712 0.182254
H18   H     H_    0.379278 0.377388 0.133843 0.176354
H19   H     H_    0.379150 0.218405 0.996925 0.084262
H20   H     H_    0.423484 0.374445 0.946018 0.110558
H21   H     H_    0.464131 0.253985 0.974300 0.109053
H22   H     H_    0.093613 0.416955 0.918890 0.162046
H23   H     H_    0.480679 0.393947 0.837401 0.126771
H24   H     H_    0.071503 0.246732 0.834016 0.140277
H25   H     H_    0.128197 0.293349 0.960252 0.147792
H26   H     H_    0.140671 0.195225 0.692174 0.160177
H27   H     H_    0.167872 0.356857 0.801742 0.205077
H28   H     H_    0.918114 0.899687 0.455271 0.157084
H29   H     H_    0.928151 0.852939 0.267023 0.139212
H30   H     H_    0.878218 0.949129 0.325626 0.145462
H31   H     H_    0.851749 0.707545 0.174533 0.166810
H32   H     H_    0.835326 0.779977 0.354086 0.198785
H33   H     H_    0.650399 0.177051 0.350913 0.125520
H34   H     H_    0.533166 0.579772 0.161170 0.140314
H35   H     H_    0.596380 0.260890 0.345421 0.154138
H36   H     H_    0.632036 0.234189 0.202320 0.129706
H37   H     H_    0.353539 0.832345 0.657574 0.126286
H38   H     H_    0.376392 0.770049 0.799151 0.130992
H39   H     H_    0.406481 0.743140 0.643826 0.153287
H40   H     H_    0.718597 0.239013 0.188943 0.124216
H41   H     H_    0.777303 0.287392 0.301698 0.152065
H42   H     H_    0.735373 0.187571 0.342843 0.132397
H43   H     H_    0.292178 0.770757 0.833921 0.113532
H44   H     H_    0.269779 0.829999 0.689361 0.151949
H45   H     H_    0.247763 0.320382 0.367864 0.142727
H46   H     H_    0.231020 0.728304 0.739493 0.149948
H47   H     H_    0.976073 0.172090 0.362973 0.162377
H48   H     H_    0.035602 0.133694 0.311144 0.156522
H49   H     H_    0.000096 0.018147 0.351769 0.124682
H50   H     H_    0.063589 0.118874 0.558613 0.144961
H51   H     H_    0.007890 0.173708 0.613819 0.129057
H52   H     H_    0.004439 0.448644 0.143059 0.162336
H53   H     H_    0.941245 0.391847 0.063294 0.155385
H54   H     H_    0.977709 0.467087 0.976027 0.131694
H55   H     H_    0.921361 0.618651 0.095611 0.153265
H56   H     H_    0.748947 0.700579 0.642147 0.120584
H57   H     H_    0.981448 0.679903 0.180962 0.128246
H58   H     H_    0.891386 0.355321 0.734816 0.158584
H59   H     H_    0.114774 0.758668 0.392106 0.158827
H60   H     H_    0.977587 0.347752 0.729988 0.104117
N1    N     N_R   0.202908 0.518876 0.526898 -0.396746
N2    N     N_R   0.797698 0.508180 0.493528 -0.399084
N3    N     N_2   0.478780 0.445430 0.137360 -0.220697
N4    N     N_2   0.521220 0.554570 0.862640 -0.227786
O1    O     O_R   0.504520 0.332330 0.577400 -0.499104
O2    O     O_2   0.786251 0.597311 0.311410 -0.517547
O3    O     O_2   0.806078 0.406445 0.665766 -0.503966
O4    O     O_2   0.197991 0.678730 0.421626 -0.510405
O5    O     O_R   0.495480 0.667670 0.422600 -0.494850
O6    O     O_R   0.490210 0.295500 0.332650 -0.508956
O7    O     O_R   0.509790 0.704500 0.667350 -0.515334
O8    O     O_R   0.437420 0.518430 0.622370 -0.493658
O9    O     O_R   0.562580 0.481570 0.377630 -0.501599
O10   O     O_R   0.423110 0.481600 0.377610 -0.498010
O11   O     O_R   0.576890 0.518400 0.622390 -0.497579
O12   O     O_2   0.209127 0.349500 0.616005 -0.529788

loop_
_geom_bond_atom_site_label_1
_geom_bond_atom_site_label_2
_ccdc_geom_bond_type
C51   H31   S    
C46   H14   S    
C34   C56   A    
C23   C45   A    
C35   C53   S    
C36   C42   S    
C25   N3    D    
Cu1   N4    S    
C28   C56   A    
C39   C41   A    
C53   H33   S    
C26   H23   S    
C39   H56   S    
C47   N3    S    
C54   H38   S    
C5    C11   A    
C44   H16   S    
C46   H13   S    
C11   C14   A    
C57   H46   S    
C61   H53   S    
C3    C33   A    
C44   N4    S    
C45   C62   A    
C43   H10   S    
C27   O12   S    
C31   C40   A    
C52   H29   S    
C17   O11   A    
C27   N1    A    
C50   H24   S    
C57   H43   S    
Cu2   O9    S    
C47   C48   S    
C53   H35   S    
C42   H7    S    
C12   O5    A    
C15   C64   A    
C31   C33   A    
C52   H28   S    
C1    O6    A    
C32   C55   S    
C26   N4    D    
C50   H22   S    
Cu2   N3    S    
Cu1   O7    S    
C2    C34   A    
C43   H8    S    
C29   O4    S    
C29   C64   A    
C21   H1    S    
C61   H54   S    
C58   H50   S    
C41   N2    S    
C16   O10   A    
Cu1   O1    S    
C44   C46   S    
C24   H3    S    
C43   H9    S    
C30   N2    A    
C14   H58   S    
C55   H40   S    
C51   C52   S    
C32   C35   A    
C54   H37   S    
C11   H60   S    
C51   C63   S    
C44   H15   S    
C19   C63   A    
C18   C62   A    
C25   C26   S    
C40   N1    S    
C12   C21   S    
C58   H51   S    
C8    C18   A    
C48   H18   S    
C55   H41   S    
C60   C61   S    
C28   O2    S    
C47   H21   S    
C37   C43   S    
C60   H57   S    
C47   H20   S    
C5    C9    A    
C46   H11   S    
Cu1   O11   S    
C25   H34   S    
C57   H44   S    
C53   H36   S    
C32   C41   A    
C30   O3    S    
C42   H6    S    
C56   C63   A    
C17   O9    A    
Cu2   O6    S    
C4    C17   S    
C8    C10   A    
C23   C64   A    
C20   C22   D    
Cu1   Cu2   S    
C7    C19   A    
C29   N1    A    
C9    C34   A    
C10   C23   A    
C22   C24   S    
Cu1   O8    S    
C49   H26   S    
C33   C54   S    
C7    C9    A    
C1    C20   S    
C49   C62   S    
C54   H39   S    
C61   H52   S    
C12   O7    A    
C16   O8    A    
C59   H47   S    
C1    O1    A    
C6    C10   A    
C5    C8    A    
C6    C7    A    
C19   C60   S    
C48   H17   S    
C20   H12   S    
C55   H42   S    
C2    C30   A    
C31   C57   S    
C13   C15   A    
C58   C59   S    
C37   C39   A    
C6    C13   A    
C38   C40   A    
C27   C45   A    
C3    C36   A    
C51   H32   S    
C59   H48   S    
C36   C38   A    
C42   H5    S    
C18   C58   S    
C52   H30   S    
C60   H55   S    
C2    C14   A    
C4    C35   A    
Cu2   O5    S    
C50   H25   S    
Cu2   O10   S    
C4    C37   A    
C59   H49   S    
C49   C50   S    
C15   H59   S    
C21   C24   D    
C48   H19   S    
C49   H27   S    
C38   H45   S    
C22   H4    S    
C3    C16   S    
C28   N2    A    
C13   H2    S    
