data_mof_unit_6145.cif
_audit_creation_date              2012-12-11T17:43:57-0500
_audit_creation_method            fapswitch 2.2
_symmetry_space_group_name_H-M    P1
_symmetry_Int_Tables_number       1
_space_group_crystal_system       triclinic
_cell_length_a                    20.2804
_cell_length_b                    22.658453
_cell_length_c                    6.929025
_cell_angle_alpha                 90.000086
_cell_angle_beta                  86.673705
_cell_angle_gamma                 90.000019
_cell_volume                      3178.67864475

loop_
_atom_site_label
_atom_site_type_symbol
_atom_type_description
_atom_site_fract_x
_atom_site_fract_y
_atom_site_fract_z
_atom_type_partial_charge
O1    O     O_R   0.751270 0.447300 0.600030 -0.516739
O2    O     O_R   0.248730 0.947300 0.399970 -0.516738
O3    O     O_R   0.613530 0.440160 0.952150 -0.536084
O4    O     O_R   0.386470 0.940160 0.047850 -0.536085
O5    O     O_R   0.613050 0.552700 0.122560 -0.540653
O6    O     O_R   0.386950 0.052700 0.877440 -0.540654
C1    C     C_R   0.591137 0.425460 0.787827 0.726468
C2    C     C_R   0.408862 0.925460 0.212173 0.726468
O7    O     O_R   0.750780 0.440350 0.929820 -0.516695
O8    O     O_R   0.249220 0.940350 0.070180 -0.516695
O9    O     O_R   0.751280 0.552900 0.100070 -0.546275
O10   O     O_R   0.248720 0.052900 0.899930 -0.546276
C3    C     C_R   0.773718 0.425743 0.757296 0.812902
C4    C     C_R   0.226282 0.925743 0.242704 0.812901
O11   O     O_R   0.613040 0.447100 0.622520 -0.533825
O12   O     O_R   0.386960 0.947100 0.377480 -0.533825
O13   O     O_3   0.682160 0.536920 0.777780 -0.371273
O14   O     O_3   0.317840 0.036920 0.222220 -0.371273
V1    V     V_3+5 0.682160 0.493150 0.052630 1.552535
V2    V     V_3+5 0.317840 0.993150 0.947370 1.552535
O15   O     O_R   0.750790 0.559840 0.429870 -0.528762
O16   O     O_R   0.249210 0.059840 0.570130 -0.528762
C5    C     C_R   0.771936 0.575975 0.257750 0.775659
C6    C     C_R   0.228064 0.075975 0.742250 0.775659
O17   O     O_R   0.613540 0.559650 0.452200 -0.530178
O18   O     O_R   0.386460 0.059650 0.547800 -0.530178
C7    C     C_R   0.591786 0.574820 0.287383 0.725494
C8    C     C_R   0.408214 0.074820 0.712617 0.725495
V3    V     V_3+5 0.682160 0.506850 0.552630 1.556333
V4    V     V_3+5 0.317840 0.006850 0.447370 1.556333
O19   O     O_3   0.682150 0.463080 0.277610 -0.353532
O20   O     O_3   0.317850 0.963080 0.722390 -0.353532
C9    C     C_R   0.573902 0.857401 0.066354 0.219229
C10   C     C_R   0.426097 0.357402 0.933645 0.219229
H1    H     H_    0.527041 0.941537 0.033282 0.156056
H2    H     H_    0.472958 0.441537 0.966717 0.156056
C11   C     C_R   0.464444 0.882877 0.203518 -0.082307
C12   C     C_R   0.535556 0.382877 0.796482 -0.082308
C13   C     C_R   0.472467 0.597442 0.340816 0.103405
C14   C     C_R   0.527533 0.097442 0.659185 0.103404
C15   C     C_R   0.418560 0.634718 0.325595 -0.107198
C16   C     C_R   0.581440 0.134718 0.674405 -0.107199
C17   C     C_R   0.426649 0.693680 0.270507 0.126879
C18   C     C_R   0.573350 0.193681 0.729493 0.126879
C19   C     C_R   0.491311 0.718508 0.247625 0.043544
C20   C     C_R   0.508689 0.218508 0.752375 0.043544
C21   C     C_R   0.546137 0.678693 0.244750 -0.021686
C22   C     C_R   0.453863 0.178693 0.755251 -0.021686
C23   C     C_R   0.503749 0.780304 0.217173 0.041614
C24   C     C_R   0.496251 0.280304 0.782826 0.041614
C25   C     C_R   0.567380 0.799139 0.141834 0.000575
C26   C     C_R   0.432619 0.299139 0.858165 0.000575
C27   C     C_R   0.621065 0.759166 0.148330 0.206547
C28   C     C_R   0.378934 0.259167 0.851670 0.206547
C29   C     C_R   0.609851 0.700476 0.200188 -0.170376
C30   C     C_R   0.390149 0.200476 0.799813 -0.170376
C31   C     C_R   0.455902 0.824426 0.266612 -0.154757
C32   C     C_R   0.544098 0.324426 0.733388 -0.154757
C33   C     C_R   0.522444 0.897952 0.097145 -0.150401
C34   C     C_R   0.477556 0.397952 0.902854 -0.150401
C35   C     C_R   0.536430 0.617817 0.290124 -0.120490
C36   C     C_R   0.463570 0.117817 0.709877 -0.120490
H3    H     H_    0.411798 0.814039 0.354301 0.151592
H4    H     H_    0.588202 0.314039 0.645698 0.151592
H5    H     H_    0.369293 0.616663 0.348255 0.186889
H6    H     H_    0.630707 0.116663 0.651746 0.186889
H7    H     H_    0.652298 0.671739 0.207181 0.128767
H8    H     H_    0.347702 0.171739 0.792820 0.128767
C37   C     C_R   0.171557 0.881289 0.260816 -0.145661
C38   C     C_R   0.828443 0.381289 0.739184 -0.145661
C39   C     C_R   0.162110 0.840173 0.110183 0.176248
C40   C     C_R   0.837889 0.340173 0.889816 0.176248
C41   C     C_R   0.110528 0.797435 0.130371 0.274258
C42   C     C_R   0.889473 0.297435 0.869628 0.274253
C43   C     C_R   0.065122 0.799580 0.292951 0.339713
C44   C     C_R   0.934879 0.299580 0.707049 0.339712
C45   C     C_R   0.075284 0.839943 0.440392 -0.314554
C46   C     C_R   0.924717 0.339943 0.559607 -0.314552
C47   C     C_R   0.127778 0.880566 0.427342 0.258504
C48   C     C_R   0.872222 0.380566 0.572658 0.258504
C49   C     C_R   0.887544 0.704780 0.367318 0.290467
C50   C     C_R   0.112456 0.204780 0.632683 0.290467
C51   C     C_R   0.833207 0.665087 0.385548 0.028374
C52   C     C_R   0.166793 0.165087 0.614453 0.028375
C53   C     C_R   0.931441 0.703003 0.200120 0.350585
C54   C     C_R   0.068559 0.203003 0.799880 0.350584
N1    N     N_2   0.011013 0.759549 0.321757 -0.177037
N2    N     N_2   0.988988 0.259549 0.678242 -0.177037
N3    N     N_2   0.986156 0.742599 0.170542 -0.141581
N4    N     N_2   0.013844 0.242599 0.829458 -0.141579
C55   C     C_R   0.824889 0.621702 0.240768 -0.152982
C56   C     C_R   0.175111 0.121702 0.759232 -0.152983
H9    H     H_    0.041266 0.839922 0.566951 0.188303
H10   H     H_    0.958735 0.339922 0.433049 0.188303
C57   C     C_R   0.867955 0.621896 0.074756 -0.314324
C58   C     C_R   0.132046 0.121897 0.925245 -0.314324
C59   C     C_R   0.920103 0.662634 0.052241 0.314399
C60   C     C_R   0.079897 0.162634 0.947759 0.314398
H11   H     H_    0.861364 0.589734 0.961750 0.158659
H12   H     H_    0.138636 0.089734 0.038250 0.158659
O21   O     O_3   0.896738 0.747797 0.504392 -0.586333
H13   H     H_    0.879122 0.733569 0.631973 0.344890
O22   O     O_3   0.103263 0.247797 0.495609 -0.586333
H14   H     H_    0.120878 0.233569 0.368028 0.344891
O23   O     O_3   0.135650 0.921119 0.573328 -0.624901
H15   H     H_    0.101327 0.914469 0.678944 0.300489
O24   O     O_3   0.864350 0.421119 0.426672 -0.624901
H16   H     H_    0.898673 0.414468 0.321054 0.300488
O25   O     O_3   0.105342 0.751927 0.999394 -0.594768
H17   H     H_    0.149771 0.742859 0.939978 0.327796
O26   O     O_3   0.894658 0.251927 0.000606 -0.594768
H18   H     H_    0.850229 0.242858 0.060013 0.327797
O27   O     O_3   0.961961 0.663127 0.887659 -0.593700
H19   H     H_    0.947096 0.632970 0.795959 0.303813
O28   O     O_3   0.038039 0.163127 0.112341 -0.593700
H20   H     H_    0.052904 0.132970 0.204041 0.303813
O29   O     O_3   0.204204 0.842060 0.946223 -0.610148
H21   H     H_    0.180063 0.828205 0.834533 0.315621
O30   O     O_3   0.795794 0.342059 0.053774 -0.610146
H22   H     H_    0.819934 0.328204 0.165465 0.315623
I1    I     I_    0.723045 0.782565 0.140783 -0.222429
I2    I     I_    0.276955 0.282565 0.859217 -0.222429
I3    I     I_    0.647385 0.885593 0.854121 -0.196302
I4    I     I_    0.352614 0.385594 0.145876 -0.196301
I5    I     I_    0.453329 0.508946 0.428554 -0.340265
I6    I     I_    0.546670 0.008945 0.571448 -0.340265
I7    I     I_    0.338046 0.732146 0.173545 -0.366317
I8    I     I_    0.661954 0.232146 0.826454 -0.366318
I9    I     I_    0.759147 0.678547 0.616617 -0.324072
I10   I     I_    0.240853 0.178546 0.383383 -0.324071

loop_
_geom_bond_atom_site_label_1
_geom_bond_atom_site_label_2
_ccdc_geom_bond_type
O21   H13   S    
C13   I5    S    
O13   V3    S    
O26   H18   S    
O4    C2    A    
V1    O19   S    
C23   C31   A    
C13   C15   A    
C49   O21   S    
C48   O24   S    
O9    V1    S    
C42   C44   A    
O16   C6    A    
C44   C46   A    
C51   I9    S    
O3    C1    A    
C46   C48   A    
C3    C38   S    
C57   H11   S    
O12   V4    S    
O28   H20   S    
C56   C58   A    
C14   C36   A    
C47   O23   S    
O17   V3    S    
H1    C33   S    
C45   H9    S    
C37   C39   A    
O7    C3    A    
C7    C35   S    
O5    C7    A    
O7    V1    S    
O6    C8    A    
C18   C20   A    
C23   C25   A    
C58   C60   A    
C24   C26   A    
C50   O22   S    
O3    V1    S    
O14   V4    S    
C44   N2    S    
C27   C29   A    
C28   I2    S    
C2    O12   A    
C12   C32   A    
C10   C34   A    
C15   C17   A    
C16   C18   A    
O2    C4    A    
C6    C56   S    
C49   C51   A    
C26   C28   A    
O11   V3    S    
C20   C22   A    
C19   C21   A    
C32   H4    S    
C13   C35   A    
C28   C30   A    
C38   C40   A    
C39   O29   S    
C38   C48   A    
C24   C32   A    
C16   H6    S    
C40   C42   A    
C54   N4    S    
C17   I7    S    
C42   O26   S    
C39   C41   A    
C53   N3    S    
C15   H5    S    
C1    O11   A    
C50   C54   A    
O15   V3    S    
C9    C25   A    
C25   C27   A    
C43   C45   A    
C22   C36   A    
C19   C23   A    
O24   H16   S    
C14   I6    S    
O10   V2    S    
O1    V3    S    
C45   C47   A    
C17   C19   A    
C11   C33   A    
C12   C34   A    
C43   N1    S    
C52   I10   S    
N2    N4    D    
O18   V4    S    
C50   C52   A    
O15   C5    A    
O8    C4    A    
C4    C37   S    
C5    C55   S    
C37   C47   A    
O1    C3    A    
C2    C11   S    
C41   C43   A    
C59   O27   S    
C51   C55   A    
C21   C29   A    
O27   H19   S    
V2    O20   S    
C22   C30   A    
O10   C6    A    
C18   I8    S    
C10   I4    S    
O16   V4    S    
O18   C8    A    
C31   H3    S    
C14   C16   A    
H2    C34   S    
C21   C35   A    
C29   H7    S    
O30   H22   S    
C57   C59   A    
C41   O25   S    
O5    V1    S    
O17   C7    A    
O6    V2    S    
O23   H15   S    
C20   C24   A    
C10   C26   A    
O2    V4    S    
N1    N3    D    
V3    O19   S    
C30   H8    S    
O29   H21   S    
V4    O20   S    
C60   O28   S    
O8    V2    S    
C46   H10   S    
C58   H12   S    
C40   O30   S    
O9    C5    A    
O13   V1    S    
C1    C12   S    
O14   V2    S    
C54   C60   A    
C11   C31   A    
C53   C59   A    
C55   C57   A    
O4    V2    S    
C9    C33   A    
O22   H14   S    
C9    I3    S    
C27   I1    S    
C52   C56   A    
O25   H17   S    
C49   C53   A    
C8    C36   S    
