data_mof_unit_40513.cif
_audit_creation_date              2012-12-11T15:48:57-0500
_audit_creation_method            fapswitch 2.2
_symmetry_space_group_name_H-M    P1
_symmetry_Int_Tables_number       1
_space_group_crystal_system       triclinic
_cell_length_a                    10.983539
_cell_length_b                    10.923329
_cell_length_c                    18.78872
_cell_angle_alpha                 90.000893
_cell_angle_beta                  89.535654
_cell_angle_gamma                 60.534504
_cell_volume                      1962.54803792

loop_
_atom_site_label
_atom_site_type_symbol
_atom_type_description
_atom_site_fract_x
_atom_site_fract_y
_atom_site_fract_z
_atom_type_partial_charge
C1    C     C_R   0.241764 0.643758 0.611391 0.542579
C2    C     C_R   0.535269 0.238082 0.725112 -0.121439
C3    C     C_R   0.547697 0.233441 0.798606 -0.084379
C4    C     C_R   0.653321 0.621976 0.601024 0.535199
C5    C     C_3   0.935759 0.043672 0.779478 -0.207335
C6    C     C_3   0.919637 0.059217 0.699309 0.237759
C7    C     C_R   0.650875 0.202241 0.680455 -0.010762
C8    C     C_R   0.199773 0.659893 0.838891 0.029202
C9    C     C_R   0.221380 0.539876 0.800882 0.014225
C10   C     C_R   0.228274 0.536817 0.726943 0.017371
C11   C     C_R   0.219344 0.760358 0.727360 -0.179680
C12   C     C_3   0.773545 0.527745 0.792012 0.187802
C13   C     C_R   0.220568 0.759386 0.801569 -0.173372
C14   C     C_3   0.148848 0.455199 0.802721 -0.282674
C15   C     C_3   0.151274 0.456172 0.721831 -0.279506
C16   C     C_R   0.624620 0.234162 0.604766 0.550741
C17   C     C_R   0.214218 0.652730 0.688371 0.004583
C18   C     C_R   0.656080 0.679071 0.170367 0.000587
C19   C     C_R   0.709314 0.546616 0.201337 -0.066386
C20   C     C_R   0.712543 0.533719 0.273979 -0.042533
C21   C     C_R   0.597862 0.784979 0.289623 0.074495
C22   C     C_R   0.593673 0.799462 0.215307 0.351849
C23   C     C_3   0.715305 0.686653 0.808489 0.087930
C24   C     C_3   0.847617 0.414434 0.192739 -0.253676
C25   C     C_3   0.853044 0.404696 0.272971 -0.236055
C26   C     C_R   0.661281 0.650277 0.319332 -0.034287
C27   C     C_R   0.655222 0.168447 0.172800 0.003556
C28   C     C_R   0.215226 0.653263 0.404114 0.539257
C29   C     C_R   0.526079 0.276620 0.194832 -0.063419
C30   C     C_R   0.504142 0.315752 0.265501 -0.092862
C31   C     C_R   0.743561 0.146579 0.292386 0.391443
C32   C     C_R   0.766947 0.109389 0.221418 0.376613
C33   C     C_3   0.384359 0.292224 0.186568 -0.237156
C34   C     C_3   0.673757 0.651501 0.675355 -0.038012
C35   C     C_3   0.361618 0.331870 0.264528 -0.247605
C36   C     C_R   0.609781 0.248156 0.315172 -0.010442
C37   C     C_R   0.111598 0.689354 0.189257 0.031690
C38   C     C_R   0.179227 0.754574 0.218290 0.110527
C39   C     C_R   0.195975 0.755201 0.289285 0.110570
C40   C     C_R   0.644773 0.623835 0.393319 0.550517
C41   C     C_R   0.057932 0.642116 0.309330 -0.145717
C42   C     C_R   0.037216 0.645619 0.235090 -0.133759
C43   C     C_3   0.318295 0.738257 0.200370 -0.303119
C44   C     C_3   0.338049 0.738871 0.279797 -0.261814
C45   C     C_3   0.752241 0.735384 0.679171 -0.209148
C46   C     C_R   0.149646 0.686431 0.335343 0.043088
C47   C     C_R   0.701355 0.105042 0.897160 0.575588
C48   C     C_R   0.747402 0.705231 0.882788 0.604403
C49   C     C_R   0.121040 0.704784 0.906382 0.536861
C50   C     C_R   0.676192 0.106287 0.103635 0.596568
C51   C     C_R   0.697072 0.691855 0.098376 0.583188
C52   C     C_R   0.582707 0.290772 0.388189 0.578915
C53   C     C_R   0.081835 0.714650 0.115197 0.571897
C54   C     C_3   0.555606 0.762891 0.793274 -0.184780
C55   C     C_3   0.532066 0.734492 0.715731 -0.243615
C56   C     C_3   0.759184 0.507692 0.713512 -0.189419
C57   C     C_3   0.781628 0.751906 0.757859 0.151026
C58   C     C_R   0.679777 0.179387 0.829714 0.096078
C59   C     C_R   0.790739 0.162952 0.785948 0.038131
C60   C     C_R   0.775558 0.177090 0.712356 0.068180
Cr1   Cr    Cr6+3 0.392960 0.397920 0.502240 1.039864
Cr2   Cr    Cr6+3 0.398340 0.708480 0.501250 1.067802
Cr3   Cr    Cr6+3 0.708670 0.393570 0.496460 1.095929
Cr4   Cr    Cr6+3 0.937650 0.938540 0.007610 1.066981
Cr5   Cr    Cr6+3 0.625330 0.937370 0.994520 1.070727
Cr6   Cr    Cr6+3 0.937940 0.625230 0.001190 1.018658
F1    F     F_    0.004063 0.106633 0.669028 -0.636219
F2    F     F_    0.539565 0.930463 0.187881 -0.631340
F3    F     F_    0.849840 0.077226 0.338937 -0.575623
F4    F     F_    0.895994 0.005609 0.202224 -0.593549
F5    F     F_    0.727289 0.893434 0.773165 -0.685576
F6    F     F_    0.701601 0.476058 0.831693 -0.645134
H1    H     H_    0.508371 0.878345 0.801613 0.173706
H2    H     H_    0.223449 0.846180 0.700789 0.190270
H3    H     H_    0.501035 0.725771 0.830212 0.171194
H4    H     H_    0.218379 0.847812 0.828796 0.134188
H5    H     H_    0.044311 0.514119 0.826832 0.147317
H6    H     H_    0.214632 0.348987 0.825524 0.134749
H7    H     H_    0.212606 0.349905 0.698124 0.156869
H8    H     H_    0.047322 0.517719 0.697676 0.115047
H9    H     H_    0.933412 0.429136 0.170545 0.163928
H10   H     H_    0.836365 0.328862 0.167103 0.157618
H11   H     H_    0.851115 0.311281 0.293937 0.193692
H12   H     H_    0.865747 0.446772 0.689509 0.138575
H13   H     H_    0.480496 0.669218 0.715602 0.152196
H14   H     H_    0.935448 0.423142 0.296247 0.142934
H15   H     H_    0.385518 0.192010 0.175150 0.233965
H16   H     H_    0.317326 0.380806 0.150854 0.128535
H17   H     H_    0.284207 0.441311 0.273266 0.138370
H18   H     H_    0.349171 0.255915 0.298642 0.199020
H19   H     H_    0.013021 0.595901 0.344382 0.126522
H20   H     H_    0.967820 0.611409 0.213756 0.130159
H21   H     H_    0.310064 0.832464 0.173286 0.187794
H22   H     H_    0.462716 0.836068 0.688982 0.150464
H23   H     H_    0.895508 0.702005 0.766021 0.104051
H24   H     H_    0.389680 0.635501 0.174566 0.123734
H25   H     H_    0.421018 0.636354 0.300259 0.126254
H26   H     H_    0.338928 0.834199 0.299296 0.194315
H27   H     H_    0.687545 0.840636 0.654710 0.183111
H28   H     H_    0.885174 0.462626 0.805332 0.138274
H29   H     H_    0.705845 0.444593 0.706821 0.187148
H30   H     H_    0.851187 0.682156 0.647936 0.085779
H31   H     H_    0.435316 0.266203 0.703063 0.143364
H32   H     H_    0.457062 0.253862 0.830355 0.127330
H33   H     H_    0.943826 0.944142 0.799221 0.150288
H34   H     H_    0.013175 0.071115 0.801149 0.159186
H35   H     H_    0.923400 0.967575 0.671417 0.137470
I1    I     I_    0.516892 0.966224 0.355119 -0.270269
O1    O     O_R   0.507380 0.255700 0.581440 -0.516149
O2    O     O_R   0.837170 0.593410 0.915250 -0.512523
O3    O     O_R   0.065200 0.635530 0.931570 -0.522486
O4    O     O_R   0.280320 0.527350 0.578930 -0.502720
O5    O     O_R   0.068260 0.828890 0.091840 -0.457420
O6    O     O_R   0.798870 0.057410 0.079340 -0.460485
O7    O     O_R   0.584930 0.080350 0.076780 -0.482301
O8    O     O_R   0.626960 0.809650 0.067060 -0.439045
O9    O     O_R   0.816040 0.596610 0.076510 -0.532522
O10   O     O_R   0.045610 0.638500 0.081060 -0.529950
O11   O     O_3   0.833640 0.833710 0.001100 -0.279141
O12   O     O_R   0.524480 0.695810 0.424040 -0.489625
O13   O     O_R   0.260510 0.739590 0.584590 -0.499390
O14   O     O_R   0.532300 0.695080 0.573820 -0.499905
O15   O     O_R   0.744840 0.503500 0.576370 -0.510164
O16   O     O_R   0.699120 0.276560 0.571960 -0.463886
O17   O     O_R   0.498940 0.256500 0.419860 -0.478660
O18   O     O_R   0.272500 0.528080 0.429150 -0.530958
O19   O     O_R   0.252060 0.740380 0.423010 -0.486315
O20   O     O_R   0.736390 0.504290 0.414790 -0.521234
O21   O     O_R   0.691300 0.277290 0.422170 -0.434397
O22   O     O_3   0.499990 0.499990 0.499980 -0.307458
O23   O     O_R   0.089400 0.825690 0.930570 -0.531246
O24   O     O_R   0.818460 0.054440 0.929850 -0.510669
O25   O     O_R   0.606060 0.077150 0.915510 -0.518163
O26   O     O_R   0.646550 0.806680 0.917570 -0.492322

loop_
_geom_bond_atom_site_label_1
_geom_bond_atom_site_label_2
_ccdc_geom_bond_type
C3    H32   S    
C48   O2    A    
C21   C26   A    
C34   C56   S    
C8    C13   A    
C27   C29   A    
C41   C42   A    
Cr2   O22   S    
C2    C7    A    
C43   C44   S    
Cr1   O1    S    
Cr3   O16   S    
C5    H33   S    
C49   O23   A    
C12   C23   S    
C45   C57   S    
C37   C38   A    
Cr4   O11   S    
C30   C35   S    
C52   O21   A    
C48   O26   A    
C33   H16   S    
C56   H29   S    
C18   C19   A    
C10   C15   S    
C31   C36   A    
C1    O4    A    
C5    C6    S    
Cr3   O22   S    
C20   C25   S    
C10   C17   A    
C40   O20   A    
C29   C33   S    
C50   O7    A    
C14   H5    S    
C37   C42   A    
C24   H10   S    
C51   O9    A    
C44   H26   S    
C15   H7    S    
Cr4   O24   S    
C28   O18   A    
C8    C9    A    
Cr6   O9    S    
C16   O1    A    
C41   C46   A    
C13   H4    S    
Cr1   O18   S    
C23   C48   S    
Cr6   O3    S    
C9    C10   A    
Cr2   O12   S    
Cr5   O26   S    
C36   C52   S    
C27   C50   S    
C49   O3    A    
C37   C53   S    
Cr3   O21   S    
C12   F6    S    
C34   C55   S    
C21   C22   A    
C47   O25   A    
Cr5   O7    S    
C55   H22   S    
C53   O5    A    
C18   C51   S    
C56   H12   S    
C5    H34   S    
C38   C39   A    
C4    C34   S    
Cr4   O6    S    
C5    C59   S    
C6    C60   S    
C24   C25   S    
C45   H27   S    
C9    C14   S    
C53   O10   A    
C32   F4    S    
C58   C59   A    
Cr6   O2    S    
C4    O15   A    
C50   O6    A    
C55   H13   S    
C24   H9    S    
C35   H18   S    
C59   C60   A    
C29   C30   A    
C54   H1    S    
C44   H25   S    
C15   H8    S    
Cr4   O23   S    
C6    H35   S    
C28   C46   S    
C43   H24   S    
Cr5   O11   S    
C4    O14   A    
C34   C45   S    
C57   F5    S    
C22   F2    S    
C12   C56   S    
Cr1   O22   S    
C39   C46   A    
C35   H17   S    
C7    C16   S    
C41   H19   S    
Cr6   O11   S    
C57   H23   S    
Cr5   O8    S    
C7    C60   A    
Cr2   O14   S    
C23   C54   S    
C23   C57   S    
C54   C55   S    
C11   C17   A    
Cr4   O5    S    
C40   O12   A    
C27   C32   A    
C18   C22   A    
C31   C32   A    
Cr3   O20   S    
C11   H2    S    
Cr3   O15   S    
C52   O17   A    
C28   O19   A    
C39   C44   S    
C1    C17   S    
C51   O8    A    
C30   C36   A    
C47   O24   A    
C43   H21   S    
C19   C20   A    
C2    C3    A    
C16   O16   A    
C38   C43   S    
C6    F1    S    
C47   C58   S    
C11   C13   A    
C26   C40   S    
Cr2   O19   S    
C20   C26   A    
C2    H31   S    
C25   H14   S    
C33   C35   S    
C19   C24   S    
C42   H20   S    
C14   H6    S    
C33   H15   S    
C1    O13   A    
C12   H28   S    
C21   I1    S    
C45   H30   S    
C54   H3    S    
C3    C58   A    
C31   F3    S    
Cr6   O10   S    
C25   H11   S    
C14   C15   S    
Cr1   O17   S    
Cr1   O4    S    
C8    C49   S    
Cr2   O13   S    
Cr5   O25   S    
