data_mof_unit_61944.cif
_audit_creation_date              2013-03-05T16:40:02-0500
_audit_creation_method            fapswitch 2.2
_symmetry_space_group_name_H-M    P1
_symmetry_Int_Tables_number       1
_space_group_crystal_system       triclinic
_cell_length_a                    26.346488
_cell_length_b                    39.720903
_cell_length_c                    39.76608
_cell_angle_alpha                 90.061932
_cell_angle_beta                  90.001241
_cell_angle_gamma                 90.017972
_cell_volume                      41615.4266485

loop_
_atom_site_label
_atom_site_type_symbol
_atom_site_description
_atom_site_fract_x
_atom_site_fract_y
_atom_site_fract_z
_atom_type_partial_charge
Zn1   Zn    Zn3+2 0.792910 0.971920 0.221920 1.131609
Zn2   Zn    Zn3+2 0.207090 0.971920 0.778080 1.137651
Zn3   Zn    Zn3+2 0.207090 0.971920 0.221920 1.128425
Zn4   Zn    Zn3+2 0.792910 0.971920 0.778080 1.134834
Zn5   Zn    Zn3+2 0.292910 0.971920 0.721920 1.134062
Zn6   Zn    Zn3+2 0.707090 0.971920 0.278080 1.128289
Zn7   Zn    Zn3+2 0.707090 0.971920 0.721920 1.136762
Zn8   Zn    Zn3+2 0.292910 0.971920 0.278080 1.131424
Zn9   Zn    Zn3+2 0.292910 0.471920 0.221920 1.129100
Zn10  Zn    Zn3+2 0.707090 0.471920 0.778080 1.132220
Zn11  Zn    Zn3+2 0.707090 0.471920 0.221920 1.133744
Zn12  Zn    Zn3+2 0.292910 0.471920 0.778080 1.129901
Zn13  Zn    Zn3+2 0.792910 0.471920 0.721920 1.129949
Zn14  Zn    Zn3+2 0.207090 0.471920 0.278080 1.134085
Zn15  Zn    Zn3+2 0.207090 0.471920 0.721920 1.128951
Zn16  Zn    Zn3+2 0.792910 0.471920 0.278080 1.129181
Zn17  Zn    Zn3+2 0.707090 0.027980 0.221910 1.135013
Zn18  Zn    Zn3+2 0.292910 0.027980 0.778090 1.129700
Zn19  Zn    Zn3+2 0.292910 0.027980 0.221910 1.138269
Zn20  Zn    Zn3+2 0.707090 0.027980 0.778090 1.129906
Zn21  Zn    Zn3+2 0.207090 0.027980 0.721910 1.129661
Zn22  Zn    Zn3+2 0.792910 0.027980 0.278090 1.138227
Zn23  Zn    Zn3+2 0.792910 0.027980 0.721910 1.129493
Zn24  Zn    Zn3+2 0.207090 0.027980 0.278090 1.135012
Zn25  Zn    Zn3+2 0.207090 0.527980 0.221910 1.134305
Zn26  Zn    Zn3+2 0.792910 0.527980 0.778090 1.134820
Zn27  Zn    Zn3+2 0.792910 0.527980 0.221910 1.135347
Zn28  Zn    Zn3+2 0.207090 0.527980 0.778090 1.135273
Zn29  Zn    Zn3+2 0.707090 0.527980 0.721910 1.133493
Zn30  Zn    Zn3+2 0.292910 0.527980 0.278090 1.135734
Zn31  Zn    Zn3+2 0.292910 0.527980 0.721910 1.138759
Zn32  Zn    Zn3+2 0.707090 0.527980 0.278090 1.133995
O1    O     O_3   0.750000 0.999950 0.250000 -0.581708
O2    O     O_3   0.250000 0.999950 0.750000 -0.581289
O3    O     O_3   0.250000 0.999950 0.250000 -0.581739
O4    O     O_3   0.750000 0.999950 0.750000 -0.581266
O5    O     O_3   0.250000 0.499950 0.250000 -0.581870
O6    O     O_3   0.750000 0.499950 0.750000 -0.581500
O7    O     O_3   0.750000 0.499950 0.250000 -0.581631
O8    O     O_3   0.250000 0.499950 0.750000 -0.581611
O9    O     O_R   0.635440 0.980340 0.269560 -0.570091
O10   O     O_R   0.364560 0.980340 0.730440 -0.584583
O11   O     O_R   0.364560 0.980340 0.269560 -0.586303
O12   O     O_R   0.635440 0.980340 0.730440 -0.581227
O13   O     O_R   0.135440 0.980340 0.769560 -0.580626
O14   O     O_R   0.864560 0.980340 0.230440 -0.586374
O15   O     O_R   0.864560 0.980340 0.769560 -0.584115
O16   O     O_R   0.135440 0.980340 0.230440 -0.570183
O17   O     O_R   0.135440 0.480340 0.269560 -0.581416
O18   O     O_R   0.864560 0.480340 0.730440 -0.569559
O19   O     O_R   0.864560 0.480340 0.269560 -0.570255
O20   O     O_R   0.135440 0.480340 0.730440 -0.570929
O21   O     O_R   0.635440 0.480340 0.769560 -0.581409
O22   O     O_R   0.364560 0.480340 0.230440 -0.570787
O23   O     O_R   0.364560 0.480340 0.769560 -0.587470
O24   O     O_R   0.635440 0.480340 0.230440 -0.581734
O25   O     O_R   0.719960 0.019580 0.175120 -0.579955
O26   O     O_R   0.280040 0.019580 0.824880 -0.588888
O27   O     O_R   0.280040 0.019580 0.175120 -0.577681
O28   O     O_R   0.719960 0.019580 0.824880 -0.579764
O29   O     O_R   0.219960 0.019580 0.675120 -0.579590
O30   O     O_R   0.780040 0.019580 0.324880 -0.577981
O31   O     O_R   0.780040 0.019580 0.675120 -0.588736
O32   O     O_R   0.219960 0.019580 0.324880 -0.580114
O33   O     O_R   0.219960 0.519580 0.175120 -0.573020
O34   O     O_R   0.780040 0.519580 0.824880 -0.590069
O35   O     O_R   0.780040 0.519580 0.175120 -0.589834
O36   O     O_R   0.219960 0.519580 0.824880 -0.579684
O37   O     O_R   0.719960 0.519580 0.675120 -0.573887
O38   O     O_R   0.280040 0.519580 0.324880 -0.589436
O39   O     O_R   0.280040 0.519580 0.675120 -0.577732
O40   O     O_R   0.719960 0.519580 0.324880 -0.573897
O41   O     O_R   0.719970 0.074780 0.230320 -0.600785
O42   O     O_R   0.280030 0.074780 0.769680 -0.591799
O43   O     O_R   0.280030 0.074780 0.230320 -0.595317
O44   O     O_R   0.719970 0.074780 0.769680 -0.602461
O45   O     O_R   0.219970 0.074780 0.730320 -0.602462
O46   O     O_R   0.780030 0.074780 0.269680 -0.595551
O47   O     O_R   0.780030 0.074780 0.730320 -0.591778
O48   O     O_R   0.219970 0.074780 0.269680 -0.600976
O49   O     O_R   0.219970 0.574780 0.230320 -0.605634
O50   O     O_R   0.780030 0.574780 0.769680 -0.590327
O51   O     O_R   0.780030 0.574780 0.230320 -0.590112
O52   O     O_R   0.219970 0.574780 0.769680 -0.600567
O53   O     O_R   0.719970 0.574780 0.730320 -0.605685
O54   O     O_R   0.280030 0.574780 0.269680 -0.590194
O55   O     O_R   0.280030 0.574780 0.730320 -0.595339
O56   O     O_R   0.719970 0.574780 0.269680 -0.605849
O57   O     O_R   0.719960 0.925120 0.269570 -0.609415
O58   O     O_R   0.280040 0.925120 0.730430 -0.588010
O59   O     O_R   0.280040 0.925120 0.269570 -0.580519
O60   O     O_R   0.719960 0.925120 0.730430 -0.590524
O61   O     O_R   0.219960 0.925120 0.769570 -0.588834
O62   O     O_R   0.780040 0.925120 0.230430 -0.580668
O63   O     O_R   0.780040 0.925120 0.769570 -0.586400
O64   O     O_R   0.219960 0.925120 0.230430 -0.609516
O65   O     O_R   0.219960 0.425120 0.269570 -0.582990
O66   O     O_R   0.780040 0.425120 0.730430 -0.607066
O67   O     O_R   0.780040 0.425120 0.269570 -0.607521
O68   O     O_R   0.219960 0.425120 0.730430 -0.608646
O69   O     O_R   0.719960 0.425120 0.769570 -0.583843
O70   O     O_R   0.280040 0.425120 0.230430 -0.607259
O71   O     O_R   0.280040 0.425120 0.769570 -0.581497
O72   O     O_R   0.719960 0.425120 0.230430 -0.583032
O73   O     O_R   0.780030 0.980340 0.175130 -0.610387
O74   O     O_R   0.219970 0.980340 0.824870 -0.604964
O75   O     O_R   0.219970 0.980340 0.175130 -0.615878
O76   O     O_R   0.780030 0.980340 0.824870 -0.611082
O77   O     O_R   0.280030 0.980340 0.675130 -0.611385
O78   O     O_R   0.719970 0.980340 0.324870 -0.615766
O79   O     O_R   0.719970 0.980340 0.675130 -0.605263
O80   O     O_R   0.280030 0.980340 0.324870 -0.610261
O81   O     O_R   0.280030 0.480340 0.175130 -0.618115
O82   O     O_R   0.719970 0.480340 0.824870 -0.604875
O83   O     O_R   0.719970 0.480340 0.175130 -0.604457
O84   O     O_R   0.280030 0.480340 0.824870 -0.610438
O85   O     O_R   0.780030 0.480340 0.675130 -0.617387
O86   O     O_R   0.219970 0.480340 0.324870 -0.603775
O87   O     O_R   0.219970 0.480340 0.675130 -0.615900
O88   O     O_R   0.780030 0.480340 0.324870 -0.617478
O89   O     O_R   0.635440 0.019580 0.230320 -0.614621
O90   O     O_R   0.364560 0.019580 0.769680 -0.611194
O91   O     O_R   0.364560 0.019580 0.230320 -0.601761
O92   O     O_R   0.635440 0.019580 0.769680 -0.613484
O93   O     O_R   0.135440 0.019580 0.730320 -0.613555
O94   O     O_R   0.864560 0.019580 0.269680 -0.601946
O95   O     O_R   0.864560 0.019580 0.730320 -0.611177
O96   O     O_R   0.135440 0.019580 0.269680 -0.614761
O97   O     O_R   0.135440 0.519580 0.230320 -0.608461
O98   O     O_R   0.864560 0.519580 0.769680 -0.614483
O99   O     O_R   0.864560 0.519580 0.230320 -0.614070
O100  O     O_R   0.135440 0.519580 0.769680 -0.613046
O101  O     O_R   0.635440 0.519580 0.730320 -0.610097
O102  O     O_R   0.364560 0.519580 0.269680 -0.613772
O103  O     O_R   0.364560 0.519580 0.730320 -0.601469
O104  O     O_R   0.635440 0.519580 0.269680 -0.608762
C1    C     C_R   0.611491 0.000226 0.250165 0.883709
C2    C     C_R   0.388527 0.999699 0.750370 0.864658
C3    C     C_R   0.388512 0.999689 0.249623 0.863842
C4    C     C_R   0.611470 0.000213 0.749847 0.873701
C5    C     C_R   0.111486 0.000217 0.750157 0.873549
C6    C     C_R   0.888528 0.999694 0.250373 0.864736
C7    C     C_R   0.888511 0.999693 0.749624 0.864193
C8    C     C_R   0.111475 0.000220 0.249839 0.884491
C9    C     C_R   0.111472 0.500253 0.250202 0.869928
C10   C     C_R   0.888525 0.499722 0.750342 0.885567
C11   C     C_R   0.888497 0.499742 0.249670 0.884143
C12   C     C_R   0.111473 0.500239 0.749816 0.881287
C13   C     C_R   0.611474 0.500235 0.750180 0.872566
C14   C     C_R   0.388514 0.499744 0.250329 0.884010
C15   C     C_R   0.388500 0.499716 0.749641 0.862915
C16   C     C_R   0.611457 0.500245 0.249807 0.870696
C17   C     C_R   0.749804 0.999785 0.159030 0.957953
C18   C     C_R   0.250195 0.999813 0.841009 0.957530
C19   C     C_R   0.250124 0.999852 0.159069 0.961222
C20   C     C_R   0.749753 0.999774 0.840971 0.959663
C21   C     C_R   0.249783 0.999762 0.659028 0.959909
C22   C     C_R   0.750146 0.999869 0.340930 0.961388
C23   C     C_R   0.750167 0.999799 0.658991 0.957882
C24   C     C_R   0.249777 0.999798 0.340968 0.958001
C25   C     C_R   0.249898 0.499863 0.159074 0.963645
C26   C     C_R   0.750197 0.499817 0.840970 0.956980
C27   C     C_R   0.750169 0.499803 0.159026 0.956990
C28   C     C_R   0.249845 0.499853 0.841003 0.956111
C29   C     C_R   0.749944 0.499915 0.659064 0.961923
C30   C     C_R   0.250150 0.499856 0.341005 0.955787
C31   C     C_R   0.250113 0.499862 0.659071 0.960738
C32   C     C_R   0.749924 0.499933 0.340931 0.962870
C33   C     C_R   0.749871 0.090829 0.250155 0.962287
C34   C     C_R   0.250012 0.090850 0.750017 0.964959
C35   C     C_R   0.249847 0.090828 0.249862 0.962177
C36   C     C_R   0.749999 0.090849 0.750008 0.964916
C37   C     C_R   0.250178 0.590830 0.249858 0.962943
C38   C     C_R   0.750184 0.590830 0.749855 0.963474
C39   C     C_R   0.750155 0.590829 0.250159 0.963569
C40   C     C_R   0.249841 0.590831 0.749857 0.962038
C41   C     C_R   0.750062 0.909053 0.250039 0.963119
C42   C     C_R   0.249964 0.909058 0.749946 0.977740
C43   C     C_R   0.250038 0.909054 0.249945 0.963243
C44   C     C_R   0.750054 0.909057 0.749929 0.977709
C45   C     C_R   0.249979 0.409054 0.249963 0.961983
C46   C     C_R   0.750034 0.409072 0.750016 0.962462
C47   C     C_R   0.749957 0.409054 0.250020 0.962132
C48   C     C_R   0.249980 0.409071 0.750000 0.963178
C49   C     C_R   0.754660 0.680402 0.282957 0.329946
C50   C     C_R   0.245804 0.680365 0.717125 0.330201
C51   C     C_R   0.249510 0.681868 0.278316 0.328431
C52   C     C_R   0.754783 0.680335 0.717075 0.330225
C53   C     C_R   0.250713 0.681876 0.778311 0.327936
C54   C     C_R   0.749296 0.681826 0.221787 0.328416
C55   C     C_R   0.749497 0.681887 0.778248 0.328140
C56   C     C_R   0.254443 0.680358 0.217129 0.329827
C57   C     C_R   0.250938 0.181813 0.278458 0.328112
C58   C     C_R   0.744956 0.181267 0.719727 0.328710
C59   C     C_R   0.745858 0.180453 0.282826 0.329722
C60   C     C_R   0.255308 0.181247 0.719709 0.328590
C61   C     C_R   0.755591 0.181221 0.780574 0.329214
C62   C     C_R   0.245887 0.180406 0.217272 0.329722
C63   C     C_R   0.244634 0.181241 0.780553 0.329315
C64   C     C_R   0.751034 0.181780 0.221647 0.328151
C65   C     C_R   0.754049 0.644992 0.282262 0.202975
C66   C     C_R   0.246281 0.644957 0.717798 0.201365
C67   C     C_R   0.248993 0.646510 0.279280 0.190491
C68   C     C_R   0.754150 0.644927 0.717767 0.202236
C69   C     C_R   0.251146 0.646516 0.779279 0.190994
C70   C     C_R   0.748727 0.646468 0.220801 0.190195
C71   C     C_R   0.748897 0.646529 0.779231 0.190487
C72   C     C_R   0.253884 0.644951 0.217801 0.202255
C73   C     C_R   0.251328 0.146453 0.279364 0.190329
C74   C     C_R   0.745044 0.145862 0.719506 0.191873
C75   C     C_R   0.746312 0.145043 0.282184 0.202661
C76   C     C_R   0.255136 0.145845 0.719509 0.191753
C77   C     C_R   0.755250 0.145818 0.780677 0.190508
C78   C     C_R   0.246309 0.144998 0.217886 0.202359
C79   C     C_R   0.244894 0.145836 0.780679 0.190538
C80   C     C_R   0.751449 0.146420 0.220712 0.190059
C81   C     C_R   0.751080 0.627938 0.251064 -0.342197
C82   C     C_R   0.248954 0.627942 0.748993 -0.341908
C83   C     C_R   0.251137 0.627938 0.248994 -0.342156
C84   C     C_R   0.751189 0.627937 0.748964 -0.342104
C85   C     C_R   0.249023 0.127935 0.249051 -0.342272
C86   C     C_R   0.750071 0.128011 0.750065 -0.339440
C87   C     C_R   0.749088 0.127939 0.251006 -0.342261
C88   C     C_R   0.250016 0.128011 0.750071 -0.339414
C89   C     C_R   0.752251 0.698655 0.252777 -0.195879
C90   C     C_R   0.248057 0.698661 0.747321 -0.196326
C91   C     C_R   0.252210 0.698652 0.247327 -0.195888
C92   C     C_R   0.752413 0.698653 0.747255 -0.196291
C93   C     C_R   0.248234 0.198649 0.247498 -0.195827
C94   C     C_R   0.750339 0.198768 0.750179 -0.195462
C95   C     C_R   0.748239 0.198657 0.252616 -0.195776
C96   C     C_R   0.249941 0.198768 0.750148 -0.195524
C97   C     C_1   0.752367 0.734862 0.253443 0.242376
C98   C     C_1   0.248024 0.734868 0.746665 0.242729
C99   C     C_1   0.252268 0.734858 0.246674 0.242365
C100  C     C_1   0.752502 0.734862 0.746575 0.242671
C101  C     C_1   0.248228 0.234854 0.246898 0.242332
C102  C     C_1   0.750424 0.234957 0.750237 0.241754
C103  C     C_1   0.748181 0.234863 0.253231 0.242272
C104  C     C_1   0.249912 0.234957 0.750180 0.241775
C105  C     C_1   0.752190 0.765119 0.253368 0.249054
C106  C     C_1   0.248212 0.765125 0.746713 0.250444
C107  C     C_1   0.252066 0.765113 0.246728 0.249138
C108  C     C_1   0.752291 0.765121 0.746606 0.250337
C109  C     C_1   0.248413 0.265109 0.246968 0.249038
C110  C     C_1   0.750434 0.265197 0.750259 0.248928
C111  C     C_1   0.748337 0.265118 0.253140 0.248869
C112  C     C_1   0.249905 0.265196 0.750182 0.248999
C113  C     C_R   0.705393 0.818498 0.249245 0.350966
C114  C     C_R   0.294865 0.818588 0.750971 0.352910
C115  C     C_R   0.297404 0.819230 0.245000 0.353635
C116  C     C_R   0.705466 0.818494 0.750856 0.354315
C117  C     C_R   0.202813 0.819193 0.744743 0.354811
C118  C     C_R   0.797508 0.819255 0.255019 0.353615
C119  C     C_R   0.797513 0.819283 0.744622 0.353285
C120  C     C_R   0.205287 0.818517 0.250769 0.351057
C121  C     C_R   0.202909 0.319134 0.245217 0.355021
C122  C     C_R   0.796333 0.319005 0.753343 0.349824
C123  C     C_R   0.794958 0.318594 0.249063 0.349242
C124  C     C_R   0.203893 0.318935 0.753239 0.351627
C125  C     C_R   0.704263 0.318850 0.747112 0.355266
C126  C     C_R   0.295034 0.318605 0.250947 0.349481
C127  C     C_R   0.295966 0.318918 0.747029 0.353741
C128  C     C_R   0.702836 0.319155 0.254809 0.354981
C129  C     C_R   0.704795 0.853811 0.248156 0.310256
C130  C     C_R   0.295365 0.853907 0.752024 0.309803
C131  C     C_R   0.297036 0.854555 0.245979 0.299215
C132  C     C_R   0.704840 0.853811 0.751926 0.311218
C133  C     C_R   0.203111 0.854518 0.745734 0.310332
C134  C     C_R   0.797119 0.854579 0.253996 0.299143
C135  C     C_R   0.797089 0.854609 0.745630 0.308944
C136  C     C_R   0.204711 0.853834 0.251815 0.310291
C137  C     C_R   0.203158 0.354460 0.246135 0.300578
C138  C     C_R   0.796334 0.354332 0.753296 0.308656
C139  C     C_R   0.795426 0.353910 0.248029 0.308902
C140  C     C_R   0.203806 0.354260 0.753204 0.309660
C141  C     C_R   0.704057 0.354173 0.747013 0.300629
C142  C     C_R   0.295493 0.353926 0.251932 0.308884
C143  C     C_R   0.296086 0.354243 0.746941 0.299825
C144  C     C_R   0.703094 0.354479 0.253841 0.300209
C145  C     C_R   0.750693 0.871996 0.250573 -0.332004
C146  C     C_R   0.249443 0.872007 0.749395 -0.328557
C147  C     C_R   0.250623 0.871996 0.249386 -0.332026
C148  C     C_R   0.750692 0.872006 0.749310 -0.328558
C149  C     C_R   0.249513 0.371995 0.249486 -0.331625
C150  C     C_R   0.750146 0.372041 0.750093 -0.331611
C151  C     C_R   0.749454 0.371996 0.250469 -0.331691
C152  C     C_R   0.249949 0.372040 0.750023 -0.331915
C153  C     C_R   0.751689 0.801317 0.252704 -0.239346
C154  C     C_R   0.248644 0.801327 0.747321 -0.238327
C155  C     C_R   0.251575 0.801313 0.247343 -0.239318
C156  C     C_R   0.751747 0.801325 0.747202 -0.238350
C157  C     C_R   0.248800 0.301309 0.247566 -0.239341
C158  C     C_R   0.750349 0.301374 0.750250 -0.239833
C159  C     C_R   0.748722 0.301316 0.252487 -0.239409
C160  C     C_R   0.249921 0.301374 0.750157 -0.239781
C161  C     C_2   0.526814 0.515074 0.270221 0.285220
C162  C     C_2   0.473037 0.520712 0.735746 0.282878
C163  C     C_2   0.473024 0.520874 0.264060 0.279058
C164  C     C_2   0.526832 0.514847 0.729641 0.288615
C165  C     C_2   0.026896 0.514576 0.770533 0.279191
C166  C     C_2   0.973013 0.520899 0.236040 0.278782
C167  C     C_2   0.973106 0.520553 0.764523 0.283354
C168  C     C_2   0.026804 0.515111 0.229848 0.285266
C169  C     C_2   0.026927 0.014298 0.270748 0.282156
C170  C     C_2   0.973117 0.020362 0.735233 0.281060
C171  C     C_2   0.973131 0.020352 0.264833 0.287821
C172  C     C_2   0.026916 0.014319 0.729280 0.289028
C173  C     C_2   0.526916 0.014358 0.770735 0.288959
C174  C     C_2   0.473130 0.020330 0.235197 0.287885
C175  C     C_2   0.473118 0.020388 0.764792 0.281344
C176  C     C_2   0.526926 0.014265 0.229271 0.282238
C177  C     C_2   0.557373 0.505124 0.244907 0.157718
C178  C     C_2   0.442575 0.494990 0.744762 0.170050
C179  C     C_2   0.442597 0.495076 0.255159 0.162312
C180  C     C_2   0.557369 0.505076 0.755018 0.153847
C181  C     C_2   0.057397 0.505111 0.745006 0.161476
C182  C     C_2   0.942588 0.495087 0.244850 0.162354
C183  C     C_2   0.942606 0.494945 0.755191 0.157283
C184  C     C_2   0.057384 0.505138 0.255122 0.158019
C185  C     C_2   0.057380 0.005043 0.245117 0.157082
C186  C     C_2   0.942575 0.994838 0.744689 0.162355
C187  C     C_2   0.942593 0.994843 0.255283 0.164801
C188  C     C_2   0.057371 0.005015 0.754872 0.162478
C189  C     C_2   0.557362 0.005012 0.745135 0.162166
C190  C     C_2   0.442584 0.994833 0.244714 0.165014
C191  C     C_2   0.442585 0.994851 0.755305 0.161823
C192  C     C_2   0.557390 0.005049 0.254891 0.157276
C193  C     C_R   0.748574 0.965882 0.569674 0.328788
C194  C     C_R   0.250201 0.965784 0.430078 0.328616
C195  C     C_R   0.250135 0.965691 0.569834 0.327979
C196  C     C_R   0.703899 0.997976 0.431084 0.328723
C197  C     C_R   0.203828 0.997869 0.068918 0.329011
C198  C     C_R   0.750064 0.965703 0.930085 0.328115
C199  C     C_R   0.750339 0.965755 0.069845 0.328810
C200  C     C_R   0.248512 0.965947 0.930267 0.328872
C201  C     C_R   0.203584 0.498298 0.568968 0.329649
C202  C     C_R   0.797536 0.500723 0.430833 0.327629
C203  C     C_R   0.797575 0.500388 0.569154 0.328019
C204  C     C_R   0.247997 0.466391 0.430386 0.330712
C205  C     C_R   0.749244 0.466020 0.069750 0.328680
C206  C     C_R   0.252168 0.466421 0.930393 0.328582
C207  C     C_R   0.296593 0.498732 0.068999 0.329572
C208  C     C_R   0.749531 0.466035 0.930160 0.327701
C209  C     C_R   0.749135 0.966983 0.605053 0.191506
C210  C     C_R   0.249968 0.966920 0.394717 0.187994
C211  C     C_R   0.249908 0.966831 0.605207 0.187605
C212  C     C_R   0.703706 0.999838 0.395768 0.184701
C213  C     C_R   0.203643 0.999703 0.104240 0.184728
C214  C     C_R   0.749828 0.966849 0.894717 0.187138
C215  C     C_R   0.750117 0.966894 0.105210 0.187880
C216  C     C_R   0.249110 0.967031 0.894892 0.191046
C217  C     C_R   0.203487 0.499943 0.604298 0.182241
C218  C     C_R   0.797217 0.501308 0.395471 0.184588
C219  C     C_R   0.797259 0.500974 0.604517 0.183368
C220  C     C_R   0.248691 0.467324 0.395015 0.192099
C221  C     C_R   0.749590 0.467059 0.105117 0.187394
C222  C     C_R   0.251387 0.467340 0.895022 0.191475
C223  C     C_R   0.296606 0.500357 0.104331 0.189422
C224  C     C_R   0.749887 0.467077 0.894797 0.186823
C225  C     C_R   0.751606 0.998437 0.621823 -0.345549
C226  C     C_R   0.248121 0.998405 0.378061 -0.341642
C227  C     C_R   0.248189 0.998326 0.621924 -0.342486
C228  C     C_R   0.750225 0.999576 0.377989 -0.333975
C229  C     C_R   0.250173 0.999523 0.122009 -0.334083
C230  C     C_R   0.748084 0.998341 0.878070 -0.342476
C231  C     C_R   0.748217 0.998379 0.121932 -0.341732
C232  C     C_R   0.251684 0.998475 0.878175 -0.345597
C233  C     C_R   0.250061 0.499633 0.622015 -0.334130
C234  C     C_R   0.750466 0.500263 0.377994 -0.335749
C235  C     C_R   0.750496 0.500191 0.621994 -0.336498
C236  C     C_R   0.251479 0.498688 0.378171 -0.344321
C237  C     C_R   0.751617 0.498495 0.121922 -0.342787
C238  C     C_R   0.248537 0.498697 0.878170 -0.344278
C239  C     C_R   0.250019 0.499648 0.122016 -0.336746
C240  C     C_R   0.751719 0.498520 0.878064 -0.343311
C241  C     C_R   0.754045 0.028412 0.602816 0.318247
C242  C     C_R   0.245990 0.028390 0.397088 0.315105
C243  C     C_R   0.246249 0.028296 0.602943 0.314453
C244  C     C_R   0.796544 0.997478 0.395745 0.314160
C245  C     C_R   0.296494 0.997516 0.104237 0.314461
C246  C     C_R   0.746094 0.028305 0.897118 0.314608
C247  C     C_R   0.746053 0.028359 0.102963 0.315232
C248  C     C_R   0.254222 0.028456 0.897233 0.318345
C249  C     C_R   0.296335 0.497683 0.604186 0.314124
C250  C     C_R   0.704442 0.498564 0.396099 0.310282
C251  C     C_R   0.704450 0.498727 0.603877 0.310610
C252  C     C_R   0.254116 0.528761 0.397100 0.319041
C253  C     C_R   0.753739 0.528530 0.103030 0.314227
C254  C     C_R   0.245887 0.528774 0.897091 0.318673
C255  C     C_R   0.203830 0.497261 0.104157 0.314073
C256  C     C_R   0.753657 0.528560 0.897016 0.312883
C257  C     C_R   0.753613 0.027069 0.567576 0.342661
C258  C     C_R   0.246086 0.027016 0.432304 0.343153
C259  C     C_R   0.246340 0.026930 0.567733 0.342099
C260  C     C_R   0.796365 0.995690 0.430986 0.353304
C261  C     C_R   0.296305 0.995765 0.068993 0.353454
C262  C     C_R   0.746195 0.026932 0.932327 0.342189
C263  C     C_R   0.746140 0.026983 0.067746 0.343172
C264  C     C_R   0.253755 0.027128 0.932471 0.342759
C265  C     C_R   0.296060 0.496119 0.568936 0.353455
C266  C     C_R   0.705098 0.498083 0.431373 0.348254
C267  C     C_R   0.705105 0.498267 0.568602 0.348214
C268  C     C_R   0.253550 0.527572 0.432346 0.345114
C269  C     C_R   0.753526 0.527253 0.067810 0.342653
C270  C     C_R   0.246544 0.527598 0.932338 0.343325
C271  C     C_R   0.204170 0.495729 0.068908 0.351098
C272  C     C_R   0.753424 0.527282 0.932234 0.341922
C273  C     C_R   0.750740 0.995885 0.551099 -0.216678
C274  C     C_R   0.248326 0.995790 0.448723 -0.226445
C275  C     C_R   0.248398 0.995705 0.551249 -0.226957
C276  C     C_R   0.750133 0.995900 0.448547 -0.215460
C277  C     C_R   0.250064 0.995910 0.051441 -0.215510
C278  C     C_R   0.748309 0.995710 0.948738 -0.227107
C279  C     C_R   0.748403 0.995759 0.051264 -0.226623
C280  C     C_R   0.250750 0.995955 0.948892 -0.216963
C281  C     C_R   0.249777 0.496401 0.551435 -0.218199
C282  C     C_R   0.751557 0.499172 0.448663 -0.226350
C283  C     C_R   0.751577 0.499113 0.551318 -0.227255
C284  C     C_R   0.250353 0.496469 0.448888 -0.216170
C285  C     C_R   0.751172 0.496076 0.051249 -0.226594
C286  C     C_R   0.249834 0.496504 0.948887 -0.217010
C287  C     C_R   0.250463 0.496444 0.051434 -0.215829
C288  C     C_R   0.751247 0.496096 0.948727 -0.227004
C289  C     C_1   0.750399 0.994911 0.514935 0.246025
C290  C     C_1   0.248389 0.994725 0.484873 0.237150
C291  C     C_1   0.248413 0.994683 0.515096 0.236907
C292  C     C_1   0.750217 0.994978 0.484710 0.245493
C293  C     C_1   0.250147 0.995032 0.015277 0.245740
C294  C     C_1   0.748382 0.994676 0.984889 0.236990
C295  C     C_1   0.748412 0.994701 0.015111 0.237238
C296  C     C_1   0.250357 0.994987 0.985052 0.246075
C297  C     C_1   0.249778 0.495640 0.515271 0.245631
C298  C     C_1   0.751954 0.499019 0.484868 0.236529
C299  C     C_1   0.751965 0.499001 0.515112 0.236033
C300  C     C_1   0.249955 0.495610 0.485048 0.248237
C301  C     C_1   0.751113 0.495115 0.015097 0.237100
C302  C     C_1   0.250306 0.495657 0.985047 0.246023
C303  C     C_1   0.250505 0.495691 0.015270 0.246045
C304  C     C_1   0.751137 0.495125 0.984877 0.236804
Cl1   Cl    Cl    0.760713 0.701970 0.321693 -0.361248
Cl2   Cl    Cl    0.240119 0.701878 0.678380 -0.350687
Cl3   Cl    Cl    0.244074 0.705272 0.316049 -0.348546
Cl4   Cl    Cl    0.760806 0.701818 0.678335 -0.354572
Cl5   Cl    Cl    0.256198 0.705280 0.816043 -0.351276
Cl6   Cl    Cl    0.743606 0.705175 0.184086 -0.347625
Cl7   Cl    Cl    0.743885 0.705314 0.815955 -0.348713
Cl8   Cl    Cl    0.260204 0.701871 0.178389 -0.359130
Cl9   Cl    Cl    0.256528 0.205147 0.316226 -0.349902
Cl10  Cl    Cl    0.735562 0.203851 0.681887 -0.359338
Cl11  Cl    Cl    0.740024 0.202086 0.321541 -0.362623
Cl12  Cl    Cl    0.264790 0.203800 0.681857 -0.355659
Cl13  Cl    Cl    0.765129 0.203734 0.818489 -0.345922
Cl14  Cl    Cl    0.240145 0.201987 0.178568 -0.359525
Cl15  Cl    Cl    0.235126 0.203788 0.818451 -0.348905
Cl16  Cl    Cl    0.756702 0.205065 0.183904 -0.347591
Cl17  Cl    Cl    0.756374 0.064758 0.543908 -0.347584
Cl18  Cl    Cl    0.243687 0.064763 0.455898 -0.315538
Cl19  Cl    Cl    0.244168 0.064693 0.544224 -0.317125
Cl20  Cl    Cl    0.854389 0.993079 0.453239 -0.357130
Cl21  Cl    Cl    0.354331 0.993286 0.046720 -0.356159
Cl22  Cl    Cl    0.743977 0.064684 0.955921 -0.314883
Cl23  Cl    Cl    0.743684 0.064728 0.044232 -0.313645
Cl24  Cl    Cl    0.256631 0.064821 0.956209 -0.344717
Cl25  Cl    Cl    0.354030 0.493699 0.546592 -0.340038
Cl26  Cl    Cl    0.647344 0.495934 0.453960 -0.323395
Cl27  Cl    Cl    0.647326 0.496456 0.546004 -0.318008
Cl28  Cl    Cl    0.256572 0.565347 0.455941 -0.337958
Cl29  Cl    Cl    0.755943 0.565059 0.044383 -0.314455
Cl30  Cl    Cl    0.243515 0.565377 0.955925 -0.344069
Cl31  Cl    Cl    0.146274 0.492788 0.046534 -0.355662
Cl32  Cl    Cl    0.755574 0.565093 0.955742 -0.315576
N1    N     N_R   0.758146 0.626429 0.313139 0.260419
O105  O     O_R   0.726135 0.631705 0.337491 -0.230727
O106  O     O_R   0.793643 0.603973 0.316909 -0.323195
N2    N     N_R   0.242352 0.626358 0.686892 0.261038
O107  O     O_R   0.274599 0.631541 0.662665 -0.223046
O108  O     O_R   0.206776 0.603960 0.682975 -0.327548
N3    N     N_R   0.243860 0.629555 0.310926 0.269533
O109  O     O_R   0.275594 0.635666 0.335245 -0.190064
O110  O     O_R   0.206500 0.608695 0.315810 -0.317821
N4    N     N_R   0.758203 0.626300 0.686886 0.260471
O111  O     O_R   0.726164 0.631529 0.662551 -0.229878
O112  O     O_R   0.793682 0.603826 0.683100 -0.322951
N5    N     N_R   0.256249 0.629560 0.810925 0.269438
O113  O     O_R   0.224548 0.635699 0.835252 -0.193511
O114  O     O_R   0.293561 0.608676 0.815805 -0.315447
N6    N     N_R   0.743310 0.629467 0.189166 0.269434
O115  O     O_R   0.774844 0.635523 0.164733 -0.189837
O116  O     O_R   0.705875 0.608627 0.184409 -0.317784
N7    N     N_R   0.743487 0.629593 0.810866 0.269399
O117  O     O_R   0.775088 0.635644 0.835276 -0.190163
O118  O     O_R   0.706023 0.608789 0.815636 -0.318724
N8    N     N_R   0.257815 0.626350 0.186897 0.260803
O119  O     O_R   0.225622 0.631555 0.162646 -0.228257
O120  O     O_R   0.293347 0.603932 0.183004 -0.322225
N9    N     N_R   0.256535 0.129438 0.310970 0.269391
O121  O     O_R   0.224873 0.135492 0.335341 -0.193332
O122  O     O_R   0.293881 0.108560 0.315759 -0.314355
N10   N     N_R   0.738213 0.128141 0.688381 0.268527
O123  O     O_R   0.767093 0.134849 0.662714 -0.191200
O124  O     O_R   0.702092 0.106001 0.685304 -0.326589
N11   N     N_R   0.742259 0.126534 0.313096 0.260788
O125  O     O_R   0.774398 0.131794 0.337381 -0.225628
O126  O     O_R   0.706676 0.104140 0.316964 -0.329459
N12   N     N_R   0.262049 0.128103 0.688410 0.268420
O127  O     O_R   0.233210 0.134755 0.662708 -0.192594
O128  O     O_R   0.298249 0.106028 0.685383 -0.321572
N13   N     N_R   0.762046 0.128046 0.811733 0.268336
O129  O     O_R   0.733183 0.134727 0.837428 -0.191189
O130  O     O_R   0.798162 0.105913 0.814730 -0.321643
N14   N     N_R   0.242293 0.126450 0.186954 0.260889
O131  O     O_R   0.274484 0.131662 0.162701 -0.224604
O132  O     O_R   0.206701 0.104061 0.183042 -0.329221
N15   N     N_R   0.238153 0.128086 0.811758 0.268409
O133  O     O_R   0.267008 0.134844 0.837442 -0.189573
O134  O     O_R   0.202134 0.105872 0.814783 -0.326779
N16   N     N_R   0.756724 0.129365 0.189097 0.269420
O135  O     O_R   0.725140 0.135412 0.164692 -0.192419
O136  O     O_R   0.794074 0.108476 0.184329 -0.314194
Cl33  Cl    Cl    0.647900 0.795694 0.246002 -0.342677
Cl34  Cl    Cl    0.352377 0.795882 0.754499 -0.338311
Cl35  Cl    Cl    0.355514 0.797348 0.240642 -0.340963
Cl36  Cl    Cl    0.648034 0.795674 0.754380 -0.339772
Cl37  Cl    Cl    0.144792 0.797249 0.740069 -0.338209
Cl38  Cl    Cl    0.855631 0.797404 0.259404 -0.340930
Cl39  Cl    Cl    0.855609 0.797456 0.739935 -0.336981
Cl40  Cl    Cl    0.147781 0.795739 0.254032 -0.342474
Cl41  Cl    Cl    0.144866 0.297136 0.240917 -0.342894
Cl42  Cl    Cl    0.854156 0.296762 0.757509 -0.340765
Cl43  Cl    Cl    0.852534 0.295911 0.245806 -0.341679
Cl44  Cl    Cl    0.146120 0.296606 0.757387 -0.342229
Cl45  Cl    Cl    0.646558 0.296413 0.743061 -0.342713
Cl46  Cl    Cl    0.352617 0.295940 0.254219 -0.341529
Cl47  Cl    Cl    0.353725 0.296568 0.742983 -0.340876
Cl48  Cl    Cl    0.644789 0.297179 0.259145 -0.343329
Cl49  Cl    Cl    0.646376 0.874997 0.242312 -0.355498
Cl50  Cl    Cl    0.353669 0.875218 0.758070 -0.338266
Cl51  Cl    Cl    0.354891 0.876743 0.241392 -0.353458
Cl52  Cl    Cl    0.646467 0.874999 0.757989 -0.353691
Cl53  Cl    Cl    0.145302 0.876656 0.740831 -0.355330
Cl54  Cl    Cl    0.854957 0.876799 0.258556 -0.353464
Cl55  Cl    Cl    0.854821 0.876867 0.740736 -0.339504
Cl56  Cl    Cl    0.146307 0.875058 0.257627 -0.355434
Cl57  Cl    Cl    0.145227 0.376526 0.241535 -0.370210
Cl58  Cl    Cl    0.854326 0.376172 0.758753 -0.341012
Cl59  Cl    Cl    0.853775 0.375228 0.242235 -0.339626
Cl60  Cl    Cl    0.145761 0.376007 0.758659 -0.358110
Cl61  Cl    Cl    0.645916 0.375795 0.741549 -0.370617
Cl62  Cl    Cl    0.353837 0.375272 0.257681 -0.339871
Cl63  Cl    Cl    0.354180 0.375957 0.741497 -0.352913
Cl64  Cl    Cl    0.645173 0.376570 0.258416 -0.371045
Cl65  Cl    Cl    0.547690 0.520069 0.312164 -0.354344
Cl66  Cl    Cl    0.451875 0.562804 0.732340 -0.398313
Cl67  Cl    Cl    0.451785 0.562972 0.267264 -0.396263
Cl68  Cl    Cl    0.547764 0.519572 0.687692 -0.337001
Cl69  Cl    Cl    0.047926 0.518641 0.812559 -0.399626
Cl70  Cl    Cl    0.951762 0.562998 0.232979 -0.396511
Cl71  Cl    Cl    0.952042 0.562630 0.768413 -0.393639
Cl72  Cl    Cl    0.047640 0.520154 0.187915 -0.355835
Cl73  Cl    Cl    0.048068 0.018046 0.312779 -0.381832
Cl74  Cl    Cl    0.952160 0.062442 0.731212 -0.404046
Cl75  Cl    Cl    0.952155 0.062412 0.269094 -0.395518
Cl76  Cl    Cl    0.048061 0.018192 0.687271 -0.401125
Cl77  Cl    Cl    0.548075 0.018299 0.812744 -0.400651
Cl78  Cl    Cl    0.452167 0.062389 0.230990 -0.395219
Cl79  Cl    Cl    0.452145 0.062468 0.768865 -0.403326
Cl80  Cl    Cl    0.548052 0.017950 0.187240 -0.381376
Cl81  Cl    Cl    0.535102 0.501599 0.202951 -0.407048
Cl82  Cl    Cl    0.464849 0.452912 0.746803 -0.372674
Cl83  Cl    Cl    0.464914 0.452999 0.253241 -0.374577
Cl84  Cl    Cl    0.535052 0.501783 0.796969 -0.434676
Cl85  Cl    Cl    0.035135 0.502344 0.702996 -0.362117
Cl86  Cl    Cl    0.964916 0.453012 0.246642 -0.374705
Cl87  Cl    Cl    0.964886 0.452891 0.752568 -0.376232
Cl88  Cl    Cl    0.035126 0.501575 0.297071 -0.404267
Cl89  Cl    Cl    0.035050 0.002556 0.203111 -0.389345
Cl90  Cl    Cl    0.964772 0.952773 0.747378 -0.376169
Cl91  Cl    Cl    0.964817 0.952791 0.252397 -0.373765
Cl92  Cl    Cl    0.034982 0.002408 0.796849 -0.432919
Cl93  Cl    Cl    0.534971 0.002354 0.703154 -0.433539
Cl94  Cl    Cl    0.464808 0.952785 0.247560 -0.373890
Cl95  Cl    Cl    0.464782 0.952783 0.752575 -0.378176
Cl96  Cl    Cl    0.535065 0.002613 0.296896 -0.389702
Cl97  Cl    Cl    0.747598 0.926684 0.548531 -0.362411
Cl98  Cl    Cl    0.250394 0.926548 0.451082 -0.330645
Cl99  Cl    Cl    0.250138 0.926458 0.548742 -0.331867
Cl100 Cl    Cl    0.646081 0.000001 0.453631 -0.364283
Cl101 Cl    Cl    0.145987 0.999785 0.046389 -0.363184
Cl102 Cl    Cl    0.750120 0.926472 0.951085 -0.330706
Cl103 Cl    Cl    0.750583 0.926520 0.048759 -0.329704
Cl104 Cl    Cl    0.247387 0.926757 0.951339 -0.360816
Cl105 Cl    Cl    0.145693 0.500366 0.546509 -0.343621
Cl106 Cl    Cl    0.855705 0.503605 0.452873 -0.327969
Cl107 Cl    Cl    0.855790 0.502916 0.547132 -0.322887
Cl108 Cl    Cl    0.246622 0.427285 0.451613 -0.357047
Cl109 Cl    Cl    0.748864 0.426842 0.048559 -0.330083
Cl110 Cl    Cl    0.253620 0.427323 0.951634 -0.360768
Cl111 Cl    Cl    0.354474 0.501299 0.046579 -0.362517
Cl112 Cl    Cl    0.749392 0.426855 0.951265 -0.331201
N17   N     N_R   0.749093 0.936103 0.623828 0.264805
O137  O     O_R   0.713077 0.914106 0.619492 -0.230196
O138  O     O_R   0.785020 0.929929 0.645413 -0.337420
N18   N     N_R   0.249707 0.936064 0.375835 0.264668
O139  O     O_R   0.285351 0.913838 0.380231 -0.228979
O140  O     O_R   0.213898 0.930152 0.354073 -0.330596
N19   N     N_R   0.249541 0.935984 0.624035 0.264082
O141  O     O_R   0.285055 0.913672 0.619554 -0.231820
O142  O     O_R   0.213774 0.930165 0.645842 -0.333577
N20   N     N_R   0.656384 0.003099 0.378089 0.267846
O143  O     O_R   0.649498 0.027705 0.356996 -0.297613
O144  O     O_R   0.620303 0.981198 0.382622 -0.216629
N21   N     N_R   0.156315 0.002857 0.121933 0.267930
O145  O     O_R   0.149292 0.027473 0.143049 -0.297194
O146  O     O_R   0.120357 0.980859 0.117378 -0.216409
N22   N     N_R   0.749484 0.936002 0.875819 0.264395
O147  O     O_R   0.785025 0.913713 0.880242 -0.230389
O148  O     O_R   0.713721 0.930172 0.854004 -0.332731
N23   N     N_R   0.749906 0.936040 0.124029 0.264703
O149  O     O_R   0.785585 0.913839 0.119587 -0.228511
O150  O     O_R   0.714090 0.930095 0.145763 -0.330332
N24   N     N_R   0.248994 0.936142 0.876068 0.265100
O151  O     O_R   0.212892 0.914203 0.880337 -0.228602
O152  O     O_R   0.284936 0.929905 0.854498 -0.336280
N25   N     N_R   0.156207 0.503052 0.622057 0.268851
O153  O     O_R   0.149267 0.527587 0.643278 -0.294056
O154  O     O_R   0.120196 0.481107 0.617434 -0.207440
N26   N     N_R   0.844260 0.504086 0.377409 0.264439
O155  O     O_R   0.850965 0.528240 0.355775 -0.306793
O156  O     O_R   0.880314 0.482223 0.382210 -0.223587
N27   N     N_R   0.844338 0.503485 0.622574 0.265413
O157  O     O_R   0.851453 0.527698 0.644140 -0.303870
O158  O     O_R   0.880021 0.481326 0.617833 -0.217978
N28   N     N_R   0.248478 0.436354 0.376325 0.265404
O159  O     O_R   0.212221 0.414531 0.380609 -0.225577
O160  O     O_R   0.284508 0.429917 0.354877 -0.333568
N29   N     N_R   0.749789 0.436152 0.123850 0.264721
O161  O     O_R   0.714040 0.413988 0.119398 -0.225959
O162  O     O_R   0.785661 0.430126 0.145518 -0.334767
N30   N     N_R   0.251570 0.436364 0.876342 0.265374
O163  O     O_R   0.287838 0.414560 0.880606 -0.230270
O164  O     O_R   0.215508 0.429906 0.854919 -0.330295
N31   N     N_R   0.343796 0.503802 0.122128 0.264591
O165  O     O_R   0.350282 0.528342 0.143410 -0.306560
O166  O     O_R   0.380159 0.482120 0.117516 -0.223987
N32   N     N_R   0.750272 0.436173 0.875993 0.264560
O167  O     O_R   0.714677 0.413903 0.880409 -0.227884
O168  O     O_R   0.786132 0.430268 0.854271 -0.335919
Cl113 Cl    Cl    0.755247 0.068125 0.622679 -0.318080
Cl114 Cl    Cl    0.245589 0.068139 0.377268 -0.315705
Cl115 Cl    Cl    0.246138 0.068021 0.622825 -0.318045
Cl116 Cl    Cl    0.855141 0.995329 0.374069 -0.379710
Cl117 Cl    Cl    0.355117 0.995443 0.125890 -0.379016
Cl118 Cl    Cl    0.745920 0.068026 0.877327 -0.316660
Cl119 Cl    Cl    0.745609 0.068111 0.122857 -0.314839
Cl120 Cl    Cl    0.255587 0.068160 0.877439 -0.316570
Cl121 Cl    Cl    0.355003 0.495458 0.625770 -0.371003
Cl122 Cl    Cl    0.645635 0.495273 0.374854 -0.354141
Cl123 Cl    Cl    0.645596 0.495701 0.625093 -0.347034
Cl124 Cl    Cl    0.255779 0.568412 0.377140 -0.313520
Cl125 Cl    Cl    0.754285 0.568228 0.123025 -0.315606
Cl126 Cl    Cl    0.244089 0.568419 0.877124 -0.316035
Cl127 Cl    Cl    0.145247 0.494378 0.125711 -0.355237
Cl128 Cl    Cl    0.753978 0.568255 0.877089 -0.317429

loop_
_geom_bond_atom_site_label_1
_geom_bond_atom_site_label_2
_geom_bond_distance
_ccdc_geom_bond_type
Zn29  O101  1.945907 S    
Zn4   O4    1.941127 S    
C191  Cl95  1.773752 S    
O87   C31   1.280829 A    
O98   C10   1.269330 A    
C54   C89   1.403500 A    
O40   C32   1.281068 A    
C58   C94   1.402825 A    
C218  N26   1.436786 S    
C206  C286  1.403791 A    
C139  C151  1.411679 A    
C56   Cl8   1.768996 S    
N2    O108  1.301357 A    
C129  C145  1.411589 A    
C180  Cl84  1.773783 S    
C235  C251  1.412072 A    
C61   C94   1.402752 A    
O55   C40   1.281397 A    
C216  C232  1.417126 A    
N21   O145  1.301411 A    
O56   C39   1.281492 A    
C169  C185  1.348009 D    
C199  Cl103 1.768936 S    
C186  Cl90  1.773751 S    
C262  C278  1.403150 A    
C185  Cl89  1.773641 S    
Zn1   O14   1.946659 S    
Zn28  O52   1.919271 S    
N7    O118  1.301138 A    
C76   N12   1.434386 S    
C254  C270  1.402539 A    
O15   C7    1.272255 A    
Zn3   O16   1.946877 S    
C137  C149  1.411984 A    
C50   C66   1.406778 A    
C161  C163  1.456666 S    
C175  Cl79  1.767869 S    
N24   O151  1.301050 A    
C195  Cl99  1.768979 S    
O60   C44   1.279978 A    
C256  C272  1.401486 A    
C193  Cl97  1.768863 S    
C54   C70   1.405036 A    
C287  C303  1.438408 S    
O50   C38   1.283615 A    
C288  C304  1.438098 S    
C220  C236  1.416988 A    
C15   C178  1.450085 S    
C127  C160  1.404446 A    
C164  Cl68  1.767110 S    
C135  Cl55  1.769932 S    
C92   C100  1.438551 S    
C200  C216  1.407507 A    
Zn11  O83   1.921031 S    
C172  C188  1.347982 D    
C68   N4    1.437004 S    
O97   C9    1.270504 A    
Zn26  O98   1.945986 S    
Zn2   O2    1.940750 S    
N27   O158  1.301622 A    
C3    C190  1.450812 S    
C173  C189  1.347965 D    
Zn2   O13   1.946988 S    
C279  C295  1.438216 S    
Zn25  O49   1.918568 S    
C280  C296  1.438542 S    
C220  N28   1.436575 S    
C143  Cl63  1.770039 S    
N22   O147  1.300919 A    
C144  Cl64  1.769836 S    
O92   C4    1.269255 A    
Zn29  O37   1.920180 S    
N11   O126  1.301355 A    
C107  C155  1.438124 S    
C69   C82   1.412839 A    
C167  C183  1.347855 D    
C174  C176  1.456886 S    
Zn31  O55   1.918777 S    
Zn7   O79   1.921031 S    
Zn22  O46   1.919475 S    
C52   Cl4   1.768986 S    
C12   C181  1.450531 S    
N13   O130  1.301231 A    
Zn26  O6    1.939562 S    
Zn6   O9    1.946988 S    
N12   O127  1.300922 A    
C219  N27   1.436601 S    
C246  C262  1.401226 A    
C239  C255  1.412094 A    
N30   O164  1.301371 A    
C240  C256  1.411529 A    
Zn8   O3    1.941127 S    
C140  Cl60  1.769846 S    
O47   C36   1.282833 A    
Zn12  O8    1.941127 S    
C181  Cl85  1.773843 S    
C179  Cl83  1.773497 S    
C250  Cl122 1.769441 S    
C272  Cl32  1.769074 S    
C77   C86   1.413819 A    
C297  C300  1.201851 T    
C113  C153  1.404690 A    
N14   O131  1.301027 A    
N18   O140  1.301357 A    
C126  C157  1.404691 A    
C225  C241  1.412413 A    
O95   C7    1.270081 A    
O23   C15   1.272235 A    
O96   C8    1.269195 A    
C99   C107  1.201793 T    
C233  C249  1.412434 A    
Zn18  O90   1.945986 S    
C34   C88   1.476064 S    
Zn5   O77   1.921053 S    
C133  Cl53  1.769788 S    
N4    O112  1.301357 A    
C117  C154  1.404565 A    
C26   C240  1.476602 S    
N29   O161  1.301019 A    
C289  C292  1.201961 T    
C38   C84   1.474633 S    
C171  C187  1.347915 D    
C93   C101  1.438315 S    
N31   O165  1.301411 A    
C126  Cl46  1.769230 S    
C115  C131  1.403699 A    
O88   C32   1.281433 A    
C234  C250  1.411856 A    
C301  C304  1.201728 T    
C163  Cl67  1.767953 S    
O80   C24   1.281333 A    
C20   C230  1.477088 S    
C7    C186  1.450747 S    
C117  Cl37  1.769142 S    
C62   Cl14  1.769016 S    
C110  C158  1.437018 S    
C123  Cl43  1.769246 S    
N16   O135  1.300971 A    
C249  Cl121 1.770277 S    
Zn6   O1    1.940750 S    
Zn10  O6    1.940750 S    
C221  C237  1.416620 A    
Zn8   O80   1.920367 S    
C144  C151  1.411970 A    
C214  N22   1.436720 S    
C54   Cl6   1.770151 S    
Zn19  O3    1.940978 S    
N23   O149  1.301019 A    
C201  C217  1.406398 A    
C164  C180  1.348081 D    
Zn7   O60   1.920128 S    
O39   C31   1.280987 A    
C197  C213  1.406414 A    
N6    O115  1.300966 A    
C256  Cl128 1.765419 S    
Zn2   O74   1.920316 S    
C270  Cl30  1.770591 S    
O83   C27   1.281201 A    
C106  C154  1.438198 S    
C105  C153  1.438181 S    
C60   C76   1.406215 A    
O72   C47   1.280663 A    
C205  C285  1.403933 A    
C242  Cl114 1.765487 S    
Zn23  O4    1.940978 S    
C193  C273  1.403899 A    
Zn28  O8    1.939998 S    
C227  C243  1.411167 A    
C259  Cl19  1.769241 S    
Zn9   O22   1.946659 S    
C31   C233  1.473587 S    
N17   O137  1.301017 A    
C217  N25   1.437202 S    
O75   C19   1.280798 A    
Zn11  O24   1.946877 S    
C277  C293  1.438507 S    
N25   O154  1.301101 A    
C108  C156  1.438297 S    
O73   C17   1.281411 A    
C196  Cl100 1.769400 S    
C62   C78   1.406735 A    
C74   C86   1.413847 A    
C142  C149  1.411672 A    
C243  C259  1.401185 A    
C122  C138  1.403232 A    
N19   O141  1.301100 A    
Zn16  O19   1.946799 S    
O31   C23   1.283207 A    
O77   C21   1.281273 A    
N30   O163  1.301047 A    
C67   N3    1.434302 S    
O22   C14   1.271295 A    
C199  C215  1.407022 A    
C248  Cl120 1.763710 S    
O16   C8    1.271368 A    
C182  Cl86  1.773466 S    
C215  N23   1.436660 S    
C166  C182  1.347849 D    
C63   C79   1.406352 A    
Zn28  O36   1.920865 S    
C42   C146  1.471902 S    
C57   Cl9   1.770090 S    
Zn16  O88   1.920367 S    
O103  C15   1.269765 A    
C218  C234  1.414819 A    
C58   C74   1.406319 A    
C209  N17   1.436628 S    
Zn32  O56   1.919271 S    
O91   C3    1.270158 A    
C51   C91   1.403513 A    
N10   O123  1.300866 A    
C274  C290  1.438244 S    
C113  C129  1.403465 A    
O44   C36   1.283005 A    
C21   C227  1.477105 S    
C207  Cl111 1.769415 S    
C8    C185  1.450310 S    
Zn24  O48   1.919271 S    
C57   C73   1.405049 A    
C244  Cl116 1.770236 S    
C207  C287  1.404634 A    
C60   C96   1.402781 A    
O93   C5    1.270095 A    
C176  C192  1.348027 D    
C5    C188  1.450606 S    
Zn29  O6    1.941358 S    
C172  Cl76  1.767842 S    
O99   C11   1.269779 A    
C138  C150  1.411576 A    
C128  C159  1.404502 A    
O19   C11   1.272119 A    
C264  C280  1.402695 A    
C194  Cl98  1.768978 S    
Zn29  O53   1.918568 S    
C204  C284  1.403785 A    
C1    C192  1.450429 S    
C130  C146  1.411513 A    
C72   C83   1.415047 A    
Zn31  O39   1.920129 S    
C80   N16   1.434249 S    
O20   C12   1.271300 A    
C271  Cl31  1.769621 S    
Zn5   O2    1.939773 S    
O21   C13   1.272305 A    
C202  C218  1.406478 A    
C161  Cl65  1.767182 S    
C228  C244  1.412415 A    
C255  Cl127 1.769234 S    
O101  C13   1.270360 A    
C35   C85   1.474470 S    
C116  C132  1.403504 A    
C173  C175  1.456884 S    
C70   C81   1.412732 A    
N8    O120  1.301356 A    
C260  Cl20  1.769490 S    
C282  C298  1.439784 S    
C59   C95   1.404206 A    
Zn26  O34   1.920842 S    
C211  C227  1.416785 A    
C253  C269  1.401431 A    
C117  C133  1.403680 A    
Zn17  O41   1.918568 S    
Zn9   O70   1.919925 S    
N32   O168  1.301351 A    
C162  Cl66  1.767931 S    
Zn19  O27   1.920129 S    
O81   C25   1.280898 A    
C52   C68   1.406839 A    
C16   C177  1.451263 S    
N9    O122  1.301145 A    
O24   C16   1.271423 A    
O49   C37   1.281448 A    
C6    C187  1.450686 S    
C166  Cl70  1.767950 S    
N5    O113  1.300972 A    
C195  C275  1.404075 A    
C122  Cl42  1.769197 S    
C28   C238  1.479162 S    
C77   N13   1.434412 S    
C174  C190  1.347943 D    
Zn3   O3    1.939339 S    
C49   C89   1.404216 A    
C198  Cl102 1.768746 S    
O53   C38   1.281448 A    
C257  C273  1.402653 A    
C55   C71   1.405138 A    
C23   C225  1.479476 S    
N24   O152  1.301373 A    
Zn13  O6    1.939773 S    
C196  C212  1.406449 A    
C207  C223  1.406448 A    
C229  C245  1.412497 A    
C98   C106  1.201847 T    
N20   O143  1.301383 A    
C165  Cl69  1.767862 S    
C231  C247  1.411504 A    
C119  C135  1.403762 A    
C209  C225  1.417071 A    
C64   Cl16  1.770138 S    
N28   O160  1.301366 A    
N15   O133  1.300919 A    
C243  Cl115 1.764164 S    
C205  C221  1.406992 A    
C13   C180  1.451239 S    
N29   O162  1.301346 A    
C76   C88   1.413804 A    
C293  C296  1.201926 T    
C241  Cl113 1.763640 S    
C121  Cl41  1.769212 S    
C203  Cl107 1.769067 S    
C168  Cl72  1.767126 S    
C284  C300  1.438421 S    
C221  N29   1.436662 S    
N11   O125  1.301027 A    
C50   Cl2   1.769009 S    
O32   C24   1.282692 A    
C114  C154  1.404758 A    
C285  C301  1.438098 S    
C66   C82   1.415078 A    
C188  Cl92  1.773561 S    
C166  C168  1.456737 S    
C215  C231  1.416691 A    
C128  C144  1.403673 A    
O43   C35   1.281357 A    
C258  C274  1.403555 A    
C265  C281  1.404059 A    
Zn18  O2    1.939562 S    
C200  C280  1.403840 A    
C271  C287  1.403999 A    
Zn23  O31   1.920129 S    
C64   C80   1.405013 A    
Zn15  O87   1.921031 S    
C262  Cl22  1.768994 S    
O37   C29   1.281088 A    
Zn20  O92   1.945769 S    
Zn12  O23   1.946799 S    
C36   C86   1.476072 S    
C123  C159  1.404680 A    
Zn13  O18   1.946659 S    
C124  C140  1.403170 A    
O35   C27   1.282408 A    
O63   C44   1.280563 A    
C253  Cl125 1.765263 S    
C114  Cl34  1.769209 S    
Zn24  O32   1.920865 S    
Zn1   O73   1.921053 S    
Zn24  O96   1.945769 S    
C22   C228  1.473723 S    
C281  C297  1.438370 S    
C120  C155  1.404694 A    
C175  C191  1.347976 D    
C197  C277  1.404617 A    
Zn12  O84   1.920367 S    
Zn4   O15   1.946799 S    
C206  C222  1.407222 A    
Zn5   O10   1.946659 S    
O58   C42   1.279839 A    
C202  Cl106 1.769033 S    
C55   C92   1.403597 A    
C29   C235  1.474261 S    
O10   C2    1.271427 A    
C39   C81   1.474585 S    
Zn7   O4    1.939339 S    
N3    O109  1.300959 A    
Zn8   O11   1.946799 S    
C57   C93   1.403518 A    
Zn15  O68   1.920128 S    
C237  C253  1.411624 A    
C79   C88   1.413941 A    
C162  C178  1.347885 D    
N22   O148  1.301283 A    
C298  C299  1.202674 T    
C62   C93   1.404188 A    
Zn32  O40   1.920865 S    
C73   C85   1.412779 A    
C53   Cl5   1.770124 S    
Zn4   O76   1.920367 S    
C43   C147  1.472198 S    
C71   C84   1.412740 A    
Zn17  O1    1.941358 S    
C68   C84   1.415019 A    
C183  Cl87  1.773696 S    
C169  Cl73  1.767883 S    
C268  Cl28  1.770567 S    
N13   O129  1.300876 A    
C267  Cl27  1.769114 S    
O82   C26   1.281058 A    
C290  C291  1.201833 T    
C17   C231  1.476829 S    
N12   O128  1.301238 A    
C270  C286  1.402807 A    
C51   C67   1.405087 A    
C66   N2    1.436984 S    
Zn31  O8    1.940978 S    
C194  C274  1.403863 A    
C173  Cl77  1.767854 S    
C103  C111  1.201775 T    
O78   C22   1.280698 A    
Zn32  O7    1.939998 S    
C49   C65   1.406869 A    
Zn10  O21   1.946988 S    
O79   C23   1.281790 A    
C302  C303  1.201849 T    
C176  Cl80  1.767873 S    
C126  C142  1.403522 A    
C266  Cl26  1.769021 S    
C268  C284  1.402809 A    
C210  N18   1.436671 S    
C278  C294  1.438236 S    
C56   C91   1.404156 A    
C124  C160  1.404455 A    
C53   C69   1.405150 A    
O45   C34   1.282957 A    
O74   C18   1.281727 A    
N14   O132  1.301353 A    
C170  C172  1.456967 S    
O30   C22   1.281180 A    
C123  C139  1.403485 A    
Zn11  O72   1.920128 S    
C197  Cl101 1.769420 S    
Zn20  O28   1.920865 S    
Zn21  O29   1.920180 S    
Zn10  O82   1.920316 S    
C121  C157  1.404481 A    
O26   C18   1.283286 A    
O18   C10   1.271254 A    
C47   C151  1.472172 S    
C65   N1    1.436995 S    
Zn26  O50   1.919475 S    
C40   C82   1.474708 S    
O13   C5    1.272242 A    
C162  C164  1.456731 S    
O104  C16   1.269629 A    
C127  Cl47  1.769265 S    
N2    O107  1.301030 A    
C128  Cl48  1.769191 S    
C244  C260  1.403259 A    
C177  Cl81  1.773960 S    
C241  C257  1.402356 A    
C46   C150  1.470907 S    
C165  C167  1.456775 S    
C223  C239  1.414903 A    
C125  C141  1.403079 A    
C11   C182  1.449825 S    
C211  N19   1.436650 S    
O71   C48   1.279757 A    
C204  C220  1.407225 A    
C115  C155  1.404504 A    
O90   C2    1.269242 A    
Zn12  O71   1.919214 S    
Zn31  O103  1.946096 S    
Zn32  O104  1.945769 S    
C141  Cl61  1.769884 S    
C217  C233  1.414982 A    
C100  C108  1.201901 T    
N16   O136  1.301147 A    
Zn21  O2    1.941358 S    
C202  C282  1.405009 A    
N31   O166  1.301286 A    
C223  N31   1.437006 S    
O94   C6    1.269323 A    
C196  C276  1.404608 A    
Zn30  O5    1.939562 S    
C116  C156  1.404769 A    
O62   C41   1.280593 A    
C184  Cl88  1.773988 S    
O66   C46   1.280138 A    
C61   Cl13  1.770051 S    
C63   C96   1.402814 A    
C174  Cl78  1.767817 S    
C78   C85   1.414987 A    
O29   C21   1.282902 A    
Zn4   O63   1.919214 S    
C266  C282  1.404544 A    
C252  C268  1.402557 A    
C69   N5    1.434295 S    
O76   C20   1.281207 A    
C131  C147  1.412060 A    
Zn19  O91   1.946096 S    
C226  C242  1.411481 A    
C112  C160  1.437008 S    
N6    O116  1.301142 A    
C272  C288  1.403425 A    
O17   C9    1.272246 A    
C45   C149  1.472166 S    
Zn27  O35   1.920129 S    
C119  Cl39  1.769099 S    
Zn15  O20   1.946877 S    
O65   C45   1.280598 A    
C248  C264  1.402397 A    
C114  C130  1.403512 A    
C263  C279  1.403458 A    
C118  C134  1.403760 A    
C260  C276  1.404088 A    
C171  Cl75  1.767822 S    
C261  C277  1.404069 A    
O57   C41   1.280132 A    
C59   Cl11  1.768987 S    
C133  C146  1.411787 A    
O34   C26   1.282409 A    
N1    O106  1.301359 A    
O41   C33   1.283626 A    
C142  Cl62  1.769999 S    
C61   C77   1.406248 A    
Zn23  O95   1.946096 S    
N25   O153  1.301409 A    
C140  C152  1.411510 A    
C79   N15   1.434522 S    
C14   C179  1.449774 S    
O25   C17   1.282655 A    
C58   Cl10  1.770085 S    
O70   C45   1.280090 A    
C116  Cl36  1.769245 S    
Zn10  O69   1.919423 S    
C264  Cl24  1.770673 S    
N15   O134  1.301252 A    
C90   C98   1.438456 S    
Zn13  O85   1.921053 S    
N27   O157  1.301437 A    
N19   O142  1.301417 A    
C125  Cl45  1.769305 S    
C65   C81   1.415008 A    
C192  Cl96  1.773636 S    
C30   C236  1.479137 S    
C113  Cl33  1.769284 S    
O54   C37   1.283613 A    
C89   C97   1.438420 S    
Zn30  O102  1.945986 S    
Zn27  O51   1.918777 S    
C60   Cl12  1.770125 S    
C80   C87   1.412766 A    
Zn9   O81   1.921053 S    
C143  C152  1.411623 A    
Zn14  O5    1.940750 S    
C199  C279  1.403880 A    
C258  Cl18  1.768985 S    
C194  C210  1.406955 A    
C137  Cl57  1.769859 S    
C198  C214  1.407246 A    
C127  C143  1.403136 A    
C201  C281  1.404597 A    
C204  Cl108 1.769018 S    
C200  Cl104 1.768944 S    
N10   O124  1.301234 A    
O64   C43   1.280176 A    
C52   C92   1.404211 A    
C71   N7    1.434284 S    
C269  Cl29  1.769133 S    
Zn15  O8    1.939339 S    
C27   C237  1.476849 S    
C168  C184  1.348030 D    
Zn16  O7    1.941127 S    
C193  C209  1.407604 A    
Zn20  O4    1.939998 S    
C18   C232  1.479499 S    
C273  C289  1.438603 S    
N4    O111  1.301021 A    
C73   N9    1.434297 S    
C104  C112  1.201144 T    
Zn25  O33   1.920180 S    
C74   N10   1.434528 S    
C208  Cl112 1.768933 S    
O48   C35   1.283667 A    
O52   C40   1.283756 A    
C216  N24   1.436584 S    
C246  Cl118 1.763928 S    
Zn17  O25   1.920180 S    
Zn3   O75   1.921031 S    
C51   Cl3   1.770125 S    
O51   C39   1.283580 A    
Zn27  O99   1.946096 S    
N23   O150  1.301357 A    
C49   Cl1   1.768968 S    
O33   C25   1.281405 A    
C286  C302  1.438436 S    
C131  Cl51  1.770000 S    
Zn25  O97   1.945907 S    
O28   C20   1.282950 A    
N21   O146  1.301136 A    
C25   C239  1.473651 S    
Zn1   O1    1.939773 S    
C190  Cl94  1.773754 S    
C247  Cl119 1.765352 S    
N26   O155  1.301324 A    
N20   O144  1.301056 A    
C189  Cl93  1.773567 S    
C120  C136  1.403481 A    
C19   C229  1.473751 S    
C132  C148  1.411427 A    
C165  C181  1.347941 D    
O38   C30   1.282912 A    
C265  Cl25  1.769570 S    
C219  C235  1.414919 A    
C232  C248  1.412446 A    
Zn22  O94   1.945986 S    
Zn14  O17   1.946988 S    
O89   C1    1.270034 A    
O102  C14   1.268974 A    
C115  Cl35  1.769165 S    
Zn27  O7    1.940978 S    
Zn20  O44   1.919271 S    
C95   C103  1.438330 S    
N9    O121  1.300970 A    
Zn13  O66   1.919925 S    
C294  C295  1.201786 T    
C129  Cl49  1.769843 S    
C78   N14   1.436992 S    
Zn25  O5    1.941358 S    
C198  C278  1.403975 A    
C263  Cl23  1.769010 S    
C109  C157  1.438081 S    
Zn1   O62   1.919925 S    
Zn14  O86   1.920316 S    
C53   C90   1.403535 A    
C236  C252  1.412903 A    
C201  Cl105 1.769415 S    
N7    O117  1.300965 A    
C206  Cl110 1.769052 S    
O11   C3    1.272210 A    
Zn3   O64   1.920128 S    
C64   C95   1.403480 A    
C205  Cl109 1.768918 S    
N17   O138  1.301350 A    
C118  C153  1.404527 A    
Zn30  O38   1.920842 S    
Zn5   O58   1.919925 S    
C238  C254  1.412943 A    
C195  C211  1.407345 A    
C136  C147  1.411575 A    
C75   C87   1.415000 A    
C48   C152  1.470902 S    
C203  C219  1.406428 A    
C125  C158  1.404424 A    
Zn6   O78   1.920316 S    
C102  C110  1.201148 T    
C214  C230  1.416624 A    
C170  Cl74  1.767861 S    
C212  C228  1.414963 A    
Zn28  O100  1.945769 S    
C9    C184  1.451456 S    
C10   C183  1.450389 S    
Zn24  O3    1.939998 S    
N18   O139  1.301027 A    
C101  C109  1.201764 T    
C124  Cl44  1.769244 S    
C269  C285  1.403321 A    
C242  C258  1.401511 A    
C245  C261  1.403198 A    
Zn8   O59   1.919214 S    
O27   C19   1.281104 A    
C247  C263  1.401435 A    
C169  C171  1.456806 S    
N1    O105  1.301027 A    
C276  C292  1.438556 S    
O86   C30   1.281952 A    
O46   C33   1.281394 A    
C32   C234  1.473967 S    
O59   C43   1.280489 A    
C63   Cl15  1.770106 S    
C119  C156  1.404581 A    
C275  C291  1.438216 S    
Zn22  O30   1.920842 S    
C120  Cl40  1.769267 S    
C59   C75   1.406812 A    
C122  C158  1.404483 A    
O85   C29   1.281585 A    
C50   C90   1.404166 A    
C259  C275  1.403281 A    
C4    C189  1.450494 S    
C2    C191  1.450612 S    
Zn9   O5    1.939773 S    
C135  C148  1.411895 A    
C212  N20   1.437256 S    
C170  C186  1.348002 D    
C24   C226  1.476757 S    
Zn7   O12   1.946877 S    
Zn11  O7    1.939339 S    
C257  Cl17  1.770661 S    
C224  N32   1.436710 S    
C230  C246  1.411093 A    
C55   Cl7   1.770083 S    
C41   C145  1.472248 S    
C132  Cl52  1.769776 S    
C56   C72   1.406764 A    
C222  N30   1.436586 S    
C283  C299  1.439813 S    
C187  Cl91  1.773756 S    
C94   C102  1.437468 S    
Zn30  O54   1.919475 S    
C136  Cl56  1.769830 S    
C72   N8    1.436988 S    
C254  Cl126 1.764996 S    
Zn14  O65   1.919423 S    
C178  Cl82  1.773523 S    
O68   C48   1.280224 A    
Zn17  O89   1.945907 S    
O9    C1    1.272190 A    
Zn22  O1    1.939562 S    
C203  C283  1.405033 A    
N8    O119  1.301022 A    
O100  C12   1.269344 A    
O67   C47   1.279993 A    
O84   C28   1.282235 A    
Zn2   O61   1.919423 S    
C167  Cl71  1.767845 S    
C245  Cl117 1.770263 S    
Zn18  O26   1.920842 S    
C222  C238  1.417010 A    
O61   C42   1.280684 A    
N3    O110  1.301147 A    
Zn16  O67   1.919214 S    
C251  Cl123 1.769404 S    
N32   O167  1.301016 A    
C163  C179  1.347831 D    
C251  C267  1.402958 A    
Zn6   O57   1.919423 S    
C91   C99   1.438374 S    
C141  C150  1.411546 A    
C121  C137  1.403622 A    
C249  C265  1.403121 A    
N26   O156  1.301470 A    
C67   C83   1.412812 A    
C210  C226  1.416700 A    
C130  Cl50  1.769953 S    
Zn19  O43   1.918777 S    
C161  C177  1.348003 D    
N5    O114  1.301159 A    
C267  C283  1.404526 A    
C111  C159  1.438096 S    
C138  Cl58  1.769998 S    
C44   C148  1.471999 S    
C33   C87   1.474530 S    
C134  Cl54  1.769975 S    
C255  C271  1.403009 A    
O14   C6    1.271381 A    
O36   C28   1.283126 A    
O12   C4    1.271424 A    
C134  C145  1.412065 A    
C37   C83   1.474610 S    
C261  Cl21  1.769544 S    
O42   C34   1.282856 A    
C213  N21   1.437194 S    
C208  C224  1.406928 A    
C70   N6    1.434227 S    
C252  Cl124 1.764975 S    
C75   N11   1.436988 S    
Zn18  O42   1.919475 S    
Zn21  O45   1.918568 S    
C96   C104  1.437444 S    
C139  Cl59  1.770019 S    
C250  C266  1.402966 A    
Zn23  O47   1.918777 S    
N28   O159  1.301046 A    
Zn21  O93   1.945907 S    
C118  Cl38  1.769146 S    
O69   C46   1.279871 A    
C97   C105  1.201825 T    
C213  C229  1.414998 A    
C224  C240  1.416576 A    
C208  C288  1.403921 A    
