data_mof_unit_26770.cif
_audit_creation_date              2012-12-10T18:16:24-0500
_audit_creation_method            fapswitch 2.2
_symmetry_space_group_name_H-M    P1
_symmetry_Int_Tables_number       1
_space_group_crystal_system       triclinic
_cell_length_a                    12.777467
_cell_length_b                    12.85785
_cell_length_c                    26.542854
_cell_angle_alpha                 93.190227
_cell_angle_beta                  102.836548
_cell_angle_gamma                 81.042096
_cell_volume                      4198.89838507

loop_
_atom_site_label
_atom_site_type_symbol
_atom_type_description
_atom_site_fract_x
_atom_site_fract_y
_atom_site_fract_z
_atom_type_partial_charge
C1    C     C_R   0.438415 0.692001 0.494052 0.962875
C2    C     C_R   0.403867 0.546882 0.720142 -0.117073
C3    C     C_R   0.495120 0.589503 0.750048 0.099868
C4    C     C_R   0.476308 0.727775 0.891774 -0.115504
C5    C     C_R   0.379121 0.732020 0.854042 -0.056658
C6    C     C_R   0.278484 0.742550 0.868803 0.433930
C7    C     C_R   0.575956 0.723818 0.876215 -0.105685
C8    C     C_R   0.504382 0.505047 0.651655 -0.168246
C9    C     C_R   0.483589 0.533265 0.351177 -0.172089
C10   C     C_R   0.379532 0.747204 0.014948 0.083317
C11   C     C_R   0.572220 0.673056 0.030468 0.012433
C12   C     C_R   0.502638 0.497835 0.595224 0.903151
C13   C     C_R   0.475608 0.702131 0.048775 0.072254
C14   C     C_R   0.294473 0.798920 0.036931 -0.188088
C15   C     C_R   0.294346 0.788613 0.089193 -0.028632
C16   C     C_R   0.380972 0.722450 0.120505 -0.106915
C17   C     C_R   0.474081 0.684092 0.100616 -0.048340
C18   C     C_R   0.565050 0.625737 0.132123 -0.045537
C19   C     C_R   0.559596 0.600322 0.181943 0.582080
C20   C     C_R   0.377982 0.690190 0.170231 0.688200
C21   C     C_R   0.490100 0.668647 0.291476 0.397601
C22   C     C_R   0.506022 0.634027 0.342487 0.302536
C23   C     C_R   0.561583 0.308130 0.508082 0.874584
C24   C     C_R   0.446538 0.466128 0.309030 -0.214620
C25   C     C_R   0.440242 0.497893 0.258004 -0.137037
C26   C     C_R   0.462688 0.599137 0.249951 0.154602
C27   C     C_R   0.374436 0.741452 0.960601 -0.037531
C28   C     C_R   0.474396 0.726688 0.944391 0.004419
C29   C     C_R   0.573720 0.707208 0.980809 0.047335
C30   C     C_R   0.275442 0.746683 0.922185 -0.138294
C31   C     C_R   0.671799 0.733413 0.914229 -0.121368
C32   C     C_R   0.660974 0.608174 0.061652 -0.019569
C33   C     C_R   0.657321 0.588659 0.112478 -0.165215
C34   C     C_R   0.496715 0.503866 0.405298 1.026181
C35   C     C_R   0.669614 0.726814 0.967136 0.401803
C36   C     C_R   0.669217 0.076983 0.594065 -0.075053
C37   C     C_R   0.599473 0.198174 0.522922 -0.318341
C38   C     C_R   0.319270 0.834520 0.441119 0.383893
C39   C     C_R   0.286370 0.943128 0.431102 -0.256037
C40   C     C_R   0.344211 0.016926 0.462751 0.475610
C41   C     C_R   0.436061 0.980172 0.501641 0.062665
C42   C     C_R   0.443757 0.879590 0.520673 -0.163855
C43   C     C_R   0.517785 0.041434 0.523836 0.084994
C44   C     C_R   0.585321 0.015560 0.573140 -0.159596
C45   C     C_R   0.387955 0.712218 0.802286 0.620847
C46   C     C_R   0.564064 0.931433 0.600209 -0.079538
C47   C     C_R   0.496097 0.859993 0.573023 -0.034486
C48   C     C_R   0.537805 0.123751 0.496364 0.420842
C49   C     C_R   0.671833 0.171634 0.570604 0.376346
C50   C     C_R   0.395821 0.803698 0.486839 -0.099847
C51   C     C_R   0.079614 0.385181 0.409570 -0.132699
C52   C     C_R   0.802333 0.621417 0.566439 0.498134
C53   C     C_R   0.912091 0.621604 0.591294 -0.298894
C54   C     C_R   0.991369 0.557771 0.570006 0.461761
C55   C     C_R   0.963355 0.516682 0.518676 -0.092882
C56   C     C_R   0.574696 0.703330 0.823197 0.585225
C57   C     C_R   0.853401 0.504893 0.499750 -0.004549
C58   C     C_R   0.039997 0.479930 0.487431 -0.006570
C59   C     C_R   0.004229 0.432321 0.438423 -0.090387
C60   C     C_R   0.893841 0.430498 0.419655 -0.182262
C61   C     C_R   0.824944 0.445190 0.453576 0.030915
C62   C     C_R   0.148572 0.498022 0.500418 0.472858
C63   C     C_R   0.189203 0.388955 0.429457 0.468241
C64   C     C_R   0.597187 0.542800 0.739917 -0.050052
C65   C     C_R   0.601932 0.506589 0.689074 -0.131220
C66   C     C_R   0.407994 0.507829 0.669549 0.355820
H1    H     H_    0.724876 0.538878 0.135909 0.228074
H2    H     H_    0.864557 0.396365 0.381888 0.200857
H3    H     H_    0.229776 0.852321 0.014106 0.178432
N1    N     N_R   0.485940 0.668057 0.792140 -0.322875
N2    N     N_R   0.466278 0.630199 0.199291 -0.319398
N3    N     N_R   0.222180 0.444690 0.474320 -0.220192
N4    N     N_R   0.776980 0.554780 0.525420 -0.146331
O1    O     O_R   0.366730 0.627160 0.487740 -0.590464
O2    O     O_2   0.286861 0.713870 0.188740 -0.481585
O3    O     O_2   0.657669 0.720403 0.802650 -0.474910
O4    O     O_2   0.646251 0.544546 0.212705 -0.523579
O5    O     O_R   0.544830 0.662520 0.504140 -0.553968
O6    O     O_R   0.410970 0.482310 0.563040 -0.581022
O7    O     O_R   0.589070 0.517670 0.579450 -0.554652
O8    O     O_R   0.455170 0.337480 0.495860 -0.603929
O9    O     O_R   0.633270 0.372840 0.512260 -0.624221
O10   O     O_R   0.410930 0.482330 0.420550 -0.599827
O11   O     O_R   0.589030 0.517690 0.436960 -0.575836
O12   O     O_2   0.302142 0.738482 0.763066 -0.459463
Zn1   Zn    Zn3+2 0.381080 0.476390 0.489050 1.033883
Zn2   Zn    Zn3+2 0.618920 0.523610 0.510950 1.047501
O13   O     O_3   0.321645 0.468045 0.637976 -0.681591
H4    H     H_    0.292892 0.422599 0.658936 0.354368
C67   C     C_2   0.691573 0.511862 0.783332 0.995416
O14   O     O_2   0.676529 0.479568 0.823258 -0.576389
O15   O     O_R   0.796932 0.520420 0.778903 -0.710179
H5    H     H_    0.853354 0.497797 0.811220 0.370791
C68   C     C_2   0.776049 0.739554 0.899813 1.008164
O16   O     O_2   0.788250 0.818578 0.879498 -0.516206
O17   O     O_R   0.860756 0.655559 0.910524 -0.757855
H6    H     H_    0.927209 0.668039 0.898135 0.361430
C69   C     C_2   0.750451 0.545200 0.040805 1.015731
O18   O     O_2   0.733058 0.509564 0.996526 -0.575010
O19   O     O_R   0.854001 0.523406 0.072597 -0.748250
H7    H     H_    0.907772 0.479257 0.054248 0.371228
C70   C     C_2   0.413872 0.363854 0.317956 1.080159
O20   O     O_2   0.471070 0.304957 0.350937 -0.625435
O21   O     O_R   0.317497 0.334824 0.288286 -0.716953
H8    H     H_    0.304150 0.263475 0.297805 0.389959
C71   C     C_2   0.415599 0.424649 0.212944 1.017092
O22   O     O_2   0.457340 0.332264 0.215778 -0.567675
O23   O     O_R   0.345815 0.461539 0.167047 -0.775853
H9    H     H_    0.336421 0.404518 0.139151 0.362091
O24   O     O_3   0.756895 0.744040 0.006574 -0.733663
H10   H     H_    0.810947 0.774858 0.992944 0.360913
O25   O     O_3   0.745234 0.235650 0.595728 -0.681241
H11   H     H_    0.767943 0.274451 0.570057 0.386508
C72   C     C_2   0.596799 0.929732 0.657579 0.948445
O26   O     O_2   0.658186 0.855145 0.679347 -0.478091
O27   O     O_R   0.560025 0.016457 0.686452 -0.767631
H12   H     H_    0.588644 0.007511 0.725005 0.378830
C73   C     C_2   0.760572 0.040092 0.637484 1.021446
O28   O     O_2   0.787514 0.098907 0.674329 -0.484708
O29   O     O_R   0.816988 0.938200 0.635542 -0.812652
H13   H     H_    0.877765 0.922057 0.667094 0.374432
C74   C     C_2   0.312909 0.529308 0.743712 0.982926
O30   O     O_2   0.219035 0.546010 0.719216 -0.511813
O31   O     O_R   0.335259 0.494851 0.794568 -0.790320
H14   H     H_    0.267111 0.487426 0.806805 0.361162
O32   O     O_3   0.496990 0.130065 0.443582 -0.682082
H15   H     H_    0.531250 0.182251 0.429325 0.355139
O33   O     O_3   0.280482 0.756870 0.407032 -0.699409
H16   H     H_    0.255985 0.785418 0.371811 0.360263
O34   O     O_3   0.308055 0.124159 0.460420 -0.698711
H17   H     H_    0.229606 0.136876 0.444476 0.351830
C75   C     C_2   0.196734 0.978966 0.386760 0.931010
O35   O     O_2   0.113391 0.939179 0.377845 -0.546718
O36   O     O_R   0.207820 0.058348 0.355195 -0.743532
H18   H     H_    0.141581 0.075857 0.326267 0.370450
C76   C     C_2   0.461353 0.778976 0.601196 0.882795
O37   O     O_2   0.527094 0.725606 0.633778 -0.550060
O38   O     O_R   0.352210 0.764759 0.590514 -0.776726
H19   H     H_    0.337993 0.708618 0.612439 0.374022
O39   O     O_3   0.260894 0.341500 0.400468 -0.692944
H20   H     H_    0.331237 0.321368 0.423660 0.409366
C77   C     C_2   0.048148 0.325018 0.360422 1.003883
O40   O     O_2   0.995285 0.252899 0.358843 -0.614151
O41   O     O_R   0.082830 0.348585 0.316560 -0.701343
H21   H     H_    0.058199 0.301168 0.285792 0.359433
O42   O     O_3   0.174541 0.579989 0.534125 -0.668423
H22   H     H_    0.249257 0.589932 0.535388 0.403487
O43   O     O_3   0.718549 0.681069 0.584408 -0.645787
H23   H     H_    0.743281 0.747339 0.599671 0.365438
O44   O     O_3   0.185721 0.740755 0.830266 -0.664237
H24   H     H_    0.131519 0.708301 0.842961 0.354593
O45   O     O_3   0.089240 0.524076 0.602910 -0.620027
H25   H     H_    0.117030 0.452698 0.591061 0.349725
C78   C     C_2   0.945501 0.677746 0.641559 1.053571
O46   O     O_2   0.886997 0.690768 0.672796 -0.511977
O47   O     O_R   0.045764 0.714514 0.653476 -0.667544
H26   H     H_    0.060179 0.750630 0.688759 0.382584
C79   C     C_2   0.773331 0.350526 0.451921 0.978174
O48   O     O_2   0.810661 0.284220 0.484969 -0.637319
O49   O     O_R   0.695924 0.327685 0.408242 -0.781351
H27   H     H_    0.675312 0.255050 0.409330 0.357069
O50   O     O_3   0.542167 0.697265 0.384648 -0.756570
H28   H     H_    0.589494 0.743397 0.374999 0.358378
O51   O     O_3   0.502438 0.769254 0.280567 -0.718632
H29   H     H_    0.483564 0.817961 0.308500 0.359039
C80   C     C_2   0.205493 0.853054 0.109573 1.017798
O52   O     O_2   0.111920 0.859447 0.084727 -0.576214
O53   O     O_R   0.229379 0.910537 0.155937 -0.730458
H30   H     H_    0.162188 0.952451 0.165429 0.367139
C81   C     C_2   0.170405 0.741817 0.936486 0.865903
O54   O     O_2   0.092194 0.808956 0.921383 -0.561292
O55   O     O_R   0.161425 0.660325 0.967322 -0.762553
H31   H     H_    0.086828 0.666599 0.975467 0.372818
C82   C     C_2   0.705021 0.452336 0.677832 1.029618
O56   O     O_2   0.726964 0.356852 0.681822 -0.543378
O57   O     O_R   0.778453 0.510266 0.664862 -0.673404
H32   H     H_    0.846356 0.463942 0.658556 0.342593

loop_
_geom_bond_atom_site_label_1
_geom_bond_atom_site_label_2
_ccdc_geom_bond_type
O5    Zn2   S    
C58   C62   A    
C80   O53   S    
C21   C26   A    
C8    C66   A    
O32   H15   S    
C26   N2    S    
C23   O9    A    
C65   C82   S    
C41   C42   A    
C54   C55   A    
C19   N2    A    
O11   Zn2   S    
C64   C67   S    
O33   H16   S    
C72   O26   D    
C53   C54   A    
O27   H12   S    
C81   O55   S    
C56   O3    S    
C1    O1    A    
O51   H29   S    
O42   H22   S    
O7    Zn2   S    
C66   O13   S    
C5    C6    A    
C22   O50   S    
C9    C22   A    
C71   O22   D    
C15   C16   A    
C12   O6    A    
O23   H9    S    
C18   C19   A    
C63   O39   S    
C57   N4    A    
C19   O4    S    
C73   O28   D    
O25   H11   S    
O24   H10   S    
C30   C81   S    
C81   O54   D    
C16   C17   A    
C20   N2    A    
O57   H32   S    
C36   C73   S    
C43   C48   A    
C78   O47   S    
O8    Zn1   S    
C10   C27   A    
C8    C12   S    
O13   H4    S    
C59   C60   A    
C52   O43   S    
C21   O51   S    
C21   C22   A    
C27   C30   A    
C79   O49   S    
C1    O5    A    
C41   C43   A    
C80   O52   D    
C68   O16   D    
C34   O11   A    
C7    C56   A    
C4    C7    A    
O21   H8    S    
C4    C28   A    
C44   C46   A    
C25   C71   S    
O19   H7    S    
C73   O29   S    
C2    C74   S    
C7    C31   A    
C46   C72   S    
C3    N1    S    
C51   C63   A    
C24   C25   A    
C76   O38   S    
C52   N4    A    
C10   C14   A    
C39   C40   A    
C76   O37   D    
C54   O45   S    
C58   C59   A    
C23   C37   S    
C5    C45   A    
O1    Zn1   S    
C20   O2    S    
C60   C61   A    
O47   H26   S    
C45   O12   S    
C43   C44   A    
C75   O35   D    
C24   C70   S    
C37   C49   A    
C67   O15   S    
C16   C20   A    
O17   H6    S    
C17   C18   A    
C62   N3    A    
C15   C80   S    
O39   H20   S    
C37   C48   A    
C68   O17   S    
C38   O33   S    
C11   C29   A    
C78   O46   D    
C35   O24   S    
C42   C50   A    
C49   O25   S    
O53   H30   S    
C6    C30   A    
C11   C32   A    
C69   O19   S    
C55   C57   A    
C62   O42   S    
C79   O48   D    
C14   H3    S    
C31   C35   A    
C36   C44   A    
C51   C59   A    
C34   O10   A    
C74   O31   S    
O55   H31   S    
N4    Zn2   S    
C52   C53   A    
C33   H1    S    
O50   H28   S    
C1    C50   S    
C51   C77   S    
C40   O34   S    
C46   C47   A    
C28   C29   A    
C23   O8    A    
C45   N1    A    
C14   C15   A    
O41   H21   S    
C2    C66   A    
C10   C13   A    
C72   O27   S    
C9    C24   A    
C57   C61   A    
O36   H18   S    
C38   C50   A    
N3    Zn1   S    
C31   C68   S    
C29   C35   A    
C56   N1    A    
O44   H24   S    
C13   C17   A    
C32   C33   A    
O34   H17   S    
C25   C26   A    
C61   C79   S    
O49   H27   S    
C11   C13   A    
C47   C76   S    
C67   O14   D    
C38   C39   A    
C71   O23   S    
C70   O21   S    
C12   O7    A    
C64   C65   A    
O15   H5    S    
C32   C69   S    
C9    C34   S    
C2    C3    A    
C77   O41   S    
C42   C47   A    
C3    C64   A    
C70   O20   D    
C18   C33   A    
C82   O57   S    
C8    C65   A    
O38   H19   S    
C48   O32   S    
C6    O44   S    
C4    C5    A    
O10   Zn1   S    
C63   N3    A    
C60   H2    S    
C75   O36   S    
C69   O18   D    
C39   C75   S    
C55   C58   A    
C27   C28   A    
C77   O40   D    
O29   H13   S    
C40   C41   A    
O45   H25   S    
C74   O30   D    
C53   C78   S    
O43   H23   S    
O6    Zn1   S    
C36   C49   A    
O9    Zn2   S    
O31   H14   S    
C82   O56   D    
