data_mof_unit_21596.cif
_audit_creation_date              2012-12-10T17:29:14-0500
_audit_creation_method            fapswitch 2.2
_symmetry_space_group_name_H-M    P1
_symmetry_Int_Tables_number       1
_space_group_crystal_system       triclinic
_cell_length_a                    12.217889
_cell_length_b                    12.77418
_cell_length_c                    13.395217
_cell_angle_alpha                 85.360208
_cell_angle_beta                  110.829689
_cell_angle_gamma                 94.091906
_cell_volume                      1945.55763796

loop_
_atom_site_label
_atom_site_type_symbol
_atom_type_description
_atom_site_fract_x
_atom_site_fract_y
_atom_site_fract_z
_atom_type_partial_charge
C1    C     C_R   0.474417 0.300197 0.489965 0.911457
C2    C     C_R   0.598871 0.551232 0.812122 -0.155963
C3    C     C_R   0.536127 0.812738 0.485686 -0.232143
C4    C     C_R   0.563971 0.512638 0.703322 0.925839
C5    C     C_R   0.455329 0.188228 0.472067 -0.255590
C6    C     C_R   0.409875 0.027397 0.554590 0.360101
C7    C     C_R   0.374506 0.126040 0.505694 0.131033
C8    C     C_R   0.527887 0.139915 0.430400 0.176242
C9    C     C_R   0.538635 0.030303 0.449108 -0.104796
C10   C     C_R   0.496223 0.979576 0.528227 -0.142074
C11   C     C_R   0.525464 0.875766 0.561744 0.213971
C12   C     C_R   0.545867 0.563533 0.968374 0.027023
C13   C     C_R   0.550013 0.858881 0.391437 0.104432
C14   C     C_R   0.577975 0.966760 0.387449 0.397351
C15   C     C_R   0.042372 0.634553 0.456405 0.111954
C16   C     C_R   0.522971 0.700282 0.500711 0.917057
C17   C     C_R   0.148033 0.613197 0.440873 0.313752
C18   C     C_R   0.148221 0.444211 0.528198 0.294857
C19   C     C_R   0.028450 0.453563 0.521087 -0.143821
C20   C     C_R   0.976430 0.551984 0.489411 -0.079228
C21   C     C_R   0.857632 0.562150 0.486420 0.295939
C22   C     C_R   0.855095 0.389049 0.563503 0.246549
C23   C     C_R   0.511612 0.563847 0.857414 -0.164045
C24   C     C_R   0.960303 0.369375 0.547706 0.321180
C25   C     C_R   0.437172 0.503190 0.292796 0.885775
C26   C     C_R   0.260373 0.488651 0.997995 0.407431
C27   C     C_R   0.404918 0.504042 0.174945 -0.249608
C28   C     C_R   0.718477 0.570385 0.875267 0.092845
C29   C     C_R   0.747870 0.596399 0.982267 0.169253
C30   C     C_R   0.658205 0.606954 0.022584 0.275811
C31   C     C_3   0.191782 0.646892 0.127558 -0.795236
C32   C     C_3   0.436352 0.840036 0.203074 -0.768883
C33   C     C_3   0.169519 0.075986 0.405949 -0.660972
C34   C     C_R   0.461792 0.535101 0.017397 -0.078778
C35   C     C_3   0.497320 0.216630 0.252195 -0.582979
C36   C     C_3   0.759735 0.680617 0.335354 -0.619499
C37   C     C_3   0.890086 0.256860 0.717186 -0.677712
C38   C     C_3   0.041307 0.800876 0.531498 -0.616336
C39   C     C_3   0.234346 0.786608 0.402784 -0.688946
C40   C     C_3   0.232133 0.348493 0.703761 -0.595750
C41   C     C_3   0.892167 0.504927 0.854072 -0.617546
C42   C     C_3   0.603896 0.775532 0.054658 -0.755255
C43   C     C_3   0.907547 0.535155 0.136513 -0.788927
C44   C     C_3   0.685047 0.828929 0.722666 -0.789927
C45   C     C_R   0.342378 0.526011 0.951790 -0.161762
C46   C     C_R   0.307794 0.564774 0.844693 0.341668
C47   C     C_R   0.393630 0.588103 0.798694 0.384047
C48   C     C_R   0.492785 0.506976 0.127676 0.342357
C49   C     C_R   0.286485 0.499652 0.106664 0.105975
Cl1   Cl    Cl    0.333491 0.963392 0.634014 -0.626156
Cl2   Cl    Cl    0.656771 0.012339 0.303061 -0.653304
Cl3   Cl    Cl    0.988615 0.237186 0.538398 -0.631680
Cl4   Cl    Cl    0.162150 0.603166 0.774957 -0.614551
Cl5   Cl    Cl    0.141338 0.404827 0.929733 -0.705553
Cl6   Cl    Cl    0.633425 0.456756 0.197621 -0.659418
Cl7   Cl    Cl    0.360409 0.680297 0.688391 -0.549566
H1    H     H_    0.116220 0.496613 0.101234 0.265466
H2    H     H_    0.082045 0.110644 0.370601 0.261311
H3    H     H_    0.159149 0.005625 0.456044 0.280456
H4    H     H_    0.195955 0.052838 0.339744 0.205876
H5    H     H_    0.663526 0.193378 0.374221 0.310782
H6    H     H_    0.456074 0.140289 0.219931 0.235884
H7    H     H_    0.546103 0.251938 0.201222 0.283508
H8    H     H_    0.427407 0.269565 0.248078 0.207924
H9    H     H_    0.823404 0.718165 0.497756 0.238780
H10   H     H_    0.760929 0.767181 0.318408 0.249717
H11   H     H_    0.669905 0.647726 0.296950 0.286211
H12   H     H_    0.197815 0.678566 0.049691 0.255398
H13   H     H_    0.817804 0.645748 0.300827 0.220129
H14   H     H_    0.747748 0.346464 0.650041 0.274409
H15   H     H_    0.861030 0.253725 0.787257 0.220464
H16   H     H_    0.980061 0.293821 0.742496 0.281597
H17   H     H_    0.891377 0.174732 0.696446 0.287460
H18   H     H_    0.998902 0.777991 0.367247 0.225761
H19   H     H_    0.017653 0.759463 0.597635 0.266672
H20   H     H_    0.998344 0.877341 0.510720 0.241345
H21   H     H_    0.137317 0.815639 0.560289 0.299067
H22   H     H_    0.126898 0.685400 0.295195 0.192672
H23   H     H_    0.264315 0.681741 0.194148 0.263433
H24   H     H_    0.166221 0.845306 0.370533 0.198109
H25   H     H_    0.302018 0.811069 0.367653 0.226006
H26   H     H_    0.274537 0.789186 0.490591 0.315343
H27   H     H_    0.205043 0.292783 0.554727 0.275769
H28   H     H_    0.207965 0.266180 0.724185 0.263721
H29   H     H_    0.176309 0.400819 0.724685 0.274675
H30   H     H_    0.325357 0.365113 0.752760 0.228407
H31   H     H_    0.785118 0.620411 0.752478 0.250617
H32   H     H_    0.888958 0.469239 0.780336 0.257484
H33   H     H_    0.878468 0.441846 0.911242 0.244185
H34   H     H_    0.108113 0.672149 0.129065 0.226527
H35   H     H_    0.979385 0.544728 0.890159 0.290521
H36   H     H_    0.759271 0.708515 0.135479 0.248937
H37   H     H_    0.621191 0.831660 0.118141 0.282920
H38   H     H_    0.508925 0.753101 0.024348 0.254251
H39   H     H_    0.628204 0.815650 0.988164 0.245292
H40   H     H_    0.924998 0.636511 0.011944 0.258126
H41   H     H_    0.995040 0.558723 0.192775 0.227131
H42   H     H_    0.912438 0.458882 0.104315 0.260964
H43   H     H_    0.848845 0.524843 0.183588 0.291719
H44   H     H_    0.530058 0.880386 0.718785 0.303269
H45   H     H_    0.514875 0.720330 0.310883 0.221120
H46   H     H_    0.704542 0.791839 0.804604 0.246113
H47   H     H_    0.730931 0.907788 0.728626 0.248512
H48   H     H_    0.719004 0.779872 0.676531 0.240358
H49   H     H_    0.412708 0.781702 0.140967 0.233406
H50   H     H_    0.466395 0.913928 0.169673 0.294233
H51   H     H_    0.356433 0.854746 0.219995 0.221608
H52   H     H_    0.239451 0.224371 0.426386 0.238817
N1    N     N_R   0.798200 0.480260 0.519790 -0.163682
N2    N     N_2   0.188598 0.681787 0.370828 -0.275053
N3    N     N_2   0.217698 0.361762 0.591433 -0.267109
N4    N     N_2   0.806045 0.583563 0.827641 -0.331715
N5    N     N_2   0.673186 0.684146 0.098024 -0.310816
N6    N     N_2   0.866391 0.614964 0.049959 -0.336801
N7    N     N_2   0.559891 0.839136 0.671675 -0.248088
N8    N     N_R   0.201820 0.519740 0.480210 -0.130645
N9    N     N_2   0.196735 0.533224 0.138987 -0.266684
N10   N     N_2   0.527353 0.800105 0.299050 -0.278708
N11   N     N_2   0.254103 0.152696 0.468722 -0.263739
N12   N     N_2   0.576415 0.201694 0.361806 -0.253779
N13   N     N_2   0.797388 0.656086 0.448864 -0.263118
N14   N     N_2   0.808893 0.315229 0.626550 -0.281440
N15   N     N_2   0.002674 0.738689 0.438404 -0.336111
O1    O     O_R   0.579910 0.341070 0.505280 -0.595653
O2    O     O_R   0.388440 0.353740 0.492580 -0.634198
O3    O     O_R   0.643280 0.490550 0.663120 -0.658131
O4    O     O_R   0.451810 0.503220 0.650420 -0.568411
O5    O     O_R   0.611560 0.646260 0.507420 -0.635952
O6    O     O_R   0.420090 0.658930 0.494720 -0.550059
O7    O     O_R   0.548190 0.496780 0.349580 -0.556263
O8    O     O_R   0.356720 0.509450 0.336880 -0.589138
Zn1   Zn    Zn3+2 0.627850 0.491540 0.508480 0.972193
Zn2   Zn    Zn3+2 0.372150 0.508460 0.491520 1.012744

loop_
_geom_bond_atom_site_label_1
_geom_bond_atom_site_label_2
_ccdc_geom_bond_type
C27   C48   A    
C24   Cl3   S    
C48   Cl6   S    
C41   H33   S    
C29   N6    S    
C33   H2    S    
C42   H37   S    
C40   H28   S    
C2    C4    S    
C19   C20   A    
C43   H42   S    
C17   N2    S    
C13   N10   S    
C44   H48   S    
C36   H11   S    
C38   H20   S    
C45   C46   A    
C28   N4    S    
C12   C23   A    
C15   N15   S    
C1    C5    S    
H45   N10   S    
C28   C29   A    
C1    O2    A    
C43   N6    S    
C36   H10   S    
C26   Cl5   S    
O1    Zn1   S    
C18   C19   A    
C40   H30   S    
C31   N9    S    
C26   C45   A    
C39   N2    S    
C49   N9    S    
C44   N7    S    
C8    C9    A    
C41   N4    S    
C35   H8    S    
H9    N13   S    
C11   N7    S    
C9    C10   A    
C38   N15   S    
C3    C13   A    
C31   H34   S    
C35   H7    S    
H18   N15   S    
C33   H3    S    
C32   H50   S    
C13   C14   A    
H5    N12   S    
H52   N11   S    
H40   N6    S    
C35   N12   S    
C31   H12   S    
H44   N7    S    
C25   O7    A    
O5    Zn1   S    
C44   H47   S    
C22   N14   S    
C40   N3    S    
C38   H19   S    
C15   C20   A    
C23   C47   A    
C42   H39   S    
C7    N11   S    
C18   N3    S    
C39   H25   S    
O4    Zn2   S    
C26   C49   A    
C18   N8    A    
C5    C7    A    
C44   H46   S    
N8    Zn2   S    
C32   H51   S    
C40   H29   S    
O7    Zn1   S    
C9    C14   A    
C29   C30   A    
H14   N14   S    
C42   N5    S    
C14   Cl2   S    
O3    Zn1   S    
C22   N1    A    
N1    Zn1   S    
H22   N2    S    
C34   C45   A    
C6    Cl1   S    
C16   O6    A    
C16   O5    A    
O6    Zn2   S    
C41   H35   S    
C33   N11   S    
C33   H4    S    
C32   H49   S    
C37   H15   S    
H27   N3    S    
C34   C48   A    
C12   C34   A    
C25   O8    A    
C36   H13   S    
C8    N12   S    
H1    N9    S    
H36   N5    S    
O2    Zn2   S    
C15   C17   A    
C41   H32   S    
C37   H17   S    
C46   C47   A    
C4    O4    A    
C12   C30   A    
C42   H38   S    
C43   H41   S    
C39   H26   S    
C32   N10   S    
O8    Zn2   S    
C6    C10   A    
C5    C8    A    
C21   N1    A    
C31   H23   S    
C6    C7    A    
H31   N4    S    
C38   H21   S    
C25   C27   S    
C4    O3    A    
C39   H24   S    
C36   N13   S    
C1    O1    A    
C43   H43   S    
C46   Cl4   S    
C19   C24   A    
C35   H6    S    
C22   C24   A    
C21   N13   S    
C3    C11   A    
C10   C11   A    
C37   N14   S    
C20   C21   A    
C37   H16   S    
C2    C23   A    
C2    C28   A    
C3    C16   S    
C27   C49   A    
C17   N8    A    
C47   Cl7   S    
C30   N5    S    
