data_mof_unit_44498.cif
_audit_creation_date              2012-12-11T14:19:30-0500
_audit_creation_method            fapswitch 2.2
_symmetry_space_group_name_H-M    P1
_symmetry_Int_Tables_number       1
_space_group_crystal_system       triclinic
_cell_length_a                    19.432767
_cell_length_b                    7.230566
_cell_length_c                    17.792773
_cell_angle_alpha                 90.001757
_cell_angle_beta                  107.897537
_cell_angle_gamma                 89.997412
_cell_volume                      2379.07692454

loop_
_atom_site_label
_atom_site_type_symbol
_atom_type_description
_atom_site_fract_x
_atom_site_fract_y
_atom_site_fract_z
_atom_type_partial_charge
O1    O     O_R   0.414820 0.494320 0.416790 -0.540668
O2    O     O_R   0.585180 0.994320 0.583210 -0.540670
O3    O     O_R   0.560270 0.819500 0.430140 -0.540963
O4    O     O_R   0.439730 0.319500 0.569860 -0.540970
C1    C     C_R   0.580149 0.654505 0.413481 0.716444
C2    C     C_R   0.419853 0.154515 0.586522 0.716424
O5    O     O_R   0.413840 0.823740 0.407440 -0.537007
O6    O     O_R   0.586160 0.323740 0.592560 -0.537008
O7    O     O_R   0.437710 0.998590 0.560350 -0.543450
O8    O     O_R   0.562290 0.498590 0.439650 -0.543465
C3    C     C_R   0.387561 0.654900 0.385216 0.730767
C4    C     C_R   0.612439 0.154898 0.614784 0.730746
O9    O     O_3   0.508000 0.662290 0.550200 -0.380705
O10   O     O_3   0.492000 0.162290 0.449800 -0.380700
V1    V     V_3+5 0.498520 0.935380 0.490690 1.389698
V2    V     V_3+5 0.501480 0.435380 0.509310 1.389683
C5    C     C_2   0.785268 0.272103 0.788493 -0.130699
C6    C     C_2   0.214730 0.772100 0.211505 -0.130698
C7    C     C_2   0.820415 0.113514 0.817057 -0.303939
C8    C     C_2   0.179585 0.613510 0.182943 -0.303939
H1    H     H_    0.807191 0.402576 0.815712 0.141874
H2    H     H_    0.192805 0.902571 0.184284 0.141869
H3    H     H_    0.800247 0.981630 0.790545 0.130898
H4    H     H_    0.199755 0.481627 0.209456 0.130889
C9    C     C_2   0.717411 0.284859 0.720434 -0.133169
C10   C     C_2   0.282587 0.784861 0.279564 -0.133181
C11   C     C_2   0.679315 0.138420 0.682617 -0.302555
C12   C     C_2   0.320685 0.638424 0.317383 -0.302555
H5    H     H_    0.698174 0.423369 0.701432 0.139656
H6    H     H_    0.301821 0.923371 0.298564 0.139650
H7    H     H_    0.697076 0.999055 0.700997 0.132323
H8    H     H_    0.302926 0.499059 0.299005 0.132322
C13   C     C_R   0.325070 0.294169 0.636293 -0.239314
C14   C     C_R   0.674912 0.794177 0.363696 -0.239261
C15   C     C_R   0.371337 0.144152 0.637086 -0.126088
C16   C     C_R   0.628674 0.644118 0.362928 -0.126095
C17   C     C_R   0.369733 0.987858 0.685435 0.134199
C18   C     C_R   0.630326 0.487760 0.314624 0.134169
C19   C     C_R   0.321109 0.984117 0.730503 0.100506
C20   C     C_R   0.678938 0.484042 0.269544 0.100525
C21   C     C_R   0.274331 0.135517 0.727675 0.013095
C22   C     C_R   0.725686 0.635484 0.272348 0.013090
C23   C     C_R   0.276676 0.290558 0.680547 0.095718
C24   C     C_R   0.723313 0.790560 0.319454 0.095718
C25   C     C_R   0.317903 0.830982 0.778298 -0.158724
C26   C     C_R   0.682161 0.330890 0.221757 -0.158751
C27   C     C_R   0.269383 0.827768 0.822092 -0.200456
C28   C     C_R   0.730680 0.327688 0.177965 -0.200465
C29   C     C_R   0.222821 0.977179 0.819430 0.095016
C30   C     C_R   0.777224 0.477129 0.180616 0.095000
C31   C     C_R   0.225058 0.132034 0.772170 0.013064
C32   C     C_R   0.774956 0.632016 0.227851 0.013063
C33   C     C_R   0.178148 0.283210 0.769174 0.099725
C34   C     C_R   0.821817 0.783261 0.230802 0.099743
C35   C     C_R   0.181370 0.436368 0.721389 -0.158622
C36   C     C_R   0.818583 0.936431 0.278583 -0.158662
C37   C     C_R   0.230067 0.439875 0.677820 -0.200359
C38   C     C_R   0.769901 0.939910 0.322169 -0.200368
C39   C     C_R   0.174598 0.973843 0.863894 -0.239181
C40   C     C_R   0.825454 0.473795 0.136162 -0.239095
C41   C     C_R   0.128103 0.123558 0.862884 -0.123489
C42   C     C_R   0.871892 0.623591 0.137112 -0.123494
C43   C     C_R   0.129372 0.279293 0.814059 0.135337
C44   C     C_R   0.870549 0.779423 0.185864 0.135303
H9    H     H_    0.325719 0.413774 0.599732 0.136074
H10   H     H_    0.674236 0.913821 0.400233 0.136097
H11   H     H_    0.352587 0.711964 0.781903 0.172523
H12   H     H_    0.647486 0.211861 0.218154 0.172550
H13   H     H_    0.268212 0.707540 0.858064 0.134994
H14   H     H_    0.731863 0.207454 0.141996 0.135034
H15   H     H_    0.174235 0.854557 0.900725 0.137237
H16   H     H_    0.825852 0.354460 0.099368 0.137262
H17   H     H_    0.146625 0.555290 0.717695 0.172449
H18   H     H_    0.853311 0.055380 0.282268 0.172486
H19   H     H_    0.231300 0.560189 0.641922 0.135230
H20   H     H_    0.768660 0.060234 0.358067 0.135253
O11   O     O_R   0.937810 0.773680 0.060480 -0.541433
O12   O     O_R   0.062190 0.273680 0.939520 -0.541416
O13   O     O_R   0.086190 0.439740 0.092580 -0.540351
O14   O     O_R   0.913810 0.939740 0.907420 -0.540353
C45   C     C_R   0.112500 0.608336 0.114800 0.730323
C46   C     C_R   0.887500 0.108338 0.885200 0.730285
O15   O     O_R   0.939760 0.444210 0.069890 -0.540584
O16   O     O_R   0.060240 0.944210 0.930110 -0.540598
O17   O     O_R   0.914790 0.269640 0.916760 -0.537117
O18   O     O_R   0.085210 0.769640 0.083240 -0.537119
C47   C     C_R   0.920260 0.613391 0.086296 0.704037
C48   C     C_R   0.079736 0.113380 0.913701 0.704015
O19   O     O_3   0.992050 0.601530 0.949880 -0.379876
O20   O     O_3   0.007950 0.101530 0.050120 -0.379861
V3    V     V_3+5 0.001480 0.328340 0.009300 1.389907
V4    V     V_3+5 0.998520 0.828340 0.990700 1.389874
N1    N     N_3   0.080469 0.431887 0.807211 -0.680703
H21   H     H_    0.095084 0.506313 0.860103 0.252769
H22   H     H_    0.027652 0.381819 0.794632 0.238588
N2    N     N_3   0.919259 0.932325 0.192502 -0.680795
H23   H     H_    0.904509 0.006455 0.139549 0.252692
H24   H     H_    0.972131 0.882697 0.205080 0.238750
N3    N     N_3   0.418058 0.834339 0.691429 -0.681262
H25   H     H_    0.471068 0.883315 0.704571 0.237289
H26   H     H_    0.403419 0.762323 0.637940 0.250988
N4    N     N_3   0.582091 0.334112 0.308718 -0.681312
H27   H     H_    0.529054 0.382894 0.295539 0.237350
H28   H     H_    0.596766 0.262275 0.362245 0.250970

loop_
_geom_bond_atom_site_label_1
_geom_bond_atom_site_label_2
_ccdc_geom_bond_type
O15   C47   A    
O11   V4    S    
O4    V2    S    
N1    H21   S    
C7    H3    S    
O1    C3    A    
O2    C4    A    
C14   H10   S    
C2    O7    A    
O17   V3    S    
C13   H9    S    
C27   C29   A    
C20   C26   A    
C15   C17   A    
C40   H16   S    
C1    C16   S    
C2    C15   S    
C40   C42   A    
O6    V2    S    
C25   C27   A    
C41   C43   A    
C27   H13   S    
C42   C44   A    
C5    C7    D    
C38   H20   S    
C8    H4    S    
C24   C38   A    
C29   C31   A    
C6    C10   S    
C25   H11   S    
C30   C32   A    
C7    C46   S    
O13   V3    S    
C45   O18   A    
C19   C25   A    
C20   C22   A    
N1    H22   S    
C8    C45   S    
C21   C23   A    
C22   C24   A    
C32   C34   A    
C34   C36   A    
C33   C35   A    
C9    H5    S    
C26   C28   A    
C39   C41   A    
C36   H18   S    
C4    C11   S    
C11   H7    S    
C13   C23   A    
C12   H8    S    
C14   C24   A    
C44   N2    S    
O4    C2    A    
O13   C45   A    
O5    V1    S    
C5    H1    S    
N2    H24   S    
C31   C33   A    
O14   V4    S    
O5    C3    A    
C26   H12   S    
C41   C48   S    
N3    H25   S    
O6    C4    A    
N2    H23   S    
O1    V2    S    
O19   V4    S    
N4    H28   S    
O2    V1    S    
O11   C47   A    
O14   C46   A    
N3    H26   S    
C10   H6    S    
C35   C37   A    
C17   N3    S    
O3    V1    S    
O12   C48   A    
C6    H2    S    
O16   C48   A    
C28   H14   S    
O3    C1    A    
O12   V3    S    
C9    C11   D    
C46   O17   A    
O15   V3    S    
C42   C47   S    
C43   N1    S    
C10   C12   D    
C29   C39   A    
C30   C40   A    
C37   H19   S    
C16   C18   A    
O7    V1    S    
C5    C9    S    
C1    O8    A    
C17   C19   A    
O18   V4    S    
C18   C20   A    
C33   C43   A    
O20   V3    S    
C34   C44   A    
C3    C12   S    
C28   C30   A    
C13   C15   A    
C14   C16   A    
C36   C38   A    
C6    C8    D    
N4    H27   S    
C23   C37   A    
C35   H17   S    
C19   C21   A    
C18   N4    S    
O9    V2    S    
C22   C32   A    
O10   V1    S    
O8    V2    S    
O16   V4    S    
C21   C31   A    
C39   H15   S    
