data_mof_unit_12693.cif
_audit_creation_date              2012-12-11T14:21:07-0500
_audit_creation_method            fapswitch 2.2
_symmetry_space_group_name_H-M    P1
_symmetry_Int_Tables_number       1
_space_group_crystal_system       triclinic
_cell_length_a                    21.945341
_cell_length_b                    7.209214
_cell_length_c                    14.89236
_cell_angle_alpha                 90.118784
_cell_angle_beta                  106.758992
_cell_angle_gamma                 90.042436
_cell_volume                      2256.02053803

loop_
_atom_site_label
_atom_site_type_symbol
_atom_type_description
_atom_site_fract_x
_atom_site_fract_y
_atom_site_fract_z
_atom_type_partial_charge
O1    O     O_R   0.584770 0.505770 0.002090 -0.537631
O2    O     O_R   0.415230 0.005770 0.997910 -0.540888
O3    O     O_R   0.467060 0.173340 0.861950 -0.533447
O4    O     O_R   0.532940 0.673340 0.138050 -0.531290
C1    C     C_R   0.455221 0.344029 0.825960 0.685725
C2    C     C_R   0.544703 0.844421 0.173986 0.688245
O5    O     O_R   0.587510 0.175890 0.993210 -0.542145
O6    O     O_R   0.412490 0.675890 0.006790 -0.541117
O7    O     O_R   0.536540 0.008150 0.130100 -0.536004
O8    O     O_R   0.463460 0.508150 0.869900 -0.529906
C3    C     C_R   0.612963 0.344958 0.997418 0.739754
C4    C     C_R   0.387018 0.844846 0.002463 0.746634
O9    O     O_3   0.483140 0.340040 0.044760 -0.377737
O10   O     O_3   0.516860 0.840040 0.955240 -0.375184
V1    V     V_3+5 0.503130 0.064190 0.991700 1.510615
V2    V     V_3+5 0.496870 0.564190 0.008300 1.517067
C5    C     C_2   0.213563 0.727496 0.001385 -0.062354
C6    C     C_2   0.785786 0.227683 0.995514 -0.097837
C7    C     C_2   0.180366 0.886902 0.996359 -0.262270
C8    C     C_2   0.819601 0.386702 0.003398 -0.241736
H1    H     H_    0.189998 0.596453 0.005113 0.164582
H2    H     H_    0.808775 0.096986 0.989121 0.156926
H3    H     H_    0.202350 0.019438 0.991325 0.136460
H4    H     H_    0.798111 0.518882 0.010665 0.149682
C9    C     C_2   0.281521 0.714466 0.001486 -0.074195
C10   C     C_2   0.717875 0.214688 0.995683 -0.092461
C11   C     C_2   0.319895 0.861232 0.003320 -0.251749
C12   C     C_2   0.680080 0.361496 0.996497 -0.244859
H5    H     H_    0.300414 0.575534 0.000499 0.146816
H6    H     H_    0.698487 0.075751 0.994445 0.149820
H7    H     H_    0.302210 0.000986 0.004910 0.136793
H8    H     H_    0.698187 0.501301 0.996786 0.146788
C13   C     C_R   0.923310 0.886248 0.724365 -0.134028
C14   C     C_R   0.076869 0.389345 0.275498 -0.134580
C15   C     C_R   0.572191 0.851971 0.275510 -0.051530
C16   C     C_R   0.428142 0.350969 0.724267 -0.052500
C17   C     C_R   0.933156 0.893054 0.566760 0.366320
C18   C     C_R   0.067506 0.408714 0.433134 0.366741
C19   C     C_R   0.959788 0.916716 0.662994 -0.203257
C20   C     C_R   0.039676 0.384017 0.337222 -0.203940
C21   C     C_R   0.857847 0.846947 0.689235 0.194427
C22   C     C_R   0.143514 0.405240 0.310010 0.193032
C23   C     C_R   0.827858 0.856407 0.590803 0.016286
C24   C     C_R   0.173310 0.399345 0.408602 0.017589
C25   C     C_R   0.867435 0.856220 0.530385 -0.021500
C26   C     C_R   0.134289 0.424185 0.468915 -0.022510
C27   C     C_R   0.760481 0.862176 0.549642 0.010094
C28   C     C_R   0.240206 0.375914 0.449875 0.011501
C29   C     C_R   0.733885 0.824493 0.452002 0.002244
C30   C     C_R   0.268407 0.419421 0.546563 0.004364
C31   C     C_R   0.776271 0.771504 0.400014 0.240106
C32   C     C_R   0.228396 0.495367 0.597333 0.238520
C33   C     C_R   0.841186 0.805877 0.436412 -0.103173
C34   C     C_R   0.162587 0.478976 0.561764 -0.110239
C35   C     C_R   0.719585 0.918678 0.601944 -0.112453
C36   C     C_R   0.278579 0.296951 0.398819 -0.109881
C37   C     C_R   0.653828 0.910372 0.565547 0.252512
C38   C     C_R   0.344269 0.285847 0.435158 0.254565
C39   C     C_R   0.626467 0.870752 0.470131 0.046136
C40   C     C_R   0.373231 0.329153 0.529772 0.045844
C41   C     C_R   0.666617 0.842986 0.411300 0.061348
C42   C     C_R   0.334703 0.382553 0.587797 0.062959
C43   C     C_R   0.559818 0.870813 0.430820 -0.078258
C44   C     C_R   0.439324 0.305953 0.569444 -0.077119
C45   C     C_R   0.532987 0.856599 0.334229 -0.135645
C46   C     C_R   0.466562 0.319451 0.665930 -0.133245
C47   C     C_R   0.638199 0.850918 0.313542 -0.125622
C48   C     C_R   0.362856 0.378502 0.685772 -0.118233
H9    H     H_    0.871641 0.777181 0.392437 0.203058
H10   H     H_    0.133596 0.525689 0.605077 0.202744
H11   H     H_    0.666382 0.865700 0.265550 0.154270
H12   H     H_    0.334338 0.381873 0.733719 0.152506
H13   H     H_    0.481691 0.856129 0.305070 0.158057
H14   H     H_    0.517246 0.297738 0.695460 0.161792
H15   H     H_    0.010076 0.947868 0.690494 0.161429
H16   H     H_    0.988373 0.372880 0.310079 0.161732
H17   H     H_    0.738146 0.976760 0.671259 0.198689
H18   H     H_    0.257775 0.235711 0.330724 0.199523
H19   H     H_    0.527903 0.884515 0.473837 0.185045
H20   H     H_    0.470270 0.271772 0.526973 0.184975
O11   O     O_R   0.036450 0.233070 0.130130 -0.536663
O12   O     O_R   0.963550 0.733070 0.869870 -0.520522
O13   O     O_R   0.912470 0.560570 0.006790 -0.531737
O14   O     O_R   0.087530 0.060570 0.993210 -0.542397
C49   C     C_R   0.886964 0.391902 0.002459 0.749431
C50   C     C_R   0.113008 0.891975 0.997383 0.744318
O15   O     O_R   0.032920 0.562940 0.138050 -0.527218
O16   O     O_R   0.967080 0.062940 0.861950 -0.540773
O17   O     O_R   0.084790 0.730500 0.002090 -0.531881
O18   O     O_R   0.915210 0.230500 0.997910 -0.543355
C51   C     C_R   0.045394 0.394812 0.174467 0.764391
C52   C     C_R   0.954168 0.894384 0.825591 0.759636
O19   O     O_3   0.016820 0.396170 0.955260 -0.378802
O20   O     O_3   0.983180 0.896170 0.044740 -0.381075
V3    V     V_3+5 0.996880 0.672090 0.008300 1.546960
V4    V     V_3+5 0.003120 0.172090 0.991700 1.513517
Br1   Br    Br    0.816310 0.736334 0.775059 -0.553037
Br2   Br    Br    0.188357 0.488262 0.222326 -0.558684
Br3   Br    Br    0.753898 0.614492 0.290160 -0.571554
Br4   Br    Br    0.256614 0.660272 0.703615 -0.571050
Br5   Br    Br    0.604258 0.973397 0.648803 -0.565793
Br6   Br    Br    0.390745 0.190291 0.353515 -0.560250
Br7   Br    Br    0.988756 0.917459 0.488477 -0.473489
Br8   Br    Br    0.011693 0.418824 0.511683 -0.473760

loop_
_geom_bond_atom_site_label_1
_geom_bond_atom_site_label_2
_ccdc_geom_bond_type
C43   C45   A    
O4    V2    S    
O15   C51   A    
C21   C23   A    
C14   C22   A    
C7    C50   S    
C33   H9    S    
C2    O7    A    
O16   V4    S    
O12   C52   A    
C27   C29   A    
C43   H19   S    
O5    C3    A    
C13   C19   A    
C14   C20   A    
O14   C50   A    
C22   Br2   S    
C35   H17   S    
C16   C46   A    
C37   C39   A    
C15   C45   A    
C38   C40   A    
C46   H14   S    
C1    C16   S    
C36   H18   S    
C2    C15   S    
C40   C42   A    
O14   V4    S    
C14   C51   S    
C18   Br8   S    
C6    C10   S    
C8    H4    S    
C32   C34   A    
C29   C31   A    
O15   V3    S    
C30   C32   A    
C38   Br6   S    
C19   H15   S    
C47   H11   S    
C48   H12   S    
O5    V1    S    
O2    C4    A    
O6    V2    S    
C9    H5    S    
C44   H20   S    
C22   C24   A    
C24   C26   A    
C31   Br3   S    
C39   C41   A    
C29   C41   A    
C4    C11   S    
C11   H7    S    
O16   C52   A    
C12   H8    S    
O4    C2    A    
C45   H13   S    
C17   Br7   S    
O11   V4    S    
C32   Br4   S    
C5    H1    S    
C20   H16   S    
C31   C33   A    
C44   C46   A    
O17   V3    S    
C7    H3    S    
C41   C47   A    
C34   H10   S    
C15   C47   A    
O6    C4    A    
O13   V3    S    
C8    C49   S    
C26   C34   A    
O1    V2    S    
O2    V1    S    
C23   C25   A    
O13   C49   A    
C10   H6    S    
O19   V4    S    
C35   C37   A    
C30   C42   A    
C21   Br1   S    
C13   C52   S    
C17   C25   A    
O3    V1    S    
C27   C35   A    
C28   C36   A    
O12   V3    S    
C6    H2    S    
C10   C12   D    
O3    C1    A    
C50   O17   A    
C49   O18   A    
C16   C48   A    
O18   V4    S    
C9    C11   D    
C37   Br5   S    
C39   C43   A    
C42   C48   A    
C40   C44   A    
C13   C21   A    
O7    V1    S    
C5    C9    S    
C1    O8    A    
C17   C19   A    
O8    V2    S    
C18   C20   A    
C3    C12   S    
C28   C30   A    
C5    C7    D    
C36   C38   A    
C6    C8    D    
O20   V3    S    
C18   C26   A    
C25   C33   A    
O11   C51   A    
O9    V2    S    
O10   V1    S    
O1    C3    A    
C23   C27   A    
C24   C28   A    
