data_mof_unit_41229.cif
_audit_creation_date              2012-10-26T21:20:00-0400
_audit_creation_method            fapswitch 2.2
_symmetry_space_group_name_H-M    P1
_symmetry_Int_Tables_number       1
_space_group_crystal_system       triclinic
_cell_length_a                    12.999414
_cell_length_b                    10.796231
_cell_length_c                    9.556723
_cell_angle_alpha                 89.333787
_cell_angle_beta                  95.628412
_cell_angle_gamma                 90.926923
_cell_volume                      1334.52633804

loop_
_atom_site_label
_atom_site_type_symbol
_atom_type_description
_atom_site_fract_x
_atom_site_fract_y
_atom_site_fract_z
_atom_type_partial_charge
C1    C     C_R   0.503278 0.262524 0.501013 0.577794
C2    C     C_R   0.699378 0.500393 0.525846 0.578175
C3    C     C_R   0.812035 0.500987 0.540685 0.023388
C4    C     C_R   0.187965 0.499013 0.459315 0.023388
C5    C     C_R   0.025366 0.490656 0.312455 -0.117010
C6    C     C_R   0.974634 0.509344 0.687545 -0.117010
C7    C     C_R   0.132784 0.491993 0.325699 -0.123457
C8    C     C_R   0.867216 0.508007 0.674301 -0.123457
C9    C     C_R   0.134997 0.505046 0.579703 -0.078512
C10   C     C_R   0.865002 0.494954 0.420297 -0.078512
C11   C     C_R   0.027617 0.503643 0.567335 0.045325
C12   C     C_R   0.496721 0.737475 0.498987 0.577794
C13   C     C_R   0.972383 0.496356 0.432664 0.045325
C14   C     C_R   0.570024 0.063221 0.418466 0.034609
C15   C     C_R   0.429976 0.936779 0.581534 0.034609
C16   C     C_R   0.561582 0.934682 0.415697 -0.133214
C17   C     C_R   0.438418 0.065318 0.584302 -0.133214
C18   C     C_2   0.649448 0.124167 0.337985 0.594883
C19   C     C_2   0.350552 0.875833 0.662015 0.594884
C20   C     C_R   0.493706 0.871437 0.497236 -0.028690
C21   C     C_R   0.506293 0.128562 0.502764 -0.028690
C22   C     C_R   0.434264 0.424274 0.067662 0.022535
C23   C     C_R   0.565736 0.575726 0.932338 0.022535
C24   C     C_R   0.433997 0.423822 0.919562 0.337896
C25   C     C_R   0.566003 0.576178 0.080438 0.337896
C26   C     C_R   0.300621 0.499607 0.474153 0.578174
Cl1   Cl    Cl    0.346584 0.321748 0.826822 -0.595547
Cl2   Cl    Cl    0.653416 0.678252 0.173178 -0.595547
Cu1   Cu    Cu3+1 0.500000 0.500020 0.640660 1.064978
Cu2   Cu    Cu3+1 0.500000 0.499980 0.359340 1.064978
H1    H     H_    0.822944 0.489055 0.316776 0.168690
H2    H     H_    0.618209 0.636355 0.881675 0.150929
H3    H     H_    0.732028 0.118958 0.170047 0.347872
H4    H     H_    0.267975 0.881041 0.829955 0.347872
H5    H     H_    0.177055 0.510945 0.683224 0.168690
H6    H     H_    0.827507 0.512829 0.768528 0.140518
H7    H     H_    0.172492 0.487171 0.231472 0.140518
H8    H     H_    0.983855 0.485082 0.208615 0.122744
H9    H     H_    0.016145 0.514918 0.791385 0.122744
H10   H     H_    0.611825 0.882816 0.354745 0.214831
H11   H     H_    0.388175 0.117184 0.645255 0.214831
H12   H     H_    0.381791 0.363645 0.118324 0.150929
N1    N     N_R   0.500030 0.500030 0.852080 -0.252090
N2    N     N_R   0.499970 0.499970 0.147920 -0.252090
O1    O     O_R   0.499990 0.319660 0.618740 -0.456804
O2    O     O_R   0.676512 0.069856 0.214844 -0.661418
O3    O     O_2   0.306374 0.780830 0.619036 -0.514679
O4    O     O_R   0.323491 0.930143 0.785158 -0.661417
O5    O     O_R   0.500010 0.680340 0.381260 -0.456804
O6    O     O_R   0.499990 0.319630 0.381170 -0.491548
O7    O     O_R   0.500010 0.680370 0.618830 -0.491549
O8    O     O_R   0.349000 0.499990 0.599490 -0.440990
O9    O     O_R   0.651000 0.500010 0.400510 -0.440989
O10   O     O_R   0.348990 0.499960 0.361920 -0.531209
O11   O     O_R   0.651010 0.500040 0.638080 -0.531209
O12   O     O_2   0.693625 0.219171 0.380964 -0.514679

loop_
_geom_bond_atom_site_label_1
_geom_bond_atom_site_label_2
_ccdc_geom_bond_type
C4    C26   S    
C1    C21   S    
Cu1   Cu2   S    
C6    H9    S    
C26   O8    A    
Cu2   O10   S    
C1    O6    A    
C14   C18   S    
C5    C13   A    
C24   Cl1   S    
C18   O12   D    
C16   C20   A    
Cu2   N2    S    
C23   H2    S    
C12   C20   S    
C2    C3    S    
Cu2   O6    S    
C3    C10   A    
C5    H8    S    
Cu1   N1    S    
C25   Cl2   S    
C15   C19   S    
H3    O2    S    
C9    C11   A    
C1    O1    A    
C22   H12   S    
C16   H10   S    
C4    C7    A    
C26   O10   A    
C14   C21   A    
Cu2   O5    S    
C12   O5    A    
C22   C24   A    
C2    O11   A    
C23   C25   A    
C8    H6    S    
C15   C20   A    
Cu1   O8    S    
Cu2   O9    S    
C14   C16   A    
C17   H11   S    
H4    O4    S    
C18   O2    S    
C11   C13   A    
C12   O7    A    
C23   N1    A    
C25   N2    A    
C9    H5    S    
C3    C8    A    
Cu1   O7    S    
C19   O3    D    
C6    C11   A    
C5    C7    A    
C24   N1    A    
C19   O4    S    
C6    C8    A    
Cu1   O11   S    
C4    C9    A    
C15   C17   A    
C10   H1    S    
C10   C13   A    
C22   N2    A    
Cu1   O1    S    
C7    H7    S    
C2    O9    A    
C17   C21   A    
