data_mof_unit_58571.cif
_audit_creation_date              2012-12-10T17:43:16-0500
_audit_creation_method            fapswitch 2.2
_symmetry_space_group_name_H-M    P1
_symmetry_Int_Tables_number       1
_space_group_crystal_system       triclinic
_cell_length_a                    15.06563
_cell_length_b                    13.886931
_cell_length_c                    10.713353
_cell_angle_alpha                 89.628242
_cell_angle_beta                  87.992929
_cell_angle_gamma                 90.29744
_cell_volume                      2239.94290372

loop_
_atom_site_label
_atom_site_type_symbol
_atom_type_description
_atom_site_fract_x
_atom_site_fract_y
_atom_site_fract_z
_atom_type_partial_charge
C1    C     C_R   0.329240 0.499781 0.498381 0.812178
C2    C     C_R   0.670750 0.500255 0.501956 0.807092
C3    C     C_R   0.953213 0.498656 0.500314 0.038792
C4    C     C_R   0.046843 0.502490 0.500415 0.037224
C5    C     C_R   0.909360 0.499793 0.385554 0.059578
C6    C     C_R   0.090757 0.502231 0.615088 0.057473
C7    C     C_R   0.948393 0.477272 0.726976 -0.044285
C8    C     C_R   0.052000 0.523326 0.273725 -0.048555
C9    C     C_R   0.040912 0.485721 0.726421 -0.077227
C10   C     C_R   0.959409 0.516335 0.274332 -0.073720
C11   C     C_R   0.442105 0.793957 0.577598 0.137484
C12   C     C_R   0.556882 0.206808 0.419620 0.180843
C13   C     C_R   0.558612 0.794661 0.422677 0.115133
C14   C     C_R   0.444839 0.204554 0.581109 0.175509
C15   C     C_R   0.551800 0.897311 0.409295 -0.073771
C16   C     C_R   0.452643 0.102126 0.592385 -0.093175
C17   C     C_R   0.450319 0.896293 0.591073 -0.062941
C18   C     C_R   0.551134 0.103975 0.407809 -0.095812
C19   C     C_R   0.501036 0.948461 0.499754 0.080769
C20   C     C_R   0.501190 0.051438 0.499400 0.061216
C21   C     C_R   0.593516 0.949831 0.308344 -0.040362
C22   C     C_R   0.415817 0.049524 0.696129 -0.058666
C23   C     C_R   0.411964 0.947461 0.694492 -0.026759
C24   C     C_R   0.593479 0.052055 0.308000 -0.074734
C25   C     C_R   0.497151 0.499995 0.260038 0.858675
C26   C     C_R   0.500941 0.500105 0.740142 0.857071
C27   C     C_3   0.438276 0.564431 0.041964 -0.043432
C28   C     C_3   0.557092 0.436043 0.958516 -0.002103
C29   C     C_3   0.521044 0.588283 0.959624 -0.021796
C30   C     C_3   0.474177 0.412560 0.040708 -0.027091
C31   C     C_3   0.417216 0.477729 0.957946 -0.321578
C32   C     C_3   0.578283 0.523284 0.042250 -0.311891
C33   C     C_3   0.501017 0.501209 0.876442 -0.011442
C34   C     C_3   0.494586 0.499409 0.123875 -0.008675
C35   C     C_R   0.815885 0.491079 0.385855 -0.096223
C36   C     C_R   0.184206 0.511544 0.614513 -0.065662
C37   C     C_R   0.767547 0.500704 0.499963 -0.133887
C38   C     C_R   0.232465 0.499620 0.500709 -0.132954
C39   C     C_R   0.811246 0.509317 0.612931 0.092513
C40   C     C_R   0.188611 0.489861 0.388074 0.077418
C41   C     C_R   0.903577 0.494350 0.614939 -0.025830
C42   C     C_R   0.096510 0.505951 0.385850 -0.014175
Cu1   Cu    Cu3+1 0.500000 0.597420 0.500000 1.009273
Cu2   Cu    Cu3+1 0.500000 0.402580 0.500000 1.057902
H1    H     H_    0.350426 0.457439 0.926508 0.187454
H2    H     H_    0.645030 0.543820 0.073543 0.167877
H3    H     H_    0.074277 0.471522 0.812319 0.229893
H4    H     H_    0.926320 0.531160 0.188408 0.233035
N1    N     N_R   0.500000 0.743810 0.500000 -0.231861
N2    N     N_R   0.500000 0.256190 0.500000 -0.222753
O1    O     O_R   0.370260 0.582280 0.500030 -0.575593
O2    O     O_R   0.629740 0.417720 0.499970 -0.584695
O3    O     O_R   0.629740 0.582280 0.499970 -0.571699
O4    O     O_R   0.370260 0.417720 0.500030 -0.583149
O5    O     O_R   0.499980 0.582260 0.316850 -0.607064
O6    O     O_R   0.500020 0.417740 0.683150 -0.507841
O7    O     O_R   0.500020 0.582260 0.683150 -0.587990
O8    O     O_R   0.499980 0.417740 0.316850 -0.504733
C43   C     C_2   0.369688 0.637318 0.080611 0.356415
H5    H     H_    0.334635 0.676210 0.009514 0.112843
O9    O     O_2   0.352905 0.653467 0.190653 -0.513138
C44   C     C_2   0.625332 0.362345 0.921380 0.448875
H6    H     H_    0.659815 0.323751 0.993273 0.141401
O10   O     O_2   0.642578 0.345211 0.811731 -0.525778
C45   C     C_2   0.547706 0.690279 0.928841 0.372860
H7    H     H_    0.551183 0.741703 0.003615 0.060705
O11   O     O_2   0.565224 0.716520 0.822036 -0.505327
C46   C     C_2   0.441169 0.312813 0.071477 0.528737
H8    H     H_    0.413247 0.270254 0.998421 0.135821
O12   O     O_2   0.442204 0.280001 0.177120 -0.468330
C47   C     C_2   0.767135 0.474568 0.269197 0.406209
H9    H     H_    0.700507 0.502093 0.261034 0.033291
O13   O     O_2   0.798656 0.425643 0.184538 -0.507238
C48   C     C_2   0.232864 0.531537 0.730385 0.380398
H10   H     H_    0.300390 0.506776 0.738662 0.028137
O14   O     O_2   0.200161 0.580503 0.814145 -0.498852
I1    I     I_    0.741639 0.574198 0.768182 -0.223422
I2    I     I_    0.256976 0.421679 0.234420 -0.310524
C49   C     C_2   0.902182 0.435308 0.839663 0.449292
H11   H     H_    0.838025 0.400452 0.832063 0.102199
O15   O     O_2   0.935987 0.436842 0.941555 -0.470374
C50   C     C_2   0.098894 0.564011 0.160768 0.469365
H12   H     H_    0.163765 0.597291 0.168044 0.116826
O16   O     O_2   0.064907 0.563171 0.058987 -0.465652
C51   C     C_2   0.365452 0.743162 0.637787 0.438994
H13   H     H_    0.374324 0.681564 0.697811 0.078459
O17   O     O_2   0.290136 0.771569 0.621483 -0.491316
C52   C     C_2   0.633954 0.257822 0.361250 0.433239
H14   H     H_    0.698128 0.252062 0.403511 0.051510
O18   O     O_2   0.628007 0.302479 0.263599 -0.524158
C53   C     C_2   0.635093 0.744101 0.363824 0.434773
H15   H     H_    0.625919 0.683767 0.302491 0.057264
O19   O     O_2   0.710644 0.771092 0.383023 -0.500744
C54   C     C_2   0.367358 0.252294 0.641504 0.411571
H16   H     H_    0.302591 0.243632 0.601719 0.059007
O20   O     O_2   0.373852 0.297599 0.737869 -0.569388
C55   C     C_2   0.624880 0.898303 0.193655 0.440334
H17   H     H_    0.586338 0.838447 0.160395 0.015962
O21   O     O_2   0.694550 0.919947 0.138609 -0.502518
C56   C     C_2   0.401903 0.098683 0.817246 0.441128
H18   H     H_    0.337276 0.098333 0.865109 0.120418
O22   O     O_2   0.464659 0.137848 0.865413 -0.495468
C57   C     C_2   0.381219 0.894840 0.810006 0.406583
H19   H     H_    0.418091 0.833286 0.842509 0.056131
O23   O     O_2   0.313344 0.918045 0.867468 -0.512651
C58   C     C_2   0.626950 0.102407 0.193310 0.486641
H20   H     H_    0.697841 0.107477 0.172609 0.107333
O24   O     O_2   0.575033 0.135883 0.119930 -0.468116

loop_
_geom_bond_atom_site_label_1
_geom_bond_atom_site_label_2
_ccdc_geom_bond_type
C27   C29   S    
C19   C20   A    
C1    O4    A    
C4    C42   A    
C6    C9    A    
C55   H17   S    
C39   C41   A    
C51   H13   S    
C36   C48   S    
C45   H7    S    
C15   C19   A    
C17   C23   A    
C48   O14   D    
C18   C24   A    
C39   I1    S    
C35   C37   A    
C8    C42   A    
C29   C32   S    
C30   C31   S    
C58   H20   S    
C29   C33   S    
C47   O13   D    
C44   O10   D    
Cu1   O3    S    
C23   C57   S    
Cu2   O8    S    
C46   H8    S    
C45   O11   D    
C31   C33   S    
C18   C20   A    
C25   C34   S    
Cu2   O2    S    
C40   C42   A    
C35   C47   S    
C43   H5    S    
C13   C53   S    
C55   O21   D    
C51   O17   D    
C27   C34   S    
C43   O9    D    
C22   C56   S    
C48   H10   S    
C12   C52   S    
C27   C31   S    
C28   C32   S    
C4    C6    A    
C53   H15   S    
C49   O15   D    
C30   C34   S    
Cu1   N1    S    
C26   O6    A    
C32   C34   S    
Cu1   Cu2   S    
C44   H6    S    
C11   N1    A    
C53   O19   D    
C21   C55   S    
Cu2   O6    S    
C26   C33   S    
C15   C21   A    
C16   C20   A    
C56   O22   D    
C57   O23   D    
C54   O20   D    
C1    O1    A    
C2    O2    A    
C1    C38   S    
C13   N1    A    
C40   I2    S    
Cu1   O5    S    
C52   O18   D    
C28   C33   S    
C9    H3    S    
C50   O16   D    
C13   C15   A    
C10   H4    S    
C29   C45   S    
C24   C58   S    
C25   O8    A    
C3    C4    A    
C7    C49   S    
Cu2   N2    S    
C7    C9    A    
C3    C41   A    
C16   C22   A    
C32   H2    S    
C8    C10   A    
C25   O5    A    
C3    C5    A    
C2    O3    A    
C11   C17   A    
C12   N2    A    
C28   C30   S    
C5    C10   A    
C37   C39   A    
C27   C43   S    
C38   C40   A    
C2    C37   S    
Cu1   O1    S    
C14   N2    A    
C58   O24   D    
C11   C51   S    
C5    C35   A    
C36   C38   A    
C56   H18   S    
C17   C19   A    
C6    C36   A    
C14   C16   A    
C7    C41   A    
C54   H16   S    
C26   O7    A    
Cu1   O7    S    
C49   H11   S    
Cu2   O4    S    
C8    C50   S    
C47   H9    S    
C52   H14   S    
C46   O12   D    
C50   H12   S    
C31   H1    S    
C21   C24   A    
C12   C18   A    
C57   H19   S    
C22   C23   A    
C14   C54   S    
C30   C46   S    
C28   C44   S    
