data_mof_unit_68178.cif
_audit_creation_date              2013-03-05T16:02:50-0500
_audit_creation_method            fapswitch 2.2
_symmetry_space_group_name_H-M    P1
_symmetry_Int_Tables_number       1
_space_group_crystal_system       triclinic
_cell_length_a                    7.214789
_cell_length_b                    15.559793
_cell_length_c                    16.734886
_cell_angle_alpha                 90.05101
_cell_angle_beta                  93.772892
_cell_angle_gamma                 90.124758
_cell_volume                      1874.59166944

loop_
_atom_site_label
_atom_site_type_symbol
_atom_site_description
_atom_site_fract_x
_atom_site_fract_y
_atom_site_fract_z
_atom_type_partial_charge
O1    O     O_R   0.611670 0.415650 0.164070 -0.545821
O2    O     O_R   0.388330 0.915650 0.835930 -0.583451
O3    O     O_R   0.940950 0.405490 0.337780 -0.633116
O4    O     O_R   0.059050 0.905490 0.662220 -0.635958
O5    O     O_R   0.111350 0.584350 0.338470 -0.628978
O6    O     O_R   0.888650 0.084350 0.661530 -0.635671
C1    C     C_R   0.778038 0.387287 0.371196 1.039055
C2    C     C_R   0.222250 0.886212 0.629620 1.028097
O7    O     O_R   0.941380 0.404630 0.164680 -0.576060
O8    O     O_R   0.058620 0.904630 0.835320 -0.546176
O9    O     O_R   0.111780 0.583470 0.164130 -0.556873
O10   O     O_R   0.888220 0.083470 0.835870 -0.537191
C3    C     C_R   0.767670 0.380617 0.137706 0.991259
C4    C     C_R   0.232053 0.880129 0.861785 0.919444
O11   O     O_R   0.611240 0.416530 0.338400 -0.648931
O12   O     O_R   0.388760 0.916530 0.661600 -0.641557
O13   O     O_3   0.778020 0.558680 0.251290 -0.314464
O14   O     O_3   0.221980 0.058680 0.748710 -0.329738
V1    V     V_3+5 0.052840 0.489110 0.251260 1.159957
V2    V     V_3+5 0.947160 0.989110 0.748740 1.170339
O15   O     O_R   0.441500 0.594510 0.164760 -0.572867
O16   O     O_R   0.558500 0.094510 0.835240 -0.615939
C5    C     C_R   0.267571 0.618392 0.137598 0.946069
C6    C     C_R   0.733326 0.120266 0.860747 0.972686
O17   O     O_R   0.441080 0.595370 0.337860 -0.665813
O18   O     O_R   0.558920 0.095370 0.662140 -0.658014
C7    C     C_R   0.274235 0.620358 0.363932 0.952221
C8    C     C_R   0.725994 0.120175 0.635787 0.932599
V3    V     V_3+5 0.552850 0.510890 0.251270 1.154695
V4    V     V_3+5 0.447150 0.010890 0.748730 1.134803
O19   O     O_3   0.277800 0.441320 0.251250 -0.336085
O20   O     O_3   0.722200 0.941320 0.748750 -0.322631
C9    C     C_3   0.119600 0.665173 0.500261 0.708977
C10   C     C_3   0.871645 0.164033 0.494845 0.683263
C11   C     C_3   0.108946 0.731392 0.574897 0.832578
C12   C     C_3   0.890292 0.234361 0.425495 0.852615
C13   C     C_3   0.219346 0.786674 0.396507 0.823776
C14   C     C_3   0.784803 0.285750 0.604042 0.780735
C15   C     C_3   0.459612 0.704721 0.488473 0.884934
C16   C     C_3   0.538587 0.205422 0.512792 0.916550
C17   C     C_3   0.266167 0.691698 0.434274 -0.762898
C18   C     C_3   0.733521 0.191252 0.564957 -0.725680
C19   C     C_3   0.225584 0.814508 0.556386 -0.704873
C20   C     C_3   0.775446 0.316205 0.445173 -0.698527
C21   C     C_3   0.143526 0.846316 0.465499 0.903446
C22   C     C_3   0.861488 0.346726 0.536032 0.896967
C23   C     C_3   0.436905 0.781398 0.552096 0.774536
C24   C     C_3   0.562388 0.282703 0.449534 0.780953
C25   C     C_R   0.120643 0.917468 0.025584 0.347873
C26   C     C_R   0.881841 0.417913 0.972866 0.328056
C27   C     C_R   0.054152 0.936240 0.099930 0.328273
C28   C     C_R   0.951156 0.434898 0.898372 0.316456
C29   C     C_R   0.993653 0.868437 0.145723 0.258676
C30   C     C_R   0.018229 0.366494 0.854663 0.256024
C31   C     C_R   0.026121 0.783043 0.121786 0.410896
C32   C     C_R   0.980791 0.282186 0.877824 0.445693
C33   C     C_R   0.161958 0.766258 0.067763 -0.187308
C34   C     C_R   0.843420 0.266763 0.931530 -0.213007
C35   C     C_R   0.180766 0.832330 0.008007 -0.150078
C36   C     C_R   0.823143 0.332898 0.991267 -0.132406
C37   C     C_R   0.248697 0.682623 0.064253 -0.128149
C38   C     C_R   0.757812 0.183702 0.935098 -0.088414
C39   C     C_R   0.321086 0.661665 0.988766 -0.096613
C40   C     C_R   0.692631 0.161913 0.011461 -0.147049
C41   C     C_R   0.328239 0.726739 0.926080 -0.150191
C42   C     C_R   0.673645 0.227021 0.072948 -0.178791
C43   C     C_R   0.250880 0.812477 0.932572 -0.098652
C44   C     C_R   0.748827 0.313431 0.066426 -0.102717
C45   C     C_R   0.381297 0.575429 0.972179 0.370201
C46   C     C_R   0.658071 0.073725 0.028981 0.497975
C47   C     C_R   0.433831 0.554053 0.894508 0.203706
C48   C     C_R   0.589949 0.051155 0.103985 0.208631
C49   C     C_R   0.449832 0.618871 0.838018 0.491097
C50   C     C_R   0.555035 0.115958 0.159483 0.375541
C51   C     C_R   0.419952 0.703689 0.858036 0.216861
C52   C     C_R   0.579501 0.201986 0.140194 0.265078
O21   O     O_3   0.942073 0.660353 0.462972 -0.718155
H1    H     H_    0.915789 0.601195 0.443277 0.358468
O22   O     O_3   0.048509 0.143518 0.528854 -0.769443
H2    H     H_    0.052162 0.081710 0.543456 0.350060
O23   O     O_3   0.545342 0.854455 0.531019 -0.671432
C53   C     C_3   0.688658 0.884229 0.587355 0.238983
H3    H     H_    0.811870 0.903621 0.558419 0.149314
H4    H     H_    0.731706 0.842910 0.638163 0.173426
H5    H     H_    0.655023 0.945196 0.613152 0.090086
O24   O     O_3   0.454718 0.355604 0.470993 -0.671635
C54   C     C_3   0.311431 0.385741 0.414924 0.240721
H6    H     H_    0.190880 0.407970 0.444794 0.164510
H7    H     H_    0.266262 0.344065 0.364587 0.168207
H8    H     H_    0.347441 0.445252 0.387157 0.094055
O25   O     O_3   0.388718 0.823011 0.373230 -0.645998
C55   C     C_3   0.424020 0.807813 0.291803 -0.168937
H9    H     H_    0.341753 0.852357 0.251739 0.136803
H10   H     H_    0.396083 0.740817 0.272584 0.121999
H11   H     H_    0.571396 0.821328 0.283468 0.162272
O26   O     O_3   0.616915 0.323702 0.627342 -0.643739
C56   C     C_3   0.580323 0.309167 0.708754 -0.129318
H12   H     H_    0.668854 0.350975 0.749353 0.147449
H13   H     H_    0.597762 0.241223 0.726854 0.127936
H14   H     H_    0.436321 0.327421 0.717747 0.155941
O27   O     O_3   0.184209 0.936259 0.458349 -0.679580
C57   C     C_3   0.188220 0.973095 0.379901 -0.223541
H15   H     H_    0.176262 0.043520 0.385488 0.162084
H16   H     H_    0.081662 0.952907 0.334761 0.144850
H17   H     H_    0.321908 0.964282 0.353493 0.184373
O28   O     O_3   0.819025 0.436123 0.543285 -0.657947
C58   C     C_3   0.822155 0.472494 0.621754 -0.174009
H18   H     H_    0.860681 0.541256 0.618036 0.187072
H19   H     H_    0.913540 0.442893 0.668229 0.157965
H20   H     H_    0.685930 0.469184 0.645830 0.158390
O29   O     O_3   0.525947 0.604255 0.765740 -0.573190
C59   C     C_3   0.419205 0.544632 0.719774 -0.132429
H21   H     H_    0.455274 0.553450 0.658363 0.191138
H22   H     H_    0.268277 0.554670 0.721198 0.126136
H23   H     H_    0.456774 0.477925 0.735537 0.147645
O30   O     O_3   0.480011 0.097581 0.231696 -0.593570
C60   C     C_3   0.604002 0.047616 0.280718 -0.064422
H24   H     H_    0.580970 0.063509 0.343020 0.245767
H25   H     H_    0.752360 0.059722 0.271533 0.123568
H26   H     H_    0.574066 0.978355 0.273638 0.099693
O31   O     O_3   0.070566 0.974198 0.964862 -0.569371
C61   C     C_3   0.185033 0.046892 0.965796 0.100170
H27   H     H_    0.317539 0.038747 0.000189 -0.042918
H28   H     H_    0.108995 0.102550 0.988593 0.166176
H29   H     H_    0.218282 0.060183 0.903567 0.188593
O32   O     O_3   0.915704 0.477579 0.033164 -0.642764
C62   C     C_3   0.833302 0.557531 0.017489 0.080795
H30   H     H_    0.747456 0.561751 0.961266 0.097978
H31   H     H_    0.942249 0.606835 0.014597 0.164217
H32   H     H_    0.749152 0.571299 0.068263 0.191130
O33   O     O_3   0.976497 0.015840 0.110432 -0.586091
C63   C     C_3   0.105776 0.069013 0.151644 -0.279070
H33   H     H_    0.233990 0.071604 0.121095 0.146721
H34   H     H_    0.131539 0.047836 0.214661 0.154650
H35   H     H_    0.053914 0.135543 0.148112 0.170593
O34   O     O_3   0.005113 0.517478 0.881744 -0.641087
C64   C     C_3   0.899452 0.546070 0.813675 -0.266542
H36   H     H_    0.775707 0.506068 0.795997 0.203981
H37   H     H_    0.986723 0.545438 0.762514 0.120120
H38   H     H_    0.854367 0.612677 0.825246 0.204864
O35   O     O_3   0.868864 0.883858 0.202545 -0.751581
H39   H     H_    0.880595 0.943854 0.220963 0.340202
O36   O     O_3   0.150209 0.379117 0.800254 -0.780912
H40   H     H_    0.189567 0.439553 0.800041 0.359300
O37   O     O_3   0.895013 0.719755 0.132751 -0.613826
C65   C     C_3   0.725583 0.742117 0.090932 -0.266722
H41   H     H_    0.742761 0.749933 0.025742 0.110120
H42   H     H_    0.658174 0.798076 0.117715 0.211342
H43   H     H_    0.625911 0.690299 0.096933 0.178416
O38   O     O_3   0.115083 0.219991 0.869749 -0.609910
C66   C     C_3   0.274711 0.241661 0.919709 -0.263805
H44   H     H_    0.240227 0.254113 0.982599 0.117964
H45   H     H_    0.351681 0.296771 0.895894 0.194058
H46   H     H_    0.371643 0.187341 0.921139 0.153815
O39   O     O_3   0.430023 0.519175 0.034381 -0.653733
C67   C     C_3   0.322495 0.443435 0.032298 -0.034520
H47   H     H_    0.414135 0.387481 0.043116 0.122483
H48   H     H_    0.250460 0.430460 0.974147 0.119894
H49   H     H_    0.227710 0.444412 0.081358 0.217640
O40   O     O_3   0.722941 0.013784 0.975185 -0.598373
C68   C     C_3   0.653153 0.929945 0.977329 0.154236
H50   H     H_    0.502050 0.928367 0.982166 0.081064
H51   H     H_    0.727315 0.894775 0.025892 0.132807
H52   H     H_    0.685786 0.896681 0.921404 0.159249
O41   O     O_3   0.499012 0.473706 0.875222 -0.805303
H53   H     H_    0.534801 0.440368 0.923520 0.329742
O42   O     O_3   0.553047 0.966520 0.121564 -0.774335
H54   H     H_    0.441804 0.963715 0.152949 0.305352
O43   O     O_3   0.155128 0.582541 0.528194 -0.829711
H55   H     H_    0.237284 0.583871 0.576590 0.336803
O44   O     O_3   0.806737 0.090816 0.454777 -0.818662
H56   H     H_    0.895860 0.077447 0.414054 0.313768
O45   O     O_3   0.481196 0.763940 0.807722 -0.692875
H57   H     H_    0.368823 0.776490 0.773235 0.314654
O46   O     O_3   0.513279 0.261167 0.190548 -0.690695
H58   H     H_    0.623956 0.275912 0.225438 0.315161
O47   O     O_3   0.178839 0.695341 0.649920 -0.653662
C69   C     C_3   0.061645 0.706147 0.714271 -0.242391
H59   H     H_    0.927579 0.672307 0.703582 0.169624
H60   H     H_    0.036741 0.774075 0.728104 0.184095
H61   H     H_    0.127514 0.677635 0.768761 0.131577
O48   O     O_3   0.818492 0.203159 0.348755 -0.631457
C70   C     C_3   0.945776 0.204784 0.287806 -0.278447
H62   H     H_    0.053499 0.154928 0.298356 0.149908
H63   H     H_    0.009397 0.268659 0.279880 0.206668
H64   H     H_    0.871243 0.189119 0.230879 0.132260
O49   O     O_3   0.921965 0.753394 0.580118 -0.711098
H65   H     H_    0.846032 0.700520 0.584069 0.386833
O50   O     O_3   0.079061 0.254459 0.422982 -0.722202
H66   H     H_    0.152095 0.201653 0.414847 0.378189
O51   O     O_3   0.088177 0.798320 0.328853 -0.688340
C71   C     C_3   0.971285 0.732706 0.299445 0.022904
H67   H     H_    0.898958 0.697587 0.341937 0.179497
H68   H     H_    0.045111 0.695027 0.256758 0.170177
H69   H     H_    0.848326 0.759466 0.267506 0.193008
O52   O     O_3   0.912887 0.293130 0.673775 -0.691230
C72   C     C_3   0.045390 0.230488 0.694502 -0.004483
H70   H     H_    0.099121 0.198304 0.645206 0.201394
H71   H     H_    0.991878 0.189707 0.740729 0.193333
H72   H     H_    0.171288 0.258621 0.723437 0.185511
O53   O     O_3   0.946346 0.831551 0.459089 -0.573616
C73   C     C_3   0.833482 0.888848 0.412379 -0.057418
H73   H     H_    0.842742 0.884733 0.347913 0.144711
H74   H     H_    0.849910 0.951744 0.436642 0.144410
H75   H     H_    0.688289 0.874025 0.417011 0.248751
O54   O     O_3   0.059295 0.333518 0.542440 -0.577682
C74   C     C_3   0.170741 0.389085 0.592807 -0.090147
H76   H     H_    0.163436 0.379440 0.656624 0.156766
H77   H     H_    0.144630 0.454437 0.578329 0.165389
H78   H     H_    0.317047 0.379653 0.585008 0.242223
O55   O     O_3   0.608451 0.728400 0.443218 -0.658246
H79   H     H_    0.632678 0.683422 0.404559 0.342077
O56   O     O_3   0.393140 0.228718 0.560111 -0.675211
H80   H     H_    0.357253 0.178931 0.591237 0.341319
O57   O     O_3   0.519324 0.631915 0.535694 -0.637278
C75   C     C_3   0.530706 0.553576 0.496059 -0.081181
H81   H     H_    0.647391 0.548855 0.457288 0.175191
H82   H     H_    0.401749 0.536610 0.467429 0.119981
H83   H     H_    0.530883 0.502183 0.539732 0.187271
O58   O     O_3   0.475103 0.132832 0.465309 -0.609411
C76   C     C_3   0.469367 0.053368 0.503876 0.024907
H84   H     H_    0.351263 0.046176 0.541948 0.157749
H85   H     H_    0.598667 0.036800 0.532872 0.103735
H86   H     H_    0.475706 0.003016 0.459169 0.181315
O59   O     O_3   0.503858 0.744927 0.625924 -0.696300
H87   H     H_    0.490219 0.784493 0.669372 0.353939
O60   O     O_3   0.493921 0.246311 0.375624 -0.695620
H88   H     H_    0.508287 0.285107 0.331544 0.352980

loop_
_geom_bond_atom_site_label_1
_geom_bond_atom_site_label_2
_geom_bond_distance
_ccdc_geom_bond_type
C34   C38   1.434186 A    
C42   C44   1.455590 A    
O44   H56   0.989524 S    
C39   C41   1.461905 A    
C11   O47   1.436794 S    
O32   C62   1.397557 S    
O11   V3    2.094016 S    
C51   O45   1.353396 S    
C60   H24   1.094687 S    
C58   H19   1.089139 S    
O43   H55   0.971821 S    
O29   C59   1.401119 S    
C10   C18   1.644376 S    
C2    C19   1.657982 S    
O4    C2    1.363746 A    
V1    O19   1.786754 S    
C68   H52   1.108105 S    
C59   H22   1.102204 S    
O37   C65   1.412385 S    
C15   C17   1.625867 S    
O21   H1    0.991138 S    
C64   H37   1.095703 S    
O9    V1    2.131969 S    
O41   H53   0.981280 S    
C73   H74   1.062601 S    
O16   C6    1.363974 A    
C67   H47   1.102240 S    
C75   H82   1.051153 S    
C14   C18   1.640351 S    
C76   H86   1.085948 S    
O3    C1    1.363740 A    
C60   H25   1.107081 S    
C33   C35   1.447225 A    
C31   O37   1.384659 S    
O28   C58   1.428255 S    
O12   V4    2.090907 S    
O36   H40   0.981800 S    
O13   V3    1.785158 S    
O30   C60   1.409006 S    
C57   H17   1.095899 S    
C72   H71   1.090536 S    
O53   C73   1.410516 S    
C66   H46   1.097464 S    
C8    C18   1.625297 S    
C45   C47   1.417191 A    
O7    C3    1.355470 A    
O48   C70   1.416865 S    
O58   C76   1.397057 S    
C38   C40   1.431210 A    
C35   C43   1.424420 A    
O5    C7    1.344370 A    
O7    V1    2.076669 S    
O6    C8    1.345453 A    
C39   C45   1.443606 A    
O8    V2    2.080515 S    
C63   H33   1.086640 S    
C25   C27   1.393512 A    
C73   H75   1.079910 S    
C16   O56   1.403618 S    
C74   H78   1.082385 S    
C26   C28   1.398620 A    
C66   H44   1.114184 S    
C75   H83   1.083770 S    
O3    V1    2.143264 S    
O14   V4    1.788103 S    
C40   C46   1.428248 A    
C11   C19   1.583338 S    
O14   V2    2.256978 S    
C16   C18   1.621364 S    
C30   O36   1.374025 S    
C9    O43   1.387106 S    
C2    O12   1.365515 A    
O45   H57   0.983780 S    
C16   O58   1.437084 S    
C66   H45   1.109139 S    
C49   C51   1.382171 A    
C72   H70   1.060107 S    
C62   H31   1.100529 S    
O1    V3    2.141508 S    
C59   H21   1.085364 S    
C68   H51   1.091366 S    
C28   C30   1.396246 A    
C56   H12   1.110427 S    
C34   C36   1.448376 A    
C65   H42   1.106973 S    
C29   C31   1.411925 A    
O15   C5    1.358912 A    
O17   V3    2.152436 S    
C64   H38   1.107613 S    
C30   C32   1.398992 A    
C46   C48   1.421825 A    
C73   H73   1.087127 S    
C13   O25   1.422917 S    
C74   H76   1.083300 S    
O27   C57   1.434957 S    
C69   H59   1.104392 S    
C49   O29   1.379782 S    
C75   H81   1.098706 S    
C46   O40   1.398310 S    
C48   C50   1.404623 A    
C14   O52   1.444415 S    
C56   H13   1.105147 S    
C70   H64   1.089831 S    
O25   C55   1.422336 S    
C47   C49   1.392752 A    
C24   O60   1.418329 S    
C27   O33   1.376379 S    
O24   C54   1.429779 S    
O52   C72   1.394730 S    
C1    O11   1.368346 A    
C20   C22   1.672140 S    
C41   C43   1.453960 A    
O56   H80   0.977807 S    
O15   V3    2.071004 S    
C55   H11   1.101293 S    
O23   C53   1.428782 S    
C12   O50   1.400049 S    
C27   C29   1.390784 A    
C40   C42   1.456431 A    
C72   H72   1.091403 S    
C70   H62   1.105347 S    
C71   H69   1.088878 S    
O55   H79   0.976479 S    
C76   H84   1.102587 S    
C32   O38   1.383691 S    
C10   O22   1.400212 S    
C65   H43   1.088313 S    
C7    C17   1.621193 S    
O60   H88   0.964315 S    
C23   O59   1.416241 S    
C4    C43   1.584767 S    
C25   O31   1.377310 S    
O26   C56   1.422910 S    
O10   V2    2.131456 S    
C55   H10   1.104861 S    
O59   H87   0.962422 S    
C15   O55   1.402938 S    
O50   H66   0.991177 S    
C45   O39   1.388551 S    
C1    C20   1.661821 S    
C57   H16   1.087409 S    
C19   C21   1.671208 S    
O31   C61   1.398528 S    
C21   O27   1.436032 S    
O47   C69   1.422335 S    
C63   H34   1.109203 S    
C26   O32   1.380126 S    
C11   O49   1.400780 S    
C13   O51   1.438873 S    
C76   H85   1.055406 S    
O18   V4    2.151866 S    
C53   H4    1.095383 S    
C31   C33   1.401183 A    
O8    C4    1.355227 A    
C28   O34   1.375769 S    
C48   O42   1.378823 S    
C24   O24   1.434889 S    
C60   H26   1.103389 S    
O1    C3    1.351358 A    
O2    V4    2.142029 S    
C50   C52   1.390823 A    
C58   H18   1.107696 S    
C61   H28   1.107040 S    
C62   H30   1.093967 S    
O42   H54   0.988584 S    
C56   H14   1.097507 S    
C15   C23   1.614137 S    
C65   H41   1.112774 S    
V2    O20   1.783811 S    
O51   C71   1.391572 S    
C22   O54   1.439311 S    
C16   C24   1.619065 S    
C6    C38   1.588004 S    
O16   V4    2.067185 S    
O54   C74   1.418091 S    
C52   O46   1.356402 S    
O34   C64   1.401702 S    
C25   C35   1.431159 A    
C69   H60   1.099479 S    
C33   C37   1.448033 A    
O5    V1    2.101574 S    
C67   H49   1.102667 S    
O17   C7    1.364335 A    
C53   H5    1.076673 S    
O6    V2    2.104700 S    
C64   H36   1.111083 S    
O10   C6    1.346688 A    
O18   C8    1.365541 A    
C41   C51   1.400926 A    
C15   O57   1.432610 S    
C58   H20   1.087609 S    
C9    C17   1.631127 S    
C71   H67   1.060590 S    
C61   H29   1.103555 S    
C67   H48   1.091100 S    
C62   H32   1.097554 S    
C26   C36   1.428088 A    
O49   H65   0.992083 S    
V3    O19   2.258386 S    
O46   H58   0.984266 S    
C68   H50   1.098699 S    
C50   O30   1.386067 S    
O40   C68   1.398627 S    
V4    O20   2.262526 S    
C9    O21   1.389195 S    
C19   C23   1.616435 S    
C63   H35   1.101826 S    
C22   O28   1.431740 S    
O9    C5    1.348791 A    
C55   H9    1.110154 S    
C9    C11   1.624279 S    
C10   C12   1.607681 S    
C32   C34   1.401517 A    
C29   O35   1.373179 S    
C23   O23   1.435915 S    
O57   C75   1.392364 S    
C13   C17   1.634994 S    
C57   H15   1.103746 S    
O2    C4    1.351249 A    
C14   C22   1.607536 S    
C69   H61   1.094901 S    
C12   C20   1.567324 S    
C10   O44   1.386291 S    
O22   H2    0.992474 S    
O4    V2    2.143833 S    
O13   V1    2.261117 S    
C20   C24   1.628281 S    
C5    C37   1.582637 S    
C12   O48   1.436511 S    
C36   C44   1.431775 A    
C54   H6    1.088206 S    
C21   O53   1.437550 S    
C53   H3    1.082358 S    
C47   O41   1.382055 S    
C54   H8    1.075386 S    
C14   O26   1.425769 S    
O39   C67   1.408662 S    
C74   H77   1.059934 S    
C54   H7    1.094668 S    
O38   C66   1.417805 S    
C70   H63   1.105592 S    
C61   H27   1.090648 S    
O35   H39   0.984555 S    
C13   C21   1.605283 S    
C59   H23   1.101223 S    
C42   C52   1.407035 A    
O33   C63   1.393241 S    
C71   H68   1.090158 S    
C37   C39   1.435893 A    
C3    C44   1.584311 S    
