data_mof_unit_35529.cif
_audit_creation_date              2012-12-11T15:24:02-0500
_audit_creation_method            fapswitch 2.2
_symmetry_space_group_name_H-M    P1
_symmetry_Int_Tables_number       1
_space_group_crystal_system       triclinic
_cell_length_a                    8.302002
_cell_length_b                    14.361504
_cell_length_c                    19.355192
_cell_angle_alpha                 94.454211
_cell_angle_beta                  95.553415
_cell_angle_gamma                 90.091174
_cell_volume                      2289.83967096

loop_
_atom_site_label
_atom_site_type_symbol
_atom_type_description
_atom_site_fract_x
_atom_site_fract_y
_atom_site_fract_z
_atom_type_partial_charge
Ba1   Ba    Ba6+2 0.150350 0.545800 0.464500 1.764983
Ba2   Ba    Ba6+2 0.659830 0.454190 0.535450 1.742053
C1    C     C_3   0.303435 0.773666 0.194028 -0.330142
C2    C     C_R   0.806713 0.808963 0.508161 -0.059096
C3    C     C_R   0.641307 0.789022 0.488924 -0.262252
C4    C     C_3   0.864400 0.800180 0.300296 0.373619
C5    C     C_R   0.547679 0.844054 0.444282 -0.018699
C6    C     C_R   0.605241 0.931942 0.431277 -0.146858
C7    C     C_R   0.756792 0.964925 0.462937 0.002502
C8    C     C_R   0.862124 0.902687 0.499261 -0.022639
C9    C     C_R   0.947098 0.097486 0.495124 -0.031164
C10   C     C_R   0.055884 0.034192 0.527866 0.005660
C11   C     C_R   0.989617 0.195468 0.499832 0.031570
C12   C     C_3   0.343897 0.748249 0.268478 0.340824
C13   C     C_R   0.137469 0.224564 0.535158 -0.267372
C14   C     C_R   0.246732 0.161752 0.564026 0.001124
C15   C     C_R   0.206868 0.066819 0.560443 -0.136842
C16   C     C_3   0.892399 0.899697 0.280306 0.353989
C17   C     C_R   0.802056 0.059759 0.459307 -0.039571
C18   C     C_R   0.599624 0.540716 0.296338 -0.343628
C19   C     C_R   0.460579 0.486154 0.275316 -0.000446
C20   C     C_R   0.407254 0.474070 0.202532 -0.141117
C21   C     C_R   0.498138 0.514867 0.153160 -0.067161
C22   C     C_R   0.644025 0.562155 0.177098 -0.050769
C23   C     C_3   0.596954 0.741355 0.702895 0.253949
C24   C     C_R   0.696472 0.573258 0.247744 0.002602
C25   C     C_R   0.458988 0.587104 0.038722 -0.120252
C26   C     C_R   0.413105 0.584849 0.966746 -0.025852
C27   C     C_R   0.356059 0.499644 0.929512 0.048188
C28   C     C_3   0.806649 0.320333 0.321262 0.225485
C29   C     C_R   0.351812 0.419372 0.966865 -0.049311
C30   C     C_R   0.399489 0.422938 0.038619 -0.082735
C31   C     C_R   0.449257 0.507621 0.075966 0.037879
C32   C     C_R   0.147947 0.449392 0.829283 -0.164459
C33   C     C_R   0.089682 0.446391 0.758575 -0.047858
C34   C     C_3   0.609748 0.752275 0.782156 -0.308043
C35   C     C_R   0.335034 0.524853 0.732824 -0.011222
C36   C     C_R   0.395336 0.524888 0.803433 -0.009587
C37   C     C_R   0.299333 0.491628 0.853056 0.067570
C38   C     C_R   0.180307 0.488238 0.711792 -0.281092
C39   C     C_3   0.772239 0.273429 0.246856 -0.227486
C40   C     C_3   0.068433 0.788028 0.671126 0.692438
C41   C     C_3   0.973686 0.876534 0.690552 -0.373213
C42   C     C_3   0.300663 0.266836 0.388492 0.313180
C43   C     C_3   0.294245 0.161163 0.373486 -0.369410
C44   C     C_2   0.758944 0.342471 0.192595 0.372539
C45   C     C_3   0.999931 0.215942 0.735585 0.441079
C46   C     C_2   0.900969 0.203682 0.230140 0.568509
C47   C     C_3   0.055235 0.720553 0.778217 0.274111
C48   C     C_2   0.082152 0.184207 0.802463 0.490929
C49   C     C_2   0.446431 0.270422 0.760481 0.547803
C50   C     C_2   0.475697 0.002807 0.741183 0.479878
C51   C     C_2   0.552173 0.724120 0.526157 0.481816
C52   C     C_2   0.422803 0.674942 0.935132 0.445780
C53   C     C_2   0.255443 0.423049 0.177382 0.568060
C54   C     C_2   0.105835 0.499798 0.641671 0.533452
C55   C     C_2   0.646171 0.565170 0.369895 0.617459
C56   C     C_3   0.931024 0.133991 0.686420 -0.209977
C57   C     C_3   0.708713 0.901898 0.181891 0.294831
C58   C     C_3   0.441941 0.172810 0.725078 0.256429
C59   C     C_3   0.493829 0.099545 0.776474 -0.168535
C60   C     C_R   0.013996 0.938861 0.528302 -0.036842
H1    H     H_    0.268850 0.686528 0.276056 0.088263
H2    H     H_    0.202666 0.141673 0.329008 0.131069
H3    H     H_    0.261436 0.126820 0.419478 0.057029
H4    H     H_    0.414542 0.135335 0.360469 0.121336
H5    H     H_    0.473854 0.730017 0.275818 -0.065622
H6    H     H_    0.334038 0.714675 0.157295 0.055016
H7    H     H_    0.700174 0.702865 0.683381 0.058946
H8    H     H_    0.604344 0.812096 0.684068 0.016026
H9    H     H_    0.640576 0.684727 0.803628 0.056396
H10   H     H_    0.706715 0.803307 0.802279 0.056544
H11   H     H_    0.494032 0.778231 0.800165 0.226902
H12   H     H_    0.653973 0.235917 0.244006 0.088711
H13   H     H_    0.372688 0.836710 0.184501 0.099292
H14   H     H_    0.813791 0.949927 0.307913 -0.045357
H15   H     H_    0.093431 0.250683 0.708660 -0.275922
H16   H     H_    0.871892 0.160357 0.637934 0.120252
H17   H     H_    0.029719 0.086370 0.672746 0.047016
H18   H     H_    0.840311 0.094217 0.711132 0.119403
H19   H     H_    0.315542 0.155114 0.704151 -0.102474
H20   H     H_    0.418644 0.105981 0.821119 0.129684
H21   H     H_    0.622492 0.111087 0.797220 0.103365
H22   H     H_    0.919193 0.795911 0.354675 0.004793
H23   H     H_    0.161852 0.806736 0.637582 0.042916
H24   H     H_    0.528895 0.975876 0.399110 0.077521
H25   H     H_    0.293700 0.018627 0.582878 0.058822
H26   H     H_    0.175092 0.296129 0.534467 0.113027
H27   H     H_    0.099902 0.894614 0.554202 0.063889
H28   H     H_    0.719821 0.104265 0.430528 0.112168
H29   H     H_    0.515042 0.552192 0.820236 0.057829
H30   H     H_    0.499080 0.652752 0.066572 0.046933
H31   H     H_    0.732283 0.787022 0.298501 -0.172391
H32   H     H_    0.312682 0.352949 0.940112 0.102820
H33   H     H_    0.398018 0.359038 0.064728 0.078901
H34   H     H_    0.059835 0.933856 0.709967 0.165298
H35   H     H_    0.074692 0.420000 0.865675 0.075390
H36   H     H_    0.720134 0.588333 0.140370 0.081627
H37   H     H_    0.018902 0.920501 0.299167 0.081978
H38   H     H_    0.695606 0.356020 0.336089 0.027569
H39   H     H_    0.908966 0.370777 0.324154 0.091358
H40   H     H_    0.649584 0.344107 0.157326 0.030887
H41   H     H_    0.026700 0.225464 0.233551 0.079855
H42   H     H_    0.930255 0.702535 0.756274 -0.039930
H43   H     H_    0.050656 0.772105 0.823747 0.096360
H44   H     H_    0.106823 0.654940 0.796414 0.081281
H45   H     H_    0.893719 0.865416 0.731736 0.088754
H46   H     H_    0.144091 0.235496 0.839936 -0.032046
H47   H     H_    0.397285 0.327255 0.731653 -0.042361
H48   H     H_    0.546662 0.982126 0.698402 -0.009898
H49   H     H_    0.459249 0.751459 0.557464 -0.003789
H50   H     H_    0.508971 0.728042 0.958425 0.007179
H51   H     H_    0.172997 0.450497 0.137087 0.036754
H52   H     H_    0.011890 0.550405 0.634296 0.042063
H53   H     H_    0.629478 0.635750 0.391134 -0.051007
H54   H     H_    0.634992 0.952912 0.211295 0.036676
H55   H     H_    0.660162 0.829861 0.182264 -0.009540
H56   H     H_    0.895677 0.898338 0.645210 0.014896
H57   H     H_    0.697593 0.919939 0.126957 0.075436
H58   H     H_    0.178953 0.292012 0.399095 -0.023357
H59   H     H_    0.388522 0.283858 0.434774 0.063135
H60   H     H_    0.172408 0.788424 0.184388 0.184240
O1    O     O_2   0.108370 0.727470 0.525290 -0.485270
O2    O     O_2   0.750752 0.438858 0.749459 -0.469628
O3    O     O_3   0.871593 0.274546 0.752477 -0.582621
O4    O     O_3   0.865330 0.611210 0.531230 -0.383620
O5    O     O_3   0.438280 0.453360 0.418700 -0.450080
O6    O     O_2   0.627420 0.543410 0.667830 -0.466839
O7    O     O_3   0.446678 0.702640 0.675396 -0.614820
O8    O     O_2   0.562937 0.167336 0.540749 -0.488177
O9    O     O_3   0.547643 0.167986 0.672370 -0.611424
O10   O     O_3   0.346360 0.671710 0.401620 -0.492194
O11   O     O_2   0.208874 0.832649 0.437362 -0.495157
O12   O     O_3   0.349055 0.306328 0.329866 -0.599581
O13   O     O_3   0.964096 0.716625 0.638318 -0.695220
O14   O     O_3   0.309994 0.824555 0.314527 -0.602802
O15   O     O_2   0.182890 0.456530 0.332150 -0.446663
O16   O     O_3   0.933230 0.625130 0.368420 -0.472604
O17   O     O_2   0.034597 0.562997 0.247898 -0.463661
O18   O     O_2   0.872237 0.393903 0.185457 -0.563712
O19   O     O_2   0.865151 0.122025 0.213488 -0.568760
O20   O     O_3   0.156344 0.755603 0.731039 -0.614366
O21   O     O_2   0.080675 0.102403 0.815679 -0.580188
O22   O     O_2   0.503936 0.287025 0.820709 -0.596893
O23   O     O_3   0.935869 0.735736 0.254233 -0.603081
O24   O     O_2   0.381412 0.947058 0.760194 -0.556936
O25   O     O_2   0.565970 0.640489 0.515419 -0.498452
O26   O     O_2   0.330229 0.693438 0.885615 -0.611461
O27   O     O_2   0.224944 0.347775 0.198336 -0.566694
O28   O     O_2   0.136235 0.445357 0.593416 -0.558857
O29   O     O_2   0.724095 0.510545 0.404470 -0.522690
O30   O     O_3   0.873868 0.905837 0.207320 -0.592870
O31   O     O_2   0.701930 0.272470 0.474700 -0.448053
O32   O     O_3   0.944970 0.388780 0.468720 -0.422249
O33   O     O_3   0.463940 0.328280 0.598320 -0.450281
O34   O     O_3   0.845434 0.249110 0.364868 -0.665188
O35   O     O_3   0.372010 0.546630 0.581240 -0.371704
O36   O     O_3   0.877070 0.374860 0.631520 -0.445494
P1    P     P_3+3 0.937730 0.712710 0.546710 0.990265
P2    P     P_3+3 0.357970 0.428340 0.344000 1.055762
P3    P     P_3+3 0.899616 0.623095 0.277861 0.980916
P4    P     P_3+3 0.872570 0.287280 0.453240 1.032356
P5    P     P_3+3 0.897663 0.385593 0.723737 1.019965
P6    P     P_3+3 0.353765 0.794138 0.400199 0.939487
P7    P     P_3+3 0.448402 0.579921 0.667995 1.033492
P8    P     P_3+3 0.451414 0.205808 0.595078 0.957471

loop_
_geom_bond_atom_site_label_1
_geom_bond_atom_site_label_2
_ccdc_geom_bond_type
O12   P2    S    
Ba2   O33   S    
C1    H6    S    
Ba1   O10   S    
C23   O7    S    
Ba2   P4    S    
C47   H42   S    
O10   P6    S    
C11   P4    S    
C55   H53   S    
C8    C60   A    
O4    P1    S    
C25   C31   A    
C44   H40   S    
C9    C17   A    
C12   O14   S    
C22   H36   S    
C49   O22   D    
C52   O26   D    
C26   C27   A    
C22   C24   A    
C32   C33   A    
C35   C38   A    
C59   H20   S    
C36   C37   A    
C2    P1    S    
C42   H58   S    
O33   P8    S    
C13   C14   A    
C60   H27   S    
C28   H38   S    
C42   H59   S    
C51   O25   D    
C32   H35   S    
C50   O24   D    
Ba1   Ba2   S    
C39   H12   S    
C7    C17   A    
O9    P8    S    
C14   P8    S    
C57   H54   S    
C38   C54   S    
C10   C15   A    
C40   O20   S    
C16   H14   S    
C39   C44   S    
C28   C39   S    
C45   O3    S    
C50   H48   S    
C1    H13   S    
C7    C8    A    
C1    H60   S    
C56   H18   S    
O2    P5    D    
Ba2   O5    S    
C51   H49   S    
C28   O34   S    
O34   P4    S    
C49   H47   S    
C19   C20   A    
C48   H46   S    
O3    P5    S    
C16   O30   S    
C58   O9    S    
C53   O27   D    
C45   C48   S    
C42   O12   S    
C4    C16   S    
O13   P1    S    
C32   C37   A    
Ba1   P1    S    
C4    H22   S    
Ba1   O4    S    
C59   H21   S    
O35   P7    S    
C3    C5    A    
C4    O23   S    
C26   C52   S    
C6    C7    A    
C47   H43   S    
C53   H51   S    
C21   C31   S    
C57   O30   S    
C46   H41   S    
C36   H29   S    
C33   P5    S    
C58   C59   S    
Ba1   O1    S    
C35   C36   A    
O23   P3    S    
C10   C60   A    
C58   H19   S    
O8    P8    D    
C29   C30   A    
O17   P3    D    
C21   C22   A    
C4    H31   S    
C12   H5    S    
C47   O20   S    
C27   C37   S    
C41   H34   S    
C52   H50   S    
C25   H30   S    
C40   H23   S    
C41   H45   S    
C18   C19   A    
C47   H44   S    
C1    C12   S    
C56   H17   S    
Ba2   O4    S    
Ba2   O31   S    
C11   C13   A    
C43   H3    S    
O6    P7    D    
C19   P2    S    
C23   H7    S    
C16   H37   S    
C45   H15   S    
C54   O28   D    
O11   P6    D    
C25   C26   A    
Ba1   O15   S    
C48   O21   D    
C44   O18   D    
O14   P6    S    
C3    C51   S    
C57   H57   S    
C24   P3    S    
O15   P2    D    
C23   C34   S    
C15   H25   S    
O32   P4    S    
Ba1   P2    S    
O36   P5    S    
C42   C43   S    
Ba1   O5    S    
C2    C3    A    
C18   C24   A    
C35   P7    S    
C9    C10   A    
C34   H9    S    
C20   C53   S    
C23   H8    S    
C29   H32   S    
C5    P6    S    
C43   H2    S    
O7    P7    S    
O31   P4    D    
C50   C59   S    
C30   C31   A    
Ba1   O35   S    
C33   C38   A    
C27   C29   A    
C17   H28   S    
Ba2   O32   S    
C45   C56   S    
C9    C11   A    
C14   C15   A    
O1    P1    D    
Ba2   O35   S    
C12   H1    S    
C55   O29   D    
C28   H39   S    
C39   C46   S    
C46   O19   D    
O16   P3    S    
C6    H24   S    
Ba1   O32   S    
C5    C6    A    
C34   H11   S    
C56   H16   S    
C41   H56   S    
C30   H33   S    
Ba2   O36   S    
C57   H55   S    
C40   C41   S    
C43   H4    S    
C54   H52   S    
C20   C21   A    
C40   O13   S    
C49   C58   S    
C18   C55   S    
C2    C8    A    
O5    P2    S    
Ba1   O16   S    
C34   H10   S    
C13   H26   S    
Ba2   O6    S    
