data_mof_unit_10718.cif
_audit_creation_date              2012-12-10T17:18:55-0500
_audit_creation_method            fapswitch 2.2
_symmetry_space_group_name_H-M    P1
_symmetry_Int_Tables_number       1
_space_group_crystal_system       triclinic
_cell_length_a                    10.254382
_cell_length_b                    10.888661
_cell_length_c                    13.457919
_cell_angle_alpha                 93.06831
_cell_angle_beta                  99.786792
_cell_angle_gamma                 95.8792
_cell_volume                      1469.14495619

loop_
_atom_site_label
_atom_site_type_symbol
_atom_type_description
_atom_site_fract_x
_atom_site_fract_y
_atom_site_fract_z
_atom_type_partial_charge
C1    C     C_R   0.054359 0.731873 0.495791 0.911437
C2    C     C_2   0.986790 0.057335 0.475655 -0.025723
C3    C     C_2   0.430133 0.516522 0.501424 0.149654
C4    C     C_2   0.569868 0.483467 0.498590 0.149691
C5    C     C_R   0.092956 0.515090 0.686904 0.876262
C6    C     C_R   0.907044 0.484911 0.313096 0.876265
C7    C     C_R   0.142043 0.531235 0.796885 -0.137129
C8    C     C_R   0.857963 0.468793 0.203114 -0.137165
C9    C     C_R   0.143668 0.617762 0.968794 0.408937
C10   C     C_R   0.856347 0.382308 0.031196 0.408925
C11   C     C_R   0.082260 0.598851 0.865979 -0.127028
C12   C     C_R   0.945644 0.268128 0.504216 0.911428
C13   C     C_R   0.917742 0.401189 0.134013 -0.127022
C14   C     C_R   0.261227 0.485703 0.831025 -0.099825
C15   C     C_R   0.738793 0.514348 0.168977 -0.099822
C16   C     C_R   0.334822 0.522103 0.926404 0.029323
C17   C     C_R   0.665199 0.477970 0.073595 0.029328
C18   C     C_R   0.269681 0.573698 0.001293 -0.092119
C19   C     C_R   0.730336 0.426376 0.998701 -0.092135
C20   C     C_R   0.470235 0.500435 0.949184 -0.093280
C21   C     C_R   0.529790 0.499651 0.050818 -0.093295
C22   C     C_1   0.042538 0.351799 0.166454 0.374899
C23   C     C_R   0.451171 0.518100 0.126543 0.319531
C24   C     C_1   0.957433 0.648201 0.833535 0.374868
C25   C     C_1   0.030796 0.080338 0.380239 0.287549
C26   C     C_1   0.969130 0.919624 0.619767 0.287588
C27   C     C_R   0.548849 0.481985 0.873457 0.319525
C28   C     C_R   0.330600 0.569879 0.103980 0.367932
C29   C     C_R   0.669412 0.430193 0.896012 0.367905
C30   C     C_2   0.081956 0.861705 0.482831 -0.348988
C31   C     C_2   0.918056 0.138303 0.517207 -0.348960
C32   C     C_2   0.013192 0.942657 0.524373 -0.025726
Cl1   Cl    Cl    0.257406 0.614397 0.208592 -0.480292
Cl2   Cl    Cl    0.742563 0.385615 0.791386 -0.480310
Cl3   Cl    Cl    0.062937 0.706466 0.049365 -0.530993
Cl4   Cl    Cl    0.937103 0.293650 0.950619 -0.531049
Cl5   Cl    Cl    0.485523 0.451341 0.244069 -0.557122
Cl6   Cl    Cl    0.514487 0.548748 0.755934 -0.557172
Cl7   Cl    Cl    0.665252 0.703314 0.584980 -0.447729
Cl8   Cl    Cl    0.334744 0.296699 0.414975 -0.447715
H1    H     H_    0.701247 0.577717 0.219037 0.202285
H2    H     H_    0.298783 0.422334 0.780972 0.202279
H3    H     H_    0.863093 0.114820 0.577063 0.189138
H4    H     H_    0.136964 0.885216 0.423005 0.189154
H5    H     H_    0.582695 0.396662 0.460336 0.172816
H6    H     H_    0.417307 0.603317 0.539694 0.172845
N1    N     N_2   0.322180 0.446120 0.460900 0.058436
N2    N     N_2   0.677820 0.553880 0.539100 0.058443
N3    N     N_1   0.142740 0.312521 0.191188 -0.040781
N4    N     N_1   0.857203 0.687440 0.808799 -0.040781
N5    N     N_1   0.065090 0.097173 0.304071 -0.114709
N6    N     N_1   0.934787 0.902761 0.695917 -0.114677
O1    O     O_R   0.935190 0.693030 0.507870 -0.570965
O2    O     O_R   0.064810 0.306970 0.492130 -0.570963
O3    O     O_R   0.142080 0.658430 0.482770 -0.596340
O4    O     O_R   0.857920 0.341570 0.517230 -0.596349
O5    O     O_R   0.969700 0.527180 0.651960 -0.576206
O6    O     O_R   0.030300 0.472820 0.348040 -0.576192
O7    O     O_R   0.176600 0.492580 0.626860 -0.603540
O8    O     O_R   0.823400 0.507420 0.373140 -0.603514
Zn1   Zn    Zn3+2 0.861850 0.523100 0.516760 1.094587
Zn2   Zn    Zn3+2 0.138150 0.476900 0.483240 1.094589

loop_
_geom_bond_atom_site_label_1
_geom_bond_atom_site_label_2
_ccdc_geom_bond_type
O6    Zn2   S    
Cl8   N1    S    
C7    C11   A    
C25   N5    T    
C26   C32   S    
C8    C13   A    
C20   C27   A    
C26   N6    T    
C27   C29   A    
C6    O6    A    
C3    H6    S    
C5    O5    A    
C10   C19   A    
C16   C20   A    
N1    Zn2   S    
C1    O3    A    
C23   C28   A    
C30   C32   D    
C9    C11   A    
C30   H4    S    
N2    Zn1   S    
C12   O4    A    
C31   H3    S    
C9    C18   A    
C22   N3    T    
C2    C31   D    
C2    C32   S    
C1    C30   S    
C17   C19   A    
C10   Cl4   S    
C13   C22   S    
C2    C25   S    
C5    C7    S    
C4    H5    S    
C21   C23   A    
C12   C31   S    
C24   N4    T    
C14   C16   A    
C28   Cl1   S    
C5    O7    A    
C27   Cl6   S    
C9    Cl3   S    
C3    C4    S    
C19   C29   A    
O3    Zn2   S    
C6    O8    A    
C11   C24   S    
C18   C28   A    
C20   C21   A    
C15   H1    S    
C16   C18   A    
C4    N2    D    
C3    N1    D    
O5    Zn1   S    
C15   C17   A    
C1    O1    A    
O4    Zn1   S    
Cl7   N2    S    
O7    Zn2   S    
C6    C8    S    
C8    C15   A    
O2    Zn2   S    
C23   Cl5   S    
C14   H2    S    
O1    Zn1   S    
C29   Cl2   S    
C7    C14   A    
C12   O2    A    
O8    Zn1   S    
C10   C13   A    
C17   C21   A    
