data_mof_unit_30146.cif
_audit_creation_date              2012-12-11T15:11:59-0500
_audit_creation_method            fapswitch 2.2
_symmetry_space_group_name_H-M    P1
_symmetry_Int_Tables_number       1
_space_group_crystal_system       triclinic
_cell_length_a                    30.429953
_cell_length_b                    22.189657
_cell_length_c                    18.028451
_cell_angle_alpha                 89.80933
_cell_angle_beta                  123.553935
_cell_angle_gamma                 89.785888
_cell_volume                      10144.575481

loop_
_atom_site_label
_atom_site_type_symbol
_atom_type_description
_atom_site_fract_x
_atom_site_fract_y
_atom_site_fract_z
_atom_type_partial_charge
C1    C     C_R   0.542176 0.586514 0.738491 -0.133367
C2    C     C_R   0.214996 0.637404 0.422731 0.142787
C3    C     C_R   0.373047 0.189271 0.127142 0.132348
C4    C     C_R   0.810372 0.155926 0.932113 0.148792
C5    C     C_R   0.190604 0.846795 0.069358 0.149048
C6    C     C_R   0.189979 0.156786 0.065776 0.162124
C7    C     C_R   0.860137 0.712446 0.096745 0.132301
C8    C     C_R   0.297052 0.814914 0.142749 0.085483
C9    C     C_R   0.703438 0.186002 0.857269 0.085929
C10   C     C_R   0.759711 0.671405 0.047429 0.082375
C11   C     C_R   0.296048 0.188725 0.138311 0.086505
C12   C     C_R   0.729506 0.145952 0.930678 0.088177
C13   C     C_R   0.268500 0.358665 0.582320 0.143603
C14   C     C_R   0.271170 0.855260 0.069637 0.088965
C15   C     C_R   0.270491 0.148559 0.065740 0.084834
C16   C     C_R   0.780993 0.723059 0.100376 0.100054
C17   C     C_R   0.728661 0.201651 0.813728 -0.220373
C18   C     C_R   0.271969 0.799762 0.186685 -0.219394
C19   C     C_R   0.270768 0.203912 0.181973 -0.227635
C20   C     C_R   0.792177 0.636246 0.030739 -0.210118
C21   C     C_R   0.300600 0.881928 0.039382 -0.227882
C22   C     C_R   0.700084 0.118824 0.960647 -0.229641
C23   C     C_R   0.754016 0.750112 0.135152 -0.249568
C24   C     C_R   0.734693 0.638373 0.423385 0.142365
C25   C     C_R   0.300167 0.121816 0.035970 -0.207387
C26   C     C_R   0.780815 0.185105 0.849236 -0.222719
C27   C     C_R   0.220113 0.817282 0.151990 -0.221390
C28   C     C_R   0.219103 0.186426 0.147668 -0.217504
C29   C     C_R   0.842340 0.655727 0.057521 -0.234669
C30   C     C_R   0.351734 0.862680 0.071747 -0.218485
C31   C     C_R   0.648739 0.137469 0.927796 -0.217828
C32   C     C_R   0.703372 0.732456 0.106575 -0.241632
C33   C     C_R   0.351255 0.140554 0.068419 -0.235013
C34   C     C_R   0.597259 0.579433 0.426217 -0.144298
C35   C     C_R   0.196541 0.715835 0.585182 0.139472
C36   C     C_R   0.403217 0.420679 0.574629 -0.143718
C37   C     C_R   0.403699 0.579800 0.575124 -0.126886
C38   C     C_R   0.596784 0.420757 0.425362 -0.140674
C39   C     C_R   0.073658 0.112593 0.425198 -0.131963
C40   C     C_R   0.926258 0.888122 0.575899 -0.132354
C41   C     C_R   0.926391 0.112783 0.574108 -0.132616
C42   C     C_R   0.075976 0.888072 0.426889 -0.127138
C43   C     C_R   0.394127 0.610314 0.294439 -0.129452
C44   C     C_R   0.605887 0.389742 0.705555 -0.130861
C45   C     C_R   0.616158 0.586649 0.740017 -0.128730
C46   C     C_R   0.858800 0.285023 0.580005 0.141828
C47   C     C_R   0.394092 0.390350 0.293942 -0.126435
C48   C     C_R   0.882136 0.081840 0.256192 -0.140833
C49   C     C_R   0.118042 0.918904 0.744220 -0.139119
C50   C     C_R   0.117876 0.081184 0.743565 -0.140558
C51   C     C_R   0.885459 0.907637 0.265448 -0.130969
C52   C     C_R   0.594378 0.603484 0.787970 0.069228
C53   C     C_R   0.422768 0.356634 0.268985 0.067229
C54   C     C_R   0.422884 0.644280 0.270003 0.064809
C55   C     C_R   0.577093 0.355726 0.729829 0.066053
C56   C     C_R   0.098357 0.095606 0.795197 0.074170
C57   C     C_R   0.858025 0.718390 0.587534 0.140731
C58   C     C_R   0.909112 0.882452 0.224969 0.073189
C59   C     C_R   0.901796 0.096539 0.204732 0.074451
C60   C     C_R   0.098618 0.904864 0.796176 0.074875
C61   C     C_R   0.647403 0.591621 0.500155 0.079035
C62   C     C_R   0.352901 0.408933 0.501450 0.083827
C63   C     C_R   0.353029 0.590930 0.502150 0.078908
C64   C     C_R   0.647293 0.409158 0.498492 0.083624
C65   C     C_R   0.108385 0.147216 0.499098 0.075167
C66   C     C_R   0.891008 0.853516 0.502945 0.074247
C67   C     C_R   0.891722 0.147750 0.499789 0.074788
C68   C     C_R   0.142161 0.283674 0.418211 0.142061
C69   C     C_R   0.110365 0.853233 0.501460 0.074238
C70   C     C_R   0.743575 0.387726 0.578616 -0.259673
C71   C     C_R   0.310792 0.612655 0.584585 -0.258837
C72   C     C_R   0.256931 0.386932 0.420601 -0.260072
C73   C     C_R   0.743148 0.614916 0.583705 -0.256937
C74   C     C_R   0.112986 0.762909 0.422299 -0.255976
C75   C     C_R   0.835525 0.237191 0.418260 -0.256065
C76   C     C_R   0.837637 0.762426 0.425160 -0.253400
C77   C     C_R   0.164536 0.235825 0.579927 -0.256896
C78   C     C_R   0.694555 0.396345 0.497875 0.115131
C79   C     C_R   0.778238 0.344666 0.497995 0.027842
C80   C     C_R   0.305912 0.603091 0.503382 0.115491
C81   C     C_R   0.305654 0.395449 0.501612 0.115539
C82   C     C_R   0.695312 0.604617 0.501856 0.115234
C83   C     C_R   0.128858 0.791745 0.502562 0.115637
C84   C     C_R   0.873412 0.209272 0.499330 0.115650
C85   C     C_R   0.873099 0.792428 0.505011 0.115410
C86   C     C_R   0.126996 0.208280 0.498989 0.115552
C87   C     C_R   0.690128 0.387091 0.416958 -0.258828
C88   C     C_R   0.256549 0.610801 0.422978 -0.258864
C89   C     C_R   0.309852 0.385438 0.582272 -0.259654
C90   C     C_R   0.222570 0.654595 0.504179 0.027838
C91   C     C_R   0.692765 0.612041 0.422187 -0.258415
C92   C     C_R   0.167024 0.764351 0.583874 -0.255848
C93   C     C_R   0.888358 0.237013 0.579869 -0.257776
C94   C     C_R   0.886742 0.766655 0.586437 -0.255831
C95   C     C_R   0.112614 0.235922 0.418321 -0.257286
C96   C     C_R   0.222197 0.342975 0.500589 0.027721
C97   C     C_R   0.467909 0.389787 0.294469 -0.136118
C98   C     C_R   0.779736 0.656355 0.505356 0.028327
C99   C     C_R   0.185968 0.693111 0.503984 0.027107
C100  C     C_R   0.815203 0.306656 0.498351 0.027158
C101  C     C_R   0.816502 0.694619 0.506194 0.028875
C102  C     C_R   0.185334 0.304981 0.499946 0.026869
C103  C     C_R   0.785248 0.361057 0.579303 0.143181
C104  C     C_R   0.269560 0.639134 0.585544 0.143317
C105  C     C_R   0.215430 0.359826 0.419469 0.143389
C106  C     C_R   0.785067 0.641722 0.585997 0.142010
C107  C     C_R   0.142069 0.714303 0.422343 0.141213
C108  C     C_R   0.467958 0.610667 0.295063 -0.134491
C109  C     C_R   0.805384 0.284989 0.417135 0.139283
C110  C     C_R   0.808354 0.714258 0.425107 0.138115
C111  C     C_R   0.194773 0.283194 0.581076 0.139770
C112  C     C_R   0.725015 0.344273 0.335898 -0.205396
C113  C     C_R   0.168169 0.652963 0.342095 -0.208140
C114  C     C_R   0.274741 0.341921 0.662681 -0.207291
C115  C     C_R   0.730227 0.652472 0.343662 -0.203476
C116  C     C_R   0.240212 0.694525 0.666081 -0.203544
C117  C     C_R   0.868383 0.306911 0.660482 -0.206690
C118  C     C_R   0.866231 0.698185 0.668021 -0.204617
C119  C     C_R   0.532046 0.389312 0.704894 -0.134166
C120  C     C_R   0.132903 0.305780 0.337816 -0.206053
C121  C     C_R   0.276699 0.656287 0.666258 -0.206687
C122  C     C_R   0.831693 0.344886 0.660128 -0.208052
C123  C     C_R   0.829859 0.659816 0.667258 -0.205349
C124  C     C_R   0.169420 0.343847 0.338448 -0.208820
C125  C     C_R   0.761903 0.306621 0.336235 -0.203101
C126  C     C_R   0.131744 0.691338 0.341899 -0.207323
C127  C     C_R   0.237887 0.304406 0.662058 -0.204303
C128  C     C_R   0.767233 0.689967 0.344766 -0.210527
C129  C     C_R   0.408986 0.705171 0.228803 0.124290
C130  C     C_R   0.045137 0.081419 0.743977 -0.145445
C131  C     C_R   0.590938 0.294763 0.770625 0.124053
C132  C     C_R   0.622604 0.626094 0.879409 0.122976
C133  C     C_R   0.408527 0.296474 0.226525 0.101275
C134  C     C_R   0.870475 0.112836 0.108830 0.117251
C135  C     C_R   0.130225 0.889599 0.892490 0.118096
C136  C     C_R   0.129938 0.112053 0.890762 0.124954
C137  C     C_R   0.890568 0.828685 0.168496 0.103167
C138  C     C_R   0.421225 0.786764 0.151259 0.006484
C139  C     C_R   0.578800 0.212826 0.847757 0.006660
C140  C     C_R   0.622465 0.682317 0.994600 0.004975
C141  C     C_R   0.958757 0.907057 0.266192 -0.142437
C142  C     C_R   0.421078 0.215671 0.148860 0.008735
C143  C     C_R   0.865511 0.148485 0.976096 0.018248
C144  C     C_R   0.135605 0.855155 0.026081 0.017559
C145  C     C_R   0.135251 0.147951 0.023106 0.010268
C146  C     C_R   0.908810 0.736333 0.117413 0.009477
C147  C     C_R   0.438245 0.732503 0.199355 -0.230698
C148  C     C_R   0.561636 0.267118 0.799748 -0.230438
C149  C     C_R   0.595281 0.651210 0.914121 -0.235223
C150  C     C_R   0.438057 0.269013 0.197656 -0.186398
C151  C     C_R   0.895094 0.127691 0.064541 -0.223443
C152  C     C_R   0.955023 0.081951 0.256223 -0.145372
C153  C     C_R   0.105868 0.875775 0.937542 -0.220881
C154  C     C_R   0.105654 0.126073 0.935851 -0.234026
C155  C     C_R   0.924175 0.793657 0.155264 -0.186280
C156  C     C_R   0.364752 0.735342 0.215915 -0.256443
C157  C     C_R   0.635252 0.264858 0.783514 -0.256476
C158  C     C_R   0.677456 0.625995 0.930229 -0.262152
C159  C     C_R   0.363771 0.267164 0.212031 -0.256321
C160  C     C_R   0.815445 0.115421 0.061908 -0.262282
C161  C     C_R   0.185248 0.886591 0.938972 -0.260022
C162  C     C_R   0.184874 0.116227 0.936376 -0.261012
C163  C     C_R   0.045255 0.918825 0.744363 -0.143918
C164  C     C_R   0.841591 0.806356 0.142371 -0.266717
C165  C     C_R   0.346029 0.789156 0.166438 0.053869
C166  C     C_R   0.654188 0.211155 0.833073 0.053866
C167  C     C_R   0.705550 0.659699 0.008088 0.054914
C168  C     C_R   0.345090 0.213927 0.162241 0.069122
C169  C     C_R   0.784648 0.136666 0.973861 0.060196
C170  C     C_R   0.216167 0.865362 0.027052 0.060967
C171  C     C_R   0.215646 0.138207 0.023672 0.055403
C172  C     C_R   0.827974 0.746997 0.115041 0.073605
C173  C     C_R   0.645737 0.580105 0.573839 -0.123597
C174  C     C_R   0.731558 0.360629 0.416457 0.142971
C175  C     C_R   0.353996 0.420856 0.427225 -0.142663
C176  C     C_R   0.353823 0.579093 0.427596 -0.144793
C177  C     C_R   0.646214 0.420867 0.572739 -0.144557
C178  C     C_R   0.123929 0.111972 0.573609 -0.131090
C179  C     C_R   0.874962 0.888428 0.427798 -0.126418
C180  C     C_R   0.876073 0.112425 0.425762 -0.130277
C181  C     C_R   0.124780 0.888220 0.574986 -0.131875
C182  C     C_R   0.373637 0.813659 0.130745 0.163296
C183  C     C_R   0.626589 0.186327 0.868574 0.162938
C184  C     C_R   0.677213 0.690467 0.038277 0.174620
H1    H     H_    0.515309 0.585154 0.759929 0.086968
H2    H     H_    0.342586 0.714091 0.238688 0.119324
H3    H     H_    0.546120 0.218358 0.919257 0.104198
H4    H     H_    0.573591 0.675922 0.037011 0.100270
H5    H     H_    0.565794 0.739306 0.978542 0.108111
H6    H     H_    0.462312 0.146692 0.141625 0.106739
H7    H     H_    0.429491 0.191244 0.049069 0.099562
H8    H     H_    0.932504 0.161257 0.976388 0.096648
H9    H     H_    0.880539 0.134010 0.881863 0.099058
H10   H     H_    0.068870 0.843994 0.027036 0.100786
H11   H     H_    0.121487 0.870712 0.121163 0.100355
H12   H     H_    0.089964 0.125659 0.068751 0.103303
H13   H     H_    0.341280 0.288618 0.234067 0.119513
H14   H     H_    0.080292 0.196405 0.027237 0.102414
H15   H     H_    0.954020 0.662699 0.139050 0.107012
H16   H     H_    0.924168 0.693213 0.035256 0.100719
H17   H     H_    0.697651 0.604953 0.903495 0.118472
H18   H     H_    0.203616 0.896008 0.903728 0.117038
H19   H     H_    0.796928 0.105388 0.096725 0.118434
H20   H     H_    0.813917 0.835718 0.144003 0.123143
H21   H     H_    0.203171 0.106939 0.900989 0.116084
H22   H     H_    0.526365 0.288320 0.788487 0.116205
H23   H     H_    0.473400 0.711080 0.210460 0.116046
H24   H     H_    0.473567 0.289791 0.209920 0.121429
H25   H     H_    0.499537 0.377279 0.286954 0.094892
H26   H     H_    0.552687 0.649913 0.877042 0.117270
H27   H     H_    0.063484 0.878905 0.903343 0.111255
H28   H     H_    0.937534 0.125102 0.099233 0.111074
H29   H     H_    0.962817 0.809876 0.175889 0.115840
H30   H     H_    0.063397 0.122405 0.902873 0.113259
H31   H     H_    0.708492 0.226248 0.751438 0.135422
H32   H     H_    0.292053 0.774882 0.248730 0.135380
H33   H     H_    0.290587 0.228618 0.243684 0.136274
H34   H     H_    0.779820 0.592921 0.998552 0.129812
H35   H     H_    0.284825 0.918267 0.991137 0.130539
H36   H     H_    0.499711 0.623236 0.288052 0.095192
H37   H     H_    0.716029 0.082627 0.009107 0.132988
H38   H     H_    0.771744 0.784790 0.185292 0.127318
H39   H     H_    0.284730 0.085553 0.988303 0.127299
H40   H     H_    0.678595 0.575975 0.642251 0.083489
H41   H     H_    0.320594 0.425741 0.359387 0.085152
H42   H     H_    0.320215 0.574119 0.360088 0.086640
H43   H     H_    0.679697 0.425739 0.640381 0.084740
H44   H     H_    0.150569 0.123880 0.642474 0.095264
H45   H     H_    0.846252 0.876495 0.359930 0.088962
H46   H     H_    0.849451 0.124674 0.356766 0.095737
H47   H     H_    0.500328 0.376680 0.711949 0.094628
H48   H     H_    0.151110 0.876223 0.644144 0.095787
H49   H     H_    0.586133 0.575111 0.358275 0.085625
H50   H     H_    0.414867 0.425031 0.642841 0.084280
H51   H     H_    0.416101 0.575875 0.643812 0.082638
H52   H     H_    0.584880 0.425303 0.356991 0.084643
H53   H     H_    0.053432 0.125524 0.356142 0.095227
H54   H     H_    0.946933 0.875708 0.645178 0.095684
H55   H     H_    0.946712 0.125593 0.642988 0.095221
H56   H     H_    0.058891 0.875787 0.358818 0.088905
H57   H     H_    0.357133 0.621739 0.285945 0.094126
H58   H     H_    0.019494 0.077420 0.767653 0.085076
H59   H     H_    0.642901 0.378411 0.714094 0.093436
H60   H     H_    0.657105 0.587177 0.761807 0.087633
H61   H     H_    0.357061 0.379293 0.285235 0.092824
H62   H     H_    0.841255 0.078033 0.233848 0.084588
H63   H     H_    0.158881 0.923148 0.766496 0.082545
H64   H     H_    0.158727 0.076977 0.765683 0.082640
H65   H     H_    0.844695 0.904861 0.243836 0.080265
H66   H     H_    0.748520 0.396672 0.641687 0.115490
H67   H     H_    0.347858 0.604718 0.647289 0.114797
H68   H     H_    0.252107 0.396392 0.357665 0.115576
H69   H     H_    0.985046 0.903921 0.243837 0.082883
H70   H     H_    0.746846 0.607383 0.646146 0.115573
H71   H     H_    0.081427 0.781265 0.359151 0.117826
H72   H     H_    0.825597 0.218512 0.355514 0.119768
H73   H     H_    0.829086 0.779515 0.362187 0.117769
H74   H     H_    0.174052 0.217252 0.642715 0.119506
H75   H     H_    0.653300 0.395529 0.354058 0.115504
H76   H     H_    0.251247 0.601350 0.359758 0.115979
H77   H     H_    0.346461 0.393681 0.645315 0.115140
H78   H     H_    0.656977 0.602054 0.358738 0.115499
H79   H     H_    0.177634 0.783842 0.646534 0.119440
H80   H     H_    0.980809 0.077823 0.232834 0.085936
H81   H     H_    0.919405 0.218026 0.642942 0.117494
H82   H     H_    0.915954 0.787249 0.648971 0.117644
H83   H     H_    0.081938 0.217140 0.355298 0.117857
H84   H     H_    0.689740 0.357187 0.272783 0.129354
H85   H     H_    0.161514 0.639058 0.279104 0.130263
H86   H     H_    0.309711 0.354579 0.725922 0.128729
H87   H     H_    0.696480 0.637791 0.280261 0.132694
H88   H     H_    0.248205 0.710901 0.728949 0.131772
H89   H     H_    0.902217 0.291353 0.723641 0.129109
H90   H     H_    0.898584 0.715306 0.731080 0.129169
H91   H     H_    0.019544 0.923319 0.767845 0.084932
H92   H     H_    0.099411 0.290468 0.274583 0.129121
H93   H     H_    0.312212 0.643714 0.729254 0.128359
H94   H     H_    0.837881 0.358098 0.723043 0.129587
H95   H     H_    0.834790 0.647877 0.729795 0.128151
H96   H     H_    0.163444 0.357372 0.275655 0.129200
H97   H     H_    0.754424 0.291013 0.273365 0.132097
H98   H     H_    0.097612 0.706473 0.278784 0.131925
H99   H     H_    0.245088 0.288653 0.724853 0.131553
H100  H     H_    0.761679 0.703250 0.282564 0.151332
H101  H     H_    0.798731 0.199138 0.814232 0.143327
H102  H     H_    0.657389 0.286299 0.760857 0.119250
H103  H     H_    0.202306 0.803686 0.187347 0.143486
H104  H     H_    0.201126 0.199813 0.182844 0.147026
H105  H     H_    0.865830 0.627176 0.043631 0.128066
H106  H     H_    0.372466 0.883695 0.045404 0.143772
H107  H     H_    0.628041 0.116186 0.954013 0.145000
H108  H     H_    0.683563 0.755450 0.133203 0.148014
H109  H     H_    0.372001 0.118924 0.042577 0.127169
H110  H     H_    0.489071 0.820794 0.174098 0.110968
H111  H     H_    0.453568 0.780711 0.079274 0.102481
H112  H     H_    0.511048 0.178172 0.824457 0.110502
N1    N     N_R   0.532970 0.559900 0.665210 -0.039864
N2    N     N_R   0.402100 0.440070 0.454470 -0.036538
N3    N     N_R   0.402100 0.559930 0.454470 -0.037561
N4    N     N_R   0.597900 0.440070 0.545530 -0.036996
N5    N     N_R   0.097900 0.059930 0.545530 -0.042241
N6    N     N_R   0.902100 0.940070 0.454470 -0.041878
N7    N     N_R   0.902100 0.059930 0.454470 -0.042291
N8    N     N_R   0.097900 0.940070 0.545530 -0.042216
N9    N     N_R   0.567170 0.559950 0.454460 -0.038233
N10   N     N_R   0.432830 0.440050 0.545540 -0.037462
N11   N     N_R   0.432830 0.559950 0.545540 -0.038292
N12   N     N_R   0.467030 0.440100 0.334790 -0.041245
N13   N     N_R   0.567170 0.440050 0.454460 -0.037210
N14   N     N_R   0.067170 0.059950 0.454460 -0.042581
N15   N     N_R   0.932830 0.940050 0.545540 -0.042613
N16   N     N_R   0.932830 0.059950 0.545540 -0.042673
N17   N     N_R   0.067170 0.940050 0.454460 -0.042255
N18   N     N_R   0.421470 0.559970 0.334770 -0.041264
N19   N     N_R   0.578530 0.440030 0.665230 -0.040792
N20   N     N_R   0.578530 0.559970 0.665230 -0.040395
N21   N     N_R   0.421470 0.440030 0.334770 -0.041481
N22   N     N_R   0.921470 0.059970 0.334770 -0.037396
N23   N     N_R   0.467030 0.559900 0.334790 -0.041510
N24   N     N_R   0.078530 0.940030 0.665230 -0.036557
N25   N     N_R   0.078530 0.059970 0.665230 -0.036282
N26   N     N_R   0.921470 0.940030 0.334770 -0.036662
N27   N     N_3   0.450904 0.812578 0.119247 -0.225652
N28   N     N_3   0.549101 0.186628 0.879470 -0.225476
N29   N     N_3   0.593801 0.709829 0.027487 -0.227022
N30   N     N_3   0.452152 0.191131 0.118648 -0.218428
N31   N     N_3   0.891581 0.165160 0.932584 -0.220961
N32   N     N_3   0.109775 0.839441 0.070341 -0.220306
N33   N     N_3   0.109097 0.163944 0.066399 -0.226154
N34   N     N_R   0.532970 0.440100 0.665210 -0.040805
N35   N     N_3   0.943896 0.703086 0.103016 -0.221202
N36   N     N_R   0.032970 0.059900 0.665210 -0.036340
N37   N     N_R   0.967030 0.940100 0.334790 -0.035539
N38   N     N_R   0.967030 0.059900 0.334790 -0.037118
N39   N     N_R   0.032970 0.940100 0.665210 -0.036504
N40   N     N_R   0.597900 0.559930 0.545530 -0.038088
Ni1   Ni    Ni4+2 0.483030 0.500000 0.604430 0.208649
Ni2   Ni    Ni4+2 0.516970 0.500000 0.395570 0.209600
Ni3   Ni    Ni4+2 0.983030 0.000000 0.604430 0.211343
Ni4   Ni    Ni4+2 0.016970 0.000000 0.395570 0.213400
Ni5   Ni    Ni4+2 0.587400 0.500000 0.604430 0.208465
Ni6   Ni    Ni4+2 0.412600 0.500000 0.395570 0.210681
Ni7   Ni    Ni4+2 0.087400 0.000000 0.604430 0.210759
Ni8   Ni    Ni4+2 0.912600 0.000000 0.395570 0.213140

loop_
_geom_bond_atom_site_label_1
_geom_bond_atom_site_label_2
_ccdc_geom_bond_type
C71   C104  A    
C7    C29   A    
C96   C102  A    
C48   N22   A    
C74   C83   A    
C14   C170  A    
C66   C85   S    
C41   C67   A    
C55   C119  A    
C3    C142  A    
C49   C60   A    
C24   C98   A    
C14   C21   A    
C121  H93   S    
C173  N40   A    
C61   C82   S    
C123  H95   S    
C65   C178  A    
C60   C163  A    
C2    C90   A    
C48   H62   S    
C164  H20   S    
C11   C15   A    
C162  C171  A    
C10   C20   A    
C37   H51   S    
C19   H33   S    
C112  H84   S    
C119  H47   S    
C47   C53   A    
C7    C146  A    
C143  C151  A    
C100  C109  A    
C7    C172  A    
C30   C182  A    
C102  C111  A    
C36   C62   A    
C71   H67   S    
C37   C63   A    
C158  C167  A    
C38   C64   A    
C22   H37   S    
C68   C95   A    
C116  C121  A    
C52   C132  S    
C65   C86   S    
C53   C133  S    
C149  H26   S    
C117  H89   S    
C4    C169  A    
C87   H75   S    
C42   H56   S    
C70   C103  A    
C136  C162  A    
C101  C110  A    
C34   C61   A    
H10   N32   S    
C82   C91   A    
C46   C117  A    
C45   N20   A    
C43   C54   A    
C23   H38   S    
N19   N34   A    
C90   C104  A    
C112  C125  A    
H16   N35   S    
C62   C81   S    
C162  H21   S    
C89   H77   S    
C47   H61   S    
C87   C174  A    
C97   N12   A    
N3    Ni6   S    
H111  N27   S    
C18   H32   S    
C129  C156  A    
N20   Ni5   S    
C157  H102  S    
C1    H1    S    
C176  H42   S    
C66   C179  A    
C98   C106  A    
N7    Ni8   S    
C150  H24   S    
C80   C88   A    
C10   C16   A    
C38   H52   S    
C64   C177  A    
C44   C55   A    
N3    N11   A    
C62   C175  A    
C84   C93   A    
C138  C182  A    
C129  C147  A    
C86   C95   A    
C73   H70   S    
C139  N28   S    
N8    N17   A    
C173  H40   S    
C76   C85   A    
C69   C181  A    
C57   C118  A    
C78   C87   A    
C134  C160  A    
C176  N3    A    
C58   C141  A    
C160  H19   S    
C124  H96   S    
C97   H25   S    
H4    N29   S    
C163  N39   A    
C9    C166  A    
C113  H85   S    
C67   C180  A    
C31   H107  S    
C75   C84   A    
C15   C25   A    
C134  C151  A    
C36   H50   S    
C12   C22   A    
C137  C155  A    
C77   C111  A    
C40   H54   S    
C74   C107  A    
C5    C27   A    
C6    C28   A    
N6    N15   A    
C47   N21   A    
C177  N4    A    
C5    C170  A    
C146  N35   S    
C179  H45   S    
C135  C161  A    
C79   C103  A    
C122  H94   S    
C56   C136  S    
C120  H92   S    
C63   C80   S    
C139  C148  A    
C151  H28   S    
C13   C96   A    
C161  H18   S    
C26   H101  S    
H11   N32   S    
N21   Ni6   S    
C113  C126  A    
C45   C52   A    
N22   Ni8   S    
C50   C56   A    
C115  C128  A    
N9    Ni2   S    
N12   Ni2   S    
C117  C122  A    
C95   H83   S    
C167  C184  A    
N8    Ni7   S    
C145  N33   S    
C19   C28   A    
C145  C154  A    
C125  H97   S    
N5    N14   A    
C16   C23   A    
C57   C94   A    
C37   N11   A    
N24   N39   A    
C164  C172  A    
C128  H100  S    
N34   Ni1   S    
N15   Ni3   S    
C90   C99   A    
C39   H53   S    
C48   C59   A    
C9    C17   A    
N18   N23   A    
N26   N37   A    
C43   N18   A    
C64   C78   S    
C133  C150  A    
C74   H71   S    
C12   C169  A    
C156  H2    S    
C57   C101  A    
C76   H73   S    
C59   C134  S    
N9    N40   A    
C54   C108  A    
H14   N33   S    
C68   C120  A    
C130  H58   S    
C31   C183  A    
C9    C12   A    
C8    C165  A    
C27   H103  S    
N38   Ni4   S    
C28   H104  S    
C130  N36   A    
H110  N27   S    
C21   H35   S    
C110  C128  A    
C158  H17   S    
C34   H49   S    
C140  C149  A    
C56   C130  A    
C25   C33   A    
C51   N26   A    
C96   C105  A    
C108  N23   A    
C39   C65   A    
C112  C174  A    
C118  H90   S    
C154  H30   S    
C63   C176  A    
C163  H91   S    
C59   C152  A    
C11   C19   A    
C140  C184  A    
C119  N34   A    
N16   Ni3   S    
C165  C182  A    
C1    N1    A    
N5    Ni7   S    
C68   C102  A    
C72   C81   A    
N12   N21   A    
N26   Ni8   S    
C50   H64   S    
C93   H81   S    
C3    C33   A    
C181  H48   S    
C36   N10   A    
C131  C157  A    
N4    N13   A    
C146  C155  A    
C160  C169  A    
N2    Ni6   S    
C70   H66   S    
N24   Ni7   S    
N6    Ni8   S    
C13   C114  A    
C144  N32   S    
C148  H22   S    
C81   C89   A    
C35   C92   A    
C152  H80   S    
C40   C66   A    
C138  N27   S    
C132  C149  A    
C79   C174  A    
C114  H86   S    
N36   Ni3   S    
N23   Ni2   S    
C79   C100  A    
H8    N31   S    
C6    C145  A    
C5    C144  A    
C132  C158  A    
C181  N8    A    
N13   Ni2   S    
C133  C159  A    
C179  N6    A    
C177  H43   S    
C136  C154  A    
C15   C171  A    
C35   C116  A    
C51   C58   A    
C142  N30   S    
C45   H60   S    
C49   H63   S    
C55   C131  S    
C11   C168  A    
C141  N37   A    
C44   N19   A    
C29   H105  S    
C73   C82   A    
C41   H55   S    
C20   H34   S    
N22   N38   A    
C166  C183  A    
N1    N20   A    
C4    C26   A    
C98   C101  A    
C99   C107  A    
C21   C30   A    
C175  H41   S    
H7    N30   S    
C141  H69   S    
C23   C32   A    
C142  C150  A    
C114  C127  A    
C156  C165  A    
C126  H98   S    
C152  N38   A    
C115  H87   S    
C118  C123  A    
C1    C52   A    
C8    C18   A    
C92   H79   S    
C88   H76   S    
C108  H36   S    
C159  H13   S    
C72   C105  A    
C105  C124  A    
C76   C110  A    
H5    N29   S    
C116  H88   S    
C103  C122  A    
N10   Ni1   S    
N7    N16   A    
C41   N16   A    
C70   C78   A    
C143  N31   S    
C40   N15   A    
C4    C143  A    
N14   Ni4   S    
C43   H57   S    
H15   N35   S    
C83   C92   A    
C180  N7    A    
C180  H46   S    
N25   N36   A    
C20   C29   A    
C178  N5    A    
C17   C26   A    
C2    C113  A    
C175  N2    A    
C159  C168  A    
C127  H99   S    
C144  C153  A    
C155  H29   S    
C34   N9    A    
C10   C167  A    
C106  C123  A    
C140  N29   S    
C2    C88   A    
N11   Ni1   S    
C178  H44   S    
C67   C84   S    
C38   N13   A    
C35   C99   A    
N18   Ni6   S    
C71   C80   A    
C3    C168  A    
C6    C171  A    
C94   H82   S    
C50   N25   A    
C75   C109  A    
C22   C31   A    
C61   C173  A    
H6    N30   S    
C75   H72   S    
C153  H27   S    
C104  C121  A    
N37   Ni4   S    
C53   C97   A    
C42   C69   A    
N25   Ni7   S    
N19   Ni5   S    
N40   Ni5   S    
C69   C83   S    
C85   C94   A    
C16   C172  A    
C138  C147  A    
N1    Ni1   S    
N17   Ni4   S    
C131  C148  A    
C72   H68   S    
C147  H23   S    
C60   C135  S    
C91   H78   S    
N2    N10   A    
C161  C170  A    
C32   H108  S    
C58   C137  S    
C109  C125  A    
C77   C86   A    
C77   H74   S    
C111  C127  A    
C39   N14   A    
N4    Ni5   S    
C24   C91   A    
C139  C183  A    
C54   C129  S    
C46   C100  A    
C8    C14   A    
C13   C89   A    
H12   N33   S    
H9    N31   S    
C32   C184  A    
C18   C27   A    
C107  C126  A    
C157  C166  A    
C137  C164  A    
H3    N28   S    
C135  C153  A    
C49   N24   A    
N39   Ni3   S    
C73   C106  A    
C46   C93   A    
C42   N17   A    
C25   H39   S    
C51   H65   S    
C30   H106  S    
C24   C115  A    
H112  N28   S    
C17   H31   S    
C33   H109  S    
C120  C124  A    
C44   H59   S    
