data_mof_unit_65467.cif
_audit_creation_date              2013-03-05T15:41:40-0500
_audit_creation_method            fapswitch 2.2
_symmetry_space_group_name_H-M    P1
_symmetry_Int_Tables_number       1
_space_group_crystal_system       triclinic
_cell_length_a                    30.960613
_cell_length_b                    30.531858
_cell_length_c                    24.481852
_cell_angle_alpha                 89.999923
_cell_angle_beta                  127.629557
_cell_angle_gamma                 90.000037
_cell_volume                      18328.1405724

loop_
_atom_site_label
_atom_site_type_symbol
_atom_site_description
_atom_site_fract_x
_atom_site_fract_y
_atom_site_fract_z
_atom_type_partial_charge
O1    O     O_R   0.820760 0.769680 0.499980 -0.625334
O2    O     O_R   0.179240 0.769680 0.500020 -0.625342
O3    O     O_R   0.320760 0.269680 0.499980 -0.625340
O4    O     O_R   0.679240 0.269680 0.500020 -0.625339
O5    O     O_R   0.769670 0.820760 0.499990 -0.558802
O6    O     O_R   0.230330 0.820760 0.500010 -0.558782
O7    O     O_R   0.269670 0.320760 0.499990 -0.558792
O8    O     O_R   0.730330 0.320760 0.500010 -0.558795
C1    C     C_R   0.806408 0.809652 0.494014 0.997286
C2    C     C_R   0.193592 0.809653 0.505986 0.997284
C3    C     C_R   0.306408 0.309652 0.494014 0.997285
C4    C     C_R   0.693592 0.309652 0.505986 0.997287
O9    O     O_R   0.724610 0.724460 0.398130 -0.591840
O10   O     O_R   0.275390 0.724460 0.601870 -0.591841
O11   O     O_R   0.224610 0.224460 0.398130 -0.591841
O12   O     O_R   0.775390 0.224460 0.601870 -0.591844
O13   O     O_R   0.673520 0.775530 0.398150 -0.586631
O14   O     O_R   0.326480 0.775530 0.601850 -0.586644
O15   O     O_R   0.173520 0.275530 0.398150 -0.586640
O16   O     O_R   0.826480 0.275530 0.601850 -0.586643
C5    C     C_R   0.682275 0.749096 0.365328 0.989929
C6    C     C_R   0.317725 0.749096 0.634672 0.989917
C7    C     C_R   0.182275 0.249096 0.365328 0.989918
C8    C     C_R   0.817725 0.249096 0.634672 0.989924
Zn1   Zn    Zn3+2 0.784100 0.715890 0.499990 1.044501
Zn2   Zn    Zn3+2 0.215900 0.715890 0.500010 1.044574
Zn3   Zn    Zn3+2 0.284100 0.215890 0.499990 1.044498
Zn4   Zn    Zn3+2 0.715900 0.215890 0.500010 1.044493
Zn5   Zn    Zn3+2 0.715880 0.784090 0.500010 1.043726
Zn6   Zn    Zn3+2 0.284120 0.784090 0.499990 1.043727
Zn7   Zn    Zn3+2 0.215880 0.284090 0.500010 1.043746
Zn8   Zn    Zn3+2 0.784120 0.284090 0.499990 1.043741
O17   O     O_R   0.730310 0.679220 0.500010 -0.597187
O18   O     O_R   0.269690 0.679220 0.499990 -0.597154
O19   O     O_R   0.230310 0.179220 0.500010 -0.597179
O20   O     O_R   0.769690 0.179220 0.499990 -0.597180
O21   O     O_R   0.679220 0.730290 0.500020 -0.635665
O22   O     O_R   0.320780 0.730290 0.499980 -0.635680
O23   O     O_R   0.179220 0.230290 0.500020 -0.635667
O24   O     O_R   0.820780 0.230290 0.499980 -0.635667
O25   O     O_R   0.826460 0.724450 0.601850 -0.629464
O26   O     O_R   0.173540 0.724450 0.398150 -0.629481
O27   O     O_R   0.326460 0.224450 0.601850 -0.629484
O28   O     O_R   0.673540 0.224450 0.398150 -0.629481
O29   O     O_R   0.775370 0.775520 0.601870 -0.629528
O30   O     O_R   0.224630 0.775520 0.398130 -0.629528
O31   O     O_R   0.275370 0.275520 0.601870 -0.629525
O32   O     O_R   0.724630 0.275520 0.398130 -0.629524
C9    C     C_R   0.693196 0.690293 0.504790 0.944223
C10   C     C_R   0.306804 0.690293 0.495210 0.944231
C11   C     C_R   0.193196 0.190293 0.504790 0.944225
C12   C     C_R   0.806804 0.190293 0.495210 0.944228
C13   C     C_R   0.817252 0.750307 0.634844 0.886776
C14   C     C_R   0.182743 0.750311 0.365154 0.886810
C15   C     C_R   0.317253 0.250308 0.634845 0.886794
C16   C     C_R   0.682747 0.250308 0.365156 0.886792
C17   C     C_R   0.618908 0.786086 0.252485 0.477639
C18   C     C_R   0.381090 0.786087 0.747514 0.477636
C19   C     C_R   0.118910 0.286087 0.252486 0.477628
C20   C     C_R   0.881087 0.286088 0.747514 0.477631
C21   C     C_R   0.584937 0.785008 0.180618 -0.246432
C22   C     C_R   0.415061 0.785008 0.819381 -0.246427
C23   C     C_R   0.084939 0.285010 0.180619 -0.246422
C24   C     C_R   0.915058 0.285010 0.819381 -0.246423
H1    H     H_    0.568248 0.815514 0.152599 0.178575
H2    H     H_    0.431750 0.815514 0.847400 0.178577
H3    H     H_    0.068250 0.315516 0.152600 0.178579
H4    H     H_    0.931745 0.315516 0.847399 0.178577
C25   C     C_R   0.572666 0.745332 0.145341 -0.047630
C26   C     C_R   0.427333 0.745332 0.854659 -0.047630
C27   C     C_R   0.072667 0.245334 0.145341 -0.047630
C28   C     C_R   0.927332 0.245334 0.854659 -0.047630
C29   C     C_R   0.595546 0.706359 0.182586 -0.206075
C30   C     C_R   0.404454 0.706359 0.817414 -0.206076
C31   C     C_R   0.095547 0.206360 0.182585 -0.206077
C32   C     C_R   0.904455 0.206360 0.817415 -0.206076
H5    H     H_    0.585467 0.675406 0.155693 0.203259
H6    H     H_    0.414533 0.675406 0.844307 0.203258
H7    H     H_    0.085468 0.175408 0.155692 0.203258
H8    H     H_    0.914536 0.175408 0.844308 0.203258
C33   C     C_R   0.630524 0.706656 0.254678 0.249627
C34   C     C_R   0.369476 0.706657 0.745323 0.249627
C35   C     C_R   0.130525 0.206658 0.254677 0.249628
C36   C     C_R   0.869477 0.206657 0.745323 0.249627
C37   C     C_R   0.643451 0.747066 0.289951 -0.282259
C38   C     C_R   0.356548 0.747066 0.710049 -0.282255
C39   C     C_R   0.143452 0.247067 0.289951 -0.282254
C40   C     C_R   0.856548 0.247067 0.710049 -0.282254
N1    N     N_R   0.517286 0.706582 0.034265 -0.159339
N2    N     N_R   0.482714 0.706582 0.965735 -0.159339
N3    N     N_R   0.017287 0.206584 0.034265 -0.159341
N4    N     N_R   0.982714 0.206584 0.965735 -0.159341
C41   C     C_R   0.464818 0.744890 0.930277 0.346890
C42   C     C_R   0.535181 0.744890 0.069723 0.346890
C43   C     C_R   0.964817 0.244892 0.930277 0.346891
C44   C     C_R   0.035182 0.244892 0.069723 0.346891
N5    N     N_R   0.482785 0.783097 0.965820 -0.171071
N6    N     N_R   0.517214 0.783097 0.034180 -0.171072
N7    N     N_R   0.982784 0.283099 0.965820 -0.171065
N8    N     N_R   0.017214 0.283099 0.034180 -0.171065
C45   C     C_2   0.848160 0.914394 0.454258 0.326446
C46   C     C_2   0.151839 0.914399 0.545731 0.326433
C47   C     C_2   0.348161 0.414400 0.454274 0.326424
C48   C     C_2   0.651838 0.414400 0.545725 0.326424
C49   C     C_2   0.902430 0.916255 0.506742 -0.046141
C50   C     C_2   0.097566 0.916252 0.493256 -0.046138
C51   C     C_2   0.402435 0.416250 0.506745 -0.046139
C52   C     C_2   0.597564 0.416249 0.493255 -0.046137
C53   C     C_2   0.813913 0.883459 0.458542 0.332682
C54   C     C_2   0.186085 0.883461 0.541449 0.332691
C55   C     C_2   0.313916 0.383462 0.458555 0.332686
C56   C     C_2   0.686084 0.383462 0.541444 0.332691
C57   C     C_2   0.832150 0.842125 0.479117 -0.430055
C58   C     C_2   0.167851 0.842125 0.520883 -0.430060
C59   C     C_2   0.332149 0.342126 0.479117 -0.430057
C60   C     C_2   0.667851 0.342125 0.520884 -0.430055
H9    H     H_    0.868663 0.831597 0.485739 0.157153
H10   H     H_    0.131340 0.831598 0.514267 0.157157
H11   H     H_    0.368659 0.331598 0.485731 0.157160
H12   H     H_    0.631342 0.331597 0.514272 0.157160
C61   C     C_R   0.853365 0.784969 0.747409 -0.163546
C62   C     C_R   0.146800 0.784869 0.252574 -0.163679
C63   C     C_R   0.353305 0.284928 0.747417 -0.163597
C64   C     C_R   0.646680 0.284938 0.252584 -0.163585
H13   H     H_    0.823553 0.811004 0.721036 0.180016
H14   H     H_    0.176767 0.810800 0.278937 0.179991
H15   H     H_    0.323437 0.310927 0.721051 0.180009
H16   H     H_    0.676534 0.310946 0.278952 0.180012
C65   C     C_R   0.890217 0.785619 0.819128 -0.217152
C66   C     C_R   0.109948 0.785528 0.180855 -0.216994
C67   C     C_R   0.390156 0.285578 0.819136 -0.217115
C68   C     C_R   0.609829 0.285587 0.180865 -0.217121
H17   H     H_    0.887660 0.811822 0.846876 0.180669
H18   H     H_    0.112657 0.811630 0.153099 0.180641
H19   H     H_    0.387544 0.311743 0.846888 0.180681
H20   H     H_    0.612427 0.311762 0.153114 0.180686
C69   C     C_R   0.929119 0.752215 0.854725 -0.032621
C70   C     C_R   0.070854 0.752254 0.145268 -0.032742
C71   C     C_R   0.429128 0.252220 0.854727 -0.032623
C72   C     C_R   0.570875 0.252217 0.145274 -0.032619
C73   C     C_R   0.931909 0.718561 0.817519 0.550656
C74   C     C_R   0.067867 0.718733 0.182487 0.550534
C75   C     C_R   0.431989 0.218617 0.817512 0.550617
C76   C     C_R   0.568032 0.218602 0.182487 0.550625
C77   C     C_R   0.894529 0.717959 0.745723 -0.271829
C78   C     C_R   0.105250 0.718115 0.254276 -0.271281
C79   C     C_R   0.394605 0.218011 0.745718 -0.271757
C80   C     C_R   0.605415 0.217998 0.254282 -0.271790
H21   H     H_    0.896464 0.691424 0.717897 0.181241
H22   H     H_    0.103146 0.691680 0.282102 0.181542
H23   H     H_    0.396597 0.191512 0.717889 0.181287
H24   H     H_    0.603438 0.191489 0.282111 0.181267
C81   C     C_R   0.855263 0.751082 0.710318 -0.104042
C82   C     C_R   0.144717 0.751100 0.289676 -0.104292
C83   C     C_R   0.355269 0.251086 0.710319 -0.104060
C84   C     C_R   0.644733 0.251084 0.289682 -0.104048
N9    N     N_R   0.983295 0.790802 0.965682 -0.169489
N10   N     N_R   0.016566 0.714247 0.034239 -0.095975
N11   N     N_R   0.483189 0.290792 0.965701 -0.169489
N12   N     N_R   0.516682 0.214227 0.034227 -0.095803
N13   N     N_R   0.016900 0.790811 0.034283 -0.169464
N14   N     N_R   0.983225 0.714237 0.965783 -0.095848
N15   N     N_R   0.516793 0.290791 0.034302 -0.169490
N16   N     N_R   0.483340 0.214228 0.965772 -0.095808
C85   C     C_R   0.033942 0.752487 0.069711 0.294034
C86   C     C_R   0.966048 0.752467 0.930281 0.294455
C87   C     C_R   0.533948 0.252462 0.069716 0.294481
C88   C     C_R   0.466054 0.252463 0.930284 0.294461
C89   C     C_2   0.607228 0.627729 0.538233 -0.266242
C90   C     C_2   0.392771 0.627729 0.461767 -0.266243
C91   C     C_2   0.107228 0.127730 0.538232 -0.266244
C92   C     C_2   0.892775 0.127730 0.461772 -0.266244
C93   C     C_2   0.588698 0.593884 0.494224 0.366658
C94   C     C_2   0.411302 0.593884 0.505776 0.366661
C95   C     C_2   0.088698 0.093884 0.494225 0.366661
C96   C     C_2   0.911301 0.093883 0.505775 0.366668
H25   H     H_    0.600665 0.629201 0.577039 0.141948
H26   H     H_    0.399334 0.629200 0.422959 0.141942
H27   H     H_    0.100664 0.129201 0.577038 0.141944
H28   H     H_    0.899343 0.129204 0.422970 0.141941
C97   C     C_2   0.634565 0.664476 0.532789 -0.125722
C98   C     C_2   0.365434 0.664476 0.467210 -0.125743
C99   C     C_2   0.134565 0.164476 0.532789 -0.125726
C100  C     C_2   0.865438 0.164477 0.467216 -0.125727
C101  C     C_2   0.668786 0.656286 0.518141 -0.226067
C102  C     C_2   0.331214 0.656286 0.481860 -0.226055
C103  C     C_2   0.168786 0.156286 0.518140 -0.226066
C104  C     C_2   0.831214 0.156286 0.481860 -0.226065
H29   H     H_    0.626512 0.697619 0.540525 0.167245
H30   H     H_    0.373486 0.697619 0.459473 0.167238
H31   H     H_    0.126512 0.197619 0.540524 0.167245
H32   H     H_    0.873493 0.197620 0.459484 0.167247
H33   H     H_    0.680814 0.622921 0.517847 0.173683
H34   H     H_    0.319187 0.622921 0.482155 0.173689
H35   H     H_    0.180814 0.122921 0.517847 0.173687
H36   H     H_    0.819184 0.122921 0.482150 0.173694
O33   O     O_R   0.425990 0.545230 0.442510 -0.648588
O34   O     O_R   0.574010 0.545230 0.557490 -0.648583
O35   O     O_R   0.925990 0.045230 0.442510 -0.648601
O36   O     O_R   0.074010 0.045230 0.557490 -0.648592
O37   O     O_R   0.483490 0.545220 0.557520 -0.592905
O38   O     O_R   0.516510 0.545220 0.442480 -0.592906
O39   O     O_R   0.983490 0.045220 0.557520 -0.592904
O40   O     O_R   0.016510 0.045220 0.442480 -0.592906
C105  C     C_R   0.441001 0.559563 0.501070 0.763693
C106  C     C_R   0.558999 0.559563 0.498930 0.763694
C107  C     C_R   0.941001 0.059563 0.501070 0.763714
C108  C     C_R   0.058999 0.059563 0.498930 0.763701
O41   O     O_R   0.926010 0.954760 0.442510 -0.571745
O42   O     O_R   0.073990 0.954760 0.557490 -0.571747
O43   O     O_R   0.426010 0.454760 0.442510 -0.571743
O44   O     O_R   0.573990 0.454760 0.557490 -0.571743
O45   O     O_R   0.983520 0.954760 0.557520 -0.577996
O46   O     O_R   0.016480 0.954760 0.442480 -0.578001
O47   O     O_R   0.483520 0.454760 0.557520 -0.578005
O48   O     O_R   0.516480 0.454760 0.442480 -0.578007
C109  C     C_R   0.939370 0.941881 0.501125 0.895815
C110  C     C_R   0.060629 0.941881 0.498874 0.895820
C111  C     C_R   0.439371 0.441880 0.501126 0.895821
C112  C     C_R   0.560629 0.441880 0.498874 0.895823
Zn9   Zn    Zn3+2 0.461590 0.499990 0.423210 1.045601
Zn10  Zn    Zn3+2 0.538410 0.499990 0.576790 1.045616
Zn11  Zn    Zn3+2 0.961590 0.999990 0.423210 1.045572
Zn12  Zn    Zn3+2 0.038410 0.999990 0.576790 1.045602
O49   O     O_3   0.632253 0.825870 0.286328 -0.552564
C113  C     C_3   0.586403 0.842285 0.279136 -0.163165
H37   H     H_    0.599212 0.871337 0.313013 0.213540
H38   H     H_    0.569729 0.817823 0.295622 0.140091
H39   H     H_    0.554106 0.853164 0.225378 0.135665
O50   O     O_3   0.367744 0.825871 0.713672 -0.552566
C114  C     C_3   0.413593 0.842286 0.720861 -0.163156
H40   H     H_    0.400784 0.871340 0.686987 0.213543
H41   H     H_    0.430264 0.817825 0.704369 0.140094
H42   H     H_    0.445894 0.853162 0.774620 0.135660
O51   O     O_3   0.132256 0.325871 0.286330 -0.552573
C115  C     C_3   0.086406 0.342287 0.279138 -0.163120
H43   H     H_    0.099216 0.371338 0.313017 0.213551
H44   H     H_    0.069731 0.317825 0.295622 0.140085
H45   H     H_    0.054109 0.353167 0.225381 0.135676
O52   O     O_3   0.867739 0.325872 0.713670 -0.552573
C116  C     C_3   0.913588 0.342290 0.720863 -0.163145
H46   H     H_    0.900777 0.371342 0.686985 0.213547
H47   H     H_    0.930265 0.317830 0.704378 0.140089
H48   H     H_    0.945885 0.353170 0.774620 0.135665
O53   O     O_3   0.969813 0.685231 0.851034 -0.597225
C117  C     C_3   0.015280 0.696161 0.853641 -0.263298
H49   H     H_    0.034321 0.727402 0.882052 0.161780
H50   H     H_    0.004060 0.698168 0.800991 0.163828
H51   H     H_    0.046327 0.669967 0.881950 0.206674
O54   O     O_3   0.029758 0.685540 0.149014 -0.597219
C118  C     C_3   0.984161 0.696965 0.145857 -0.263102
H52   H     H_    0.965291 0.728066 0.116866 0.161836
H53   H     H_    0.995158 0.699507 0.198350 0.163819
H54   H     H_    0.953055 0.670780 0.117858 0.206658
O55   O     O_3   0.469965 0.185335 0.851017 -0.597229
C119  C     C_3   0.515408 0.196372 0.853628 -0.263261
H55   H     H_    0.534382 0.227621 0.882051 0.161779
H56   H     H_    0.504183 0.198421 0.800978 0.163844
H57   H     H_    0.546511 0.170215 0.881926 0.206677
O56   O     O_3   0.530075 0.185307 0.148980 -0.597229
C120  C     C_3   0.484635 0.196307 0.146395 -0.263277
H58   H     H_    0.453542 0.170146 0.118082 0.206680
H59   H     H_    0.465644 0.227562 0.117998 0.161775
H60   H     H_    0.495870 0.198328 0.199052 0.163843
O57   O     O_3   0.586007 0.597042 0.435382 -0.576686
C121  C     C_3   0.605997 0.558291 0.426412 -0.213337
H61   H     H_    0.576067 0.531127 0.406556 0.183532
H62   H     H_    0.645996 0.548246 0.474786 0.116145
H63   H     H_    0.612547 0.564661 0.387348 0.234296
O58   O     O_3   0.413994 0.597042 0.564619 -0.576687
C122  C     C_3   0.394005 0.558291 0.573590 -0.213331
H64   H     H_    0.423936 0.531128 0.593448 0.183537
H65   H     H_    0.354007 0.548245 0.525216 0.116146
H66   H     H_    0.387453 0.564662 0.612653 0.234297
O59   O     O_3   0.086008 0.097041 0.435383 -0.576689
C123  C     C_3   0.105998 0.058289 0.426413 -0.213330
H67   H     H_    0.076065 0.031127 0.406554 0.183540
H68   H     H_    0.145994 0.048242 0.474788 0.116151
H69   H     H_    0.112551 0.064660 0.387353 0.234295
O60   O     O_3   0.913985 0.097036 0.564614 -0.576695
C124  C     C_3   0.893994 0.058282 0.573576 -0.213307
H70   H     H_    0.923929 0.031121 0.593438 0.183545
H71   H     H_    0.854000 0.048235 0.525197 0.116161
H72   H     H_    0.887435 0.064650 0.612632 0.234290
N17   N     N_R   0.650215 0.665616 0.290890 0.226578
O61   O     O_R   0.647997 0.657535 0.341322 -0.381075
O62   O     O_R   0.661783 0.633751 0.266474 -0.361137
N18   N     N_R   0.349785 0.665616 0.709110 0.226579
O63   O     O_R   0.352004 0.657536 0.658678 -0.381075
O64   O     O_R   0.338217 0.633751 0.733526 -0.361138
N19   N     N_R   0.150216 0.165617 0.290888 0.226578
O65   O     O_R   0.147997 0.157535 0.341320 -0.381071
O66   O     O_R   0.161784 0.133753 0.266473 -0.361142
N20   N     N_R   0.849788 0.165617 0.709112 0.226578
O67   O     O_R   0.852006 0.157537 0.658679 -0.381067
O68   O     O_R   0.838223 0.133751 0.733528 -0.361146
O69   O     O_3   0.825486 0.935234 0.391839 -0.582836
C125  C     C_3   0.810347 0.978171 0.395045 -0.154138
H73   H     H_    0.843580 0.995925 0.442342 0.098899
H74   H     H_    0.772738 0.977848 0.391193 0.200928
H75   H     H_    0.801144 0.996864 0.350201 0.181845
O70   O     O_3   0.174520 0.935254 0.608142 -0.582804
C126  C     C_3   0.189630 0.978194 0.604896 -0.154212
H76   H     H_    0.156365 0.995940 0.557615 0.098893
H77   H     H_    0.227207 0.977880 0.608677 0.200905
H78   H     H_    0.198873 0.996888 0.649760 0.181874
O71   O     O_3   0.325477 0.435262 0.391867 -0.582792
C127  C     C_3   0.310377 0.478202 0.395129 -0.154251
H79   H     H_    0.343656 0.495947 0.442401 0.098895
H80   H     H_    0.272815 0.477891 0.391383 0.200900
H81   H     H_    0.301112 0.496897 0.350253 0.181885
O72   O     O_3   0.674523 0.435263 0.608132 -0.582790
C128  C     C_3   0.689622 0.478203 0.604868 -0.154241
H82   H     H_    0.656344 0.495946 0.557593 0.098888
H83   H     H_    0.727185 0.477891 0.608617 0.200894
H84   H     H_    0.698884 0.496898 0.649741 0.181892
N21   N     N_R   0.924564 0.897677 0.573390 0.185918
O73   O     O_R   0.971878 0.878379 0.609214 -0.350942
O74   O     O_R   0.900495 0.904276 0.601487 -0.367945
N22   N     N_R   0.075426 0.897664 0.426611 0.185915
O75   O     O_R   0.028114 0.878362 0.390803 -0.350987
O76   O     O_R   0.099484 0.904259 0.398500 -0.367930
N23   N     N_R   0.424579 0.397659 0.573388 0.185920
O77   O     O_R   0.471890 0.378356 0.609190 -0.350963
O78   O     O_R   0.400525 0.404251 0.601505 -0.367932
N24   N     N_R   0.575420 0.397656 0.426613 0.185920
O79   O     O_R   0.528109 0.378353 0.390813 -0.350963
O80   O     O_R   0.599472 0.404248 0.398494 -0.367935
N25   N     N_R   0.763240 0.898343 0.442073 0.226107
O81   O     O_R   0.762032 0.933476 0.471160 -0.391718
O82   O     O_R   0.717705 0.879750 0.392721 -0.333045
N26   N     N_R   0.236758 0.898344 0.557915 0.226123
O83   O     O_R   0.237962 0.933463 0.528801 -0.391693
O84   O     O_R   0.282294 0.879758 0.607280 -0.333037
N27   N     N_R   0.263245 0.398344 0.442093 0.226121
O85   O     O_R   0.262045 0.433454 0.471228 -0.391672
O86   O     O_R   0.217706 0.379766 0.392718 -0.333027
N28   N     N_R   0.736753 0.398345 0.557903 0.226120
O87   O     O_R   0.737950 0.433456 0.528766 -0.391689
O88   O     O_R   0.782293 0.379768 0.607277 -0.333039

loop_
_geom_bond_atom_site_label_1
_geom_bond_atom_site_label_2
_geom_bond_distance
_ccdc_geom_bond_type
O34   C106  1.284242 A    
C74   C78   1.394611 A    
N19   O65   1.301375 A    
C126  H77   1.109360 S    
C124  H72   1.109235 S    
C90   H26   1.087045 S    
C70   C85   1.465039 S    
C91   C99   1.459656 S    
C43   N7    1.355109 A    
C122  H64   1.110307 S    
C119  H57   1.109228 S    
C22   C26   1.398942 A    
N1    C42   1.356928 A    
N3    C44   1.356926 A    
C78   H22   1.083463 S    
O40   C108  1.269736 A    
C26   C30   1.400142 A    
N24   O79   1.301311 A    
C20   O52   1.383701 S    
O4    C4    1.276318 A    
C79   C83   1.401858 A    
C127  H81   1.109168 S    
C73   C77   1.394704 A    
O36   C108  1.284242 A    
O53   C117  1.409721 S    
C66   H18   1.083262 S    
C29   C33   1.397828 A    
C69   C86   1.465058 S    
C23   H3    1.082696 S    
O42   Zn12  1.994834 S    
N23   O77   1.301311 A    
N16   C88   1.355075 A    
C26   C41   1.466530 S    
Zn1   O25   2.003333 S    
N27   O86   1.299868 A    
C35   N19   1.437964 S    
O44   C112  1.288477 A    
Zn3   O19   2.006978 S    
Zn4   O28   2.003329 S    
O13   C5    1.279253 A    
Zn5   O29   2.017649 S    
O36   Zn12  1.995471 S    
O15   C7    1.279252 A    
C45   O69   1.386702 S    
C46   O70   1.386706 S    
O11   Zn3   2.017645 S    
C126  H76   1.112846 S    
C78   C82   1.401884 A    
O9    C5    1.281944 A    
O2    Zn2   1.996444 S    
N26   O83   1.300628 A    
C51   C111  1.459835 S    
O6    Zn6   2.006983 S    
C23   C27   1.398944 A    
C49   C109  1.459843 S    
O19   C11   1.269880 A    
C125  H73   1.112858 S    
C66   C70   1.403014 A    
Zn8   O24   1.996691 S    
N2    C41   1.356926 A    
C90   C94   1.342751 D    
O45   C109  1.274655 A    
C19   O51   1.383703 S    
C36   C40   1.416367 A    
C14   C82   1.464451 S    
C17   C21   1.394000 A    
C19   C23   1.393999 A    
C20   C24   1.394001 A    
O41   C109  1.288475 A    
C51   N23   1.445085 S    
N17   O62   1.301345 A    
O39   C107  1.269734 A    
C17   C37   1.409586 A    
O39   Zn12  2.010295 S    
C114  H42   1.111442 S    
C95   O59   1.394612 S    
O3    C3    1.276318 A    
N27   O85   1.300628 A    
C21   H1    1.082694 S    
C65   C69   1.403040 A    
C29   H5    1.083082 S    
C47   C51   1.356878 D    
C98   H30   1.086119 S    
O17   C9    1.269881 A    
N13   C85   1.356838 A    
N10   C85   1.355086 A    
N22   O76   1.301899 A    
O23   C11   1.276895 A    
C13   C81   1.464364 S    
C16   C84   1.464371 S    
C53   N25   1.434574 S    
N5    N6    1.326166 A    
C20   C40   1.409590 A    
O44   Zn10  1.994834 S    
C15   C83   1.464379 S    
Zn6   O22   1.996691 S    
C24   H4    1.082696 S    
N19   O66   1.301343 A    
O33   Zn9   1.995473 S    
C120  H58   1.109227 S    
O45   Zn12  2.009644 S    
C128  H83   1.109360 S    
O43   Zn9   1.994832 S    
C115  H43   1.109193 S    
C64   C68   1.392405 A    
C116  H46   1.109195 S    
C71   C75   1.410357 A    
C119  H56   1.113158 S    
C73   O53   1.382093 S    
C93   C106  1.444345 S    
C54   C58   1.348294 D    
O20   C12   1.269881 A    
O8    C4    1.278033 A    
C17   O49   1.383700 S    
C72   C87   1.465080 S    
O29   C13   1.283525 A    
C75   O55   1.382091 S    
C90   C98   1.459659 S    
N25   O82   1.299866 A    
O38   Zn9   2.010293 S    
C91   H27   1.087048 S    
O50   C114  1.411403 S    
C18   C38   1.409587 A    
C89   H25   1.087047 S    
C127  H80   1.109355 S    
C19   C39   1.409586 A    
C22   H2    1.082695 S    
O60   C124  1.413170 S    
O46   C110  1.274650 A    
N3    N4    1.329511 A    
C48   C56   1.470763 S    
C118  H54   1.109227 S    
C60   H12   1.088014 S    
N23   O78   1.301899 A    
N18   O64   1.301346 A    
C79   H23   1.083458 S    
O5    C1    1.278039 A    
C18   O50   1.383700 S    
C63   H15   1.083053 S    
C68   H20   1.083258 S    
O25   C13   1.279927 A    
C121  H62   1.113240 S    
C57   H9    1.088012 S    
O27   C15   1.279929 A    
N28   O88   1.299867 A    
O40   Zn11  2.010293 S    
C33   N17   1.437963 S    
C122  H65   1.113241 S    
C10   C102  1.434443 S    
C41   N5    1.355109 A    
C56   C60   1.348290 D    
C3    C59   1.451235 S    
Zn2   O26   2.003329 S    
O16   Zn8   2.003333 S    
C117  H49   1.113760 S    
O14   C6    1.279249 A    
C102  H34   1.086162 S    
C80   H24   1.083456 S    
O56   C120  1.409719 S    
C121  H63   1.109233 S    
C56   N28   1.434569 S    
C120  H60   1.113154 S    
C50   N22   1.445083 S    
C124  H71   1.113241 S    
O43   C111  1.288478 A    
C59   H11   1.088013 S    
C115  H45   1.111443 S    
C116  H48   1.111443 S    
C1    C57   1.451234 S    
O10   C6    1.281946 A    
O3    Zn3   1.996444 S    
C31   H7    1.083080 S    
C44   N8    1.355109 A    
O52   C116  1.411401 S    
C48   O72   1.386706 S    
N11   N15   1.330194 A    
C67   C71   1.403047 A    
O46   Zn11  2.009641 S    
C9    C101  1.434445 S    
C123  H67   1.110307 S    
C113  H37   1.109193 S    
C89   C93   1.342749 D    
N24   O80   1.301900 A    
C12   C104  1.434442 S    
C33   C37   1.416370 A    
C92   C96   1.342749 D    
Zn1   O17   2.006978 S    
C4    C60   1.451233 S    
C117  H51   1.109229 S    
C18   C22   1.393998 A    
C122  H66   1.109232 S    
C35   C39   1.416369 A    
O13   Zn5   2.003329 S    
O33   C105  1.284243 A    
O59   C123  1.413173 S    
O15   Zn7   2.003329 S    
C32   C36   1.397826 A    
C93   O57   1.394611 S    
C52   N24   1.445086 S    
C118  H52   1.113741 S    
C94   O58   1.394611 S    
C63   C83   1.401321 A    
C61   C81   1.401315 A    
N12   N16   1.327311 A    
C96   O60   1.394612 S    
N20   O67   1.301373 A    
C36   N20   1.437965 S    
C42   N6    1.355109 A    
C45   C53   1.470751 S    
C47   C55   1.470764 S    
C98   C102  1.333277 D    
N21   O74   1.301902 A    
O48   Zn9   2.009641 S    
N14   C86   1.355079 A    
C97   H29   1.086122 S    
O51   C115  1.411404 S    
C100  H32   1.086117 S    
C25   C29   1.400141 A    
C34   N18   1.437965 S    
C2    C58   1.451232 S    
C28   C32   1.400142 A    
C64   H16   1.083053 S    
C92   H28   1.087046 S    
Zn7   O31   2.017649 S    
Zn8   O32   2.017646 S    
C125  H74   1.109369 S    
C95   C108  1.444344 S    
C30   C34   1.397826 A    
Zn6   O30   2.017646 S    
C126  H78   1.109165 S    
N18   O63   1.301375 A    
C5    C37   1.464730 S    
O71   C127  1.410442 S    
C55   N27   1.434565 S    
C47   O71   1.386706 S    
O1    C1    1.276316 A    
C54   N26   1.434572 S    
C25   C42   1.466530 S    
C70   C74   1.410384 A    
C27   C44   1.466531 S    
O54   C118  1.409735 S    
C34   C38   1.416369 A    
C125  H75   1.109160 S    
C75   C79   1.394685 A    
N25   O81   1.300630 A    
N17   O61   1.301371 A    
O47   C111  1.274646 A    
O21   C9    1.276892 A    
O28   C16   1.279927 A    
C123  H69   1.109234 S    
O30   C14   1.283553 A    
C114  H41   1.114290 S    
C8    C40   1.464728 S    
C89   C97   1.459658 S    
C50   C110  1.459839 S    
O41   Zn11  1.994832 S    
C46   C54   1.470760 S    
O35   Zn11  1.995473 S    
O47   Zn10  2.009644 S    
N9    N13   1.330186 A    
C48   C52   1.356877 D    
C69   C73   1.410347 A    
C63   C67   1.392405 A    
C72   C76   1.410353 A    
C61   C65   1.392402 A    
O6    C2    1.278035 A    
C68   C72   1.403048 A    
C67   H19   1.083259 S    
O26   C14   1.279948 A    
C31   C35   1.397826 A    
C128  H82   1.112842 S    
C115  H44   1.114290 S    
C6    C38   1.464729 S    
C71   C88   1.465079 S    
C11   C103  1.434442 S    
C52   C112  1.459834 S    
Zn3   O27   2.003333 S    
Zn4   O20   2.006979 S    
C30   H6    1.083080 S    
Zn5   O21   1.996693 S    
O58   C122  1.413169 S    
C80   C84   1.401857 A    
N1    N2    1.329514 A    
C77   H21   1.083457 S    
O12   Zn4   2.017649 S    
N20   O68   1.301343 A    
C74   O54   1.382058 S    
O69   C125  1.410446 S    
C76   C80   1.394691 A    
O72   C128  1.410440 S    
O7    C3    1.278035 A    
C96   C107  1.444343 S    
O34   Zn10  1.995471 S    
N26   O84   1.299865 A    
C99   C103  1.333279 D    
C118  H53   1.113194 S    
N11   C88   1.356851 A    
N12   C87   1.355073 A    
C61   H13   1.083053 S    
C28   C43   1.466530 S    
Zn2   O18   2.006979 S    
O16   C8    1.279251 A    
C94   C105  1.444349 S    
O14   Zn6   2.003333 S    
O57   C121  1.413170 S    
C53   C57   1.348289 D    
C77   C81   1.401857 A    
O11   C7    1.281943 A    
O12   C8    1.281943 A    
C7    C39   1.464728 S    
O1    Zn1   1.996444 S    
C62   C82   1.401354 A    
O9    Zn1   2.017645 S    
O37   Zn10  2.010295 S    
O4    Zn4   1.996444 S    
O5    Zn5   2.006980 S    
C45   C49   1.356876 D    
C117  H50   1.113155 S    
O18   C10   1.269883 A    
O7    Zn7   2.006980 S    
O8    Zn8   2.006983 S    
C120  H59   1.113759 S    
C97   C101  1.333280 D    
C128  H84   1.109166 S    
C124  H70   1.110309 S    
O24   C12   1.276893 A    
C91   C95   1.342749 D    
N4    C43   1.356926 A    
O10   Zn2   2.017649 S    
C100  C104  1.333280 D    
C116  H47   1.114290 S    
C62   H14   1.083051 S    
N15   C87   1.356851 A    
C92   C100  1.459658 S    
N7    N8    1.326166 A    
C119  H55   1.113758 S    
O35   C107  1.284240 A    
O49   C113  1.411402 S    
C58   H10   1.088011 S    
C123  H68   1.113241 S    
C113  H38   1.114290 S    
C64   C84   1.401316 A    
C65   H17   1.083259 S    
C32   H8    1.083080 S    
O55   C119  1.409721 S    
O2    C2    1.276320 A    
C49   N21   1.445085 S    
C127  H79   1.112842 S    
O31   C15   1.283532 A    
C21   C25   1.398941 A    
O32   C16   1.283530 A    
O70   C126  1.410446 S    
O37   C105  1.269733 A    
C103  H35   1.086161 S    
C101  H33   1.086161 S    
C99   H31   1.086122 S    
N9    C86   1.356854 A    
O22   C10   1.276893 A    
C113  H39   1.111443 S    
O42   C110  1.288476 A    
N22   O75   1.301312 A    
C27   C31   1.400141 A    
Zn7   O23   1.996693 S    
C46   C50   1.356879 D    
C24   C28   1.398943 A    
N21   O73   1.301311 A    
C76   O56   1.382095 S    
C121  H61   1.110309 S    
N10   N14   1.327323 A    
C104  H36   1.086164 S    
N28   O87   1.300628 A    
O38   C106  1.269736 A    
C114  H40   1.109194 S    
C55   C59   1.348290 D    
O48   C112  1.274646 A    
C62   C66   1.392413 A    
