data_mof_unit_12532.cif
_audit_creation_date              2012-12-10T17:24:27-0500
_audit_creation_method            fapswitch 2.2
_symmetry_space_group_name_H-M    P1
_symmetry_Int_Tables_number       1
_space_group_crystal_system       triclinic
_cell_length_a                    31.565359
_cell_length_b                    18.438492
_cell_length_c                    25.617149
_cell_angle_alpha                 90.087939
_cell_angle_beta                  144.677895
_cell_angle_gamma                 89.918114
_cell_volume                      8620.32796979

loop_
_atom_site_label
_atom_site_type_symbol
_atom_type_description
_atom_site_fract_x
_atom_site_fract_y
_atom_site_fract_z
_atom_type_partial_charge
C1    C     C_R   0.855870 0.864419 0.109211 0.505418
C2    C     C_R   0.152737 0.282757 0.276446 -0.113395
C3    C     C_R   0.758259 0.201630 0.048983 -0.028464
C4    C     C_R   0.253184 0.303231 0.044901 -0.014922
C5    C     C_R   0.701379 0.749257 0.913448 -0.042385
C6    C     C_R   0.744188 0.299585 0.950745 -0.016291
C7    C     C_R   0.296925 0.747195 0.084911 -0.042004
C8    C     C_R   0.194427 0.196996 0.947273 0.017157
C9    C     C_R   0.789105 0.819909 0.049686 0.037468
C10   C     C_R   0.805716 0.196934 0.053364 0.017478
C11   C     C_R   0.210636 0.819423 0.950190 0.038284
C12   C     C_R   0.690718 0.703299 0.946620 -0.008511
C13   C     C_R   0.169796 0.738473 0.284145 -0.133829
C14   C     C_R   0.299613 0.307181 0.047295 0.038389
C15   C     C_R   0.308381 0.702149 0.052263 -0.009186
C16   C     C_R   0.700460 0.307130 0.952328 0.037860
C17   C     C_R   0.866891 0.927652 0.919508 -0.078457
C18   C     C_R   0.131474 0.924820 0.078627 -0.079130
C19   C     C_R   0.516885 0.632081 0.070403 -0.028091
C20   C     C_R   0.496793 0.364858 0.942134 -0.043726
C21   C     C_R   0.803626 0.910639 0.828140 -0.100322
C22   C     C_R   0.194203 0.906073 0.169444 -0.101352
C23   C     C_R   0.510267 0.697772 0.037310 -0.085777
C24   C     C_R   0.845852 0.284075 0.723537 -0.062256
C25   C     C_R   0.500407 0.299323 0.972676 -0.100086
C26   C     C_R   0.804843 0.908745 0.775358 -0.106053
C27   C     C_R   0.193167 0.904621 0.222394 -0.109335
C28   C     C_R   0.491518 0.698060 0.965875 -0.101400
C29   C     C_R   0.505155 0.299145 0.031562 -0.097346
C30   C     C_R   0.869279 0.924292 0.813541 -0.086785
C31   C     C_R   0.129343 0.922331 0.184884 -0.096041
C32   C     C_R   0.483078 0.632604 0.930705 -0.040252
C33   C     C_R   0.507237 0.364512 0.061015 -0.042555
C34   C     C_R   0.933440 0.946415 0.905032 0.012733
C35   C     C_R   0.347767 0.217905 0.725978 -0.132553
C36   C     C_R   0.065572 0.945406 0.093823 0.012501
C37   C     C_R   0.494831 0.565639 0.968125 0.024123
C38   C     C_R   0.502671 0.431626 0.029789 0.024599
C39   C     C_R   0.932549 0.947397 0.959435 0.015939
C40   C     C_R   0.066415 0.946115 0.039381 0.017236
C41   C     C_R   0.504889 0.565413 0.032194 0.020663
C42   C     C_R   0.499345 0.431835 0.971831 0.026045
C43   C     C_R   0.000238 0.961847 0.945893 -0.015748
C44   C     C_R   0.999099 0.961995 0.053328 -0.017211
C45   C     C_R   0.497583 0.499045 0.943986 0.034559
C46   C     C_R   0.834902 0.621464 0.490495 -0.129455
C47   C     C_R   0.502618 0.498609 0.056285 0.032050
C48   C     C_R   0.999647 0.988759 0.108650 0.525154
C49   C     C_R   0.000243 0.988669 0.891197 0.527540
C50   C     C_R   0.500286 0.499087 0.109330 0.525067
C51   C     C_R   0.499729 0.499833 0.890715 0.523826
C52   C     C_R   0.000753 0.000101 0.392343 0.509668
C53   C     C_R   0.000186 0.000025 0.608571 0.513419
C54   C     C_R   0.500012 0.500066 0.391606 0.517255
C55   C     C_R   0.499987 0.499877 0.608382 0.520803
C56   C     C_3   0.018551 0.933887 0.501283 -0.102746
C57   C     C_R   0.656430 0.217847 0.277714 -0.121449
C58   C     C_3   0.984457 0.067165 0.501597 -0.113658
C59   C     C_3   0.951308 0.952613 0.468002 -0.107381
C60   C     C_3   0.051556 0.048246 0.534684 -0.121471
C61   C     C_3   0.560269 0.465663 0.543061 -0.124824
C62   C     C_3   0.439719 0.533873 0.456859 -0.122735
C63   C     C_3   0.500266 0.430893 0.517193 -0.098271
C64   C     C_3   0.499843 0.568677 0.482903 -0.102022
C65   C     C_3   0.068096 0.981587 0.585993 -0.114601
C66   C     C_3   0.934747 0.019382 0.416824 -0.116577
C67   C     C_3   0.560053 0.534122 0.577820 -0.117478
C68   C     C_R   0.325702 0.759386 0.711992 -0.066012
C69   C     C_3   0.440006 0.465338 0.422203 -0.115185
C70   C     C_3   0.000923 0.000330 0.551906 0.063158
C71   C     C_3   0.001750 0.000486 0.450707 0.061772
C72   C     C_3   0.499992 0.499475 0.551002 0.065769
C73   C     C_3   0.500029 0.500147 0.448990 0.063111
C74   C     C_R   0.253613 0.146511 0.589211 0.162693
C75   C     C_R   0.837710 0.752730 0.496920 0.186904
C76   C     C_R   0.752550 0.149152 0.416684 0.156024
C77   C     C_R   0.234056 0.834311 0.578095 0.126690
C78   C     C_R   0.664318 0.745131 0.506419 0.196963
C79   C     C_R   0.712668 0.877732 0.515239 -0.114117
C80   C     C_R   0.248680 0.351925 0.415179 0.159622
C81   C     C_R   0.268375 0.669391 0.422310 0.160539
C82   C     C_R   0.749829 0.352982 0.584433 0.119495
C83   C     C_R   0.301485 0.158284 0.679270 0.157951
C84   C     C_R   0.857167 0.687426 0.491561 0.123889
C85   C     C_R   0.705176 0.160033 0.326510 0.113784
C86   C     C_R   0.275383 0.815237 0.664224 0.136327
C87   C     C_R   0.643578 0.810370 0.509701 0.134097
C88   C     C_R   0.199956 0.341790 0.324287 0.103657
C89   C     C_R   0.224265 0.686461 0.334577 0.121268
C90   C     C_R   0.152314 0.234441 0.317363 -0.090156
C91   C     C_R   0.798637 0.342929 0.675704 0.113805
C92   C     C_2   0.077289 0.210451 0.915943 0.563605
C93   C     C_2   0.713733 0.951180 0.920419 0.617548
C94   C     C_2   0.923189 0.210598 0.085291 0.563219
C95   C     C_2   0.286255 0.948780 0.083217 0.615536
C96   C     C_2   0.623244 0.669825 0.987764 0.587175
C97   C     C_2   0.317111 0.346383 0.946619 0.601460
C98   C     C_2   0.370688 0.666278 0.003693 0.592795
C99   C     C_2   0.687801 0.351488 0.058169 0.603780
C100  C     C_2   0.842154 0.769494 0.289691 0.572259
C101  C     C_R   0.159749 0.775274 0.320538 -0.130373
C102  C     C_2   0.298057 0.086713 0.890219 0.579914
C103  C     C_2   0.139101 0.753793 0.697378 0.566435
C104  C     C_2   0.704123 0.092655 0.114834 0.575051
C105  C     C_2   0.217023 0.412830 0.132216 0.568704
C106  C     C_2   0.633601 0.773045 0.705747 0.586972
C107  C     C_2   0.768289 0.392534 0.843211 0.575963
C108  C     C_2   0.354667 0.763930 0.285295 0.565226
C109  C     C_R   0.138887 0.140674 0.890394 0.517600
C110  C     C_R   0.846777 0.235539 0.683153 -0.116351
C111  C     C_R   0.348615 0.265167 0.684948 -0.122915
C112  C     C_R   0.787595 0.620480 0.485484 -0.108465
C113  C     C_R   0.653201 0.264565 0.316804 -0.124803
C114  C     C_R   0.336128 0.721927 0.676258 -0.124868
C115  C     C_R   0.736974 0.812693 0.516164 -0.022812
C116  C     C_R   0.201097 0.242121 0.409170 -0.023442
C117  C     C_R   0.205927 0.763474 0.410717 -0.028290
C118  C     C_R   0.798851 0.243240 0.591858 -0.041444
C119  C     C_R   0.300054 0.256537 0.593387 -0.023117
C120  C     C_R   0.144078 0.864272 0.890829 0.506453
C121  C     C_R   0.764051 0.685649 0.485558 -0.023669
C122  C     C_R   0.701314 0.256957 0.408229 -0.033240
C123  C     C_R   0.292695 0.735766 0.587741 -0.031263
C124  C     C_R   0.249331 0.198159 0.542673 -0.010496
C125  C     C_R   0.799360 0.750837 0.506853 0.024796
C126  C     C_R   0.753192 0.199721 0.460180 0.016729
C127  C     C_R   0.240169 0.792291 0.536875 0.031328
C128  C     C_R   0.702370 0.747238 0.495888 -0.000007
C129  C     C_R   0.251992 0.300044 0.460185 0.021719
C130  C     C_R   0.260292 0.708694 0.462655 0.019092
C131  C     C_R   0.860866 0.140395 0.109730 0.518528
C132  C     C_R   0.747657 0.301038 0.540266 0.029656
C133  C     C_R   0.793496 0.811586 0.534871 0.005641
C134  C     C_R   0.198561 0.193290 0.449416 0.015263
C135  C     C_R   0.196926 0.805067 0.447944 0.030914
C136  C     C_R   0.802538 0.194540 0.552623 0.017949
C137  C     C_R   0.302641 0.305134 0.553120 0.031112
C138  C     C_R   0.707363 0.687117 0.466497 -0.027124
C139  C     C_R   0.697564 0.305548 0.447447 0.030368
C140  C     C_R   0.302800 0.694960 0.551243 0.020620
C141  C     C_R   0.816190 0.792431 0.169367 -0.085151
C142  C     C_R   0.360707 0.359019 0.108576 0.483546
C143  C     C_R   0.247654 0.142544 0.921128 -0.116766
C144  C     C_R   0.179477 0.788476 0.827507 -0.090665
C145  C     C_R   0.754466 0.145882 0.083104 -0.116423
C146  C     C_R   0.259722 0.354615 0.092347 -0.100643
C147  C     C_R   0.675281 0.733375 0.836407 -0.092783
C148  C     C_R   0.733870 0.345874 0.896914 -0.101217
C149  C     C_R   0.320414 0.729138 0.159524 -0.090193
C150  C     C_R   0.799937 0.755570 0.199000 0.038062
C151  C     C_R   0.291914 0.148273 0.921244 0.042726
C152  C     C_R   0.189123 0.745875 0.792879 0.031141
C153  C     C_R   0.640161 0.640822 0.890824 0.512873
C154  C     C_R   0.710718 0.153234 0.083638 0.042886
C155  C     C_R   0.211094 0.355720 0.085465 0.042312
C156  C     C_R   0.665968 0.788777 0.790182 0.031432
C157  C     C_R   0.779655 0.342624 0.899334 0.042353
C158  C     C_R   0.328071 0.782873 0.205545 0.028781
C159  C     C_R   0.154712 0.304793 0.030375 -0.117677
C160  C     C_R   0.681861 0.860192 0.820846 -0.154945
C161  C     C_R   0.838457 0.294386 0.958626 -0.113871
C162  C     C_R   0.314830 0.855114 0.178321 -0.161141
C163  C     C_R   0.739841 0.709668 0.139557 -0.119846
C164  C     C_R   0.639606 0.359248 0.891378 0.482946
C165  C     C_R   0.325066 0.214929 0.943847 -0.137872
C166  C     C_R   0.248832 0.699294 0.850952 -0.117072
C167  C     C_R   0.678281 0.220486 0.061115 -0.139622
C168  C     C_R   0.145412 0.253741 0.981044 -0.002896
C169  C     C_R   0.715214 0.875079 0.902493 0.050918
C170  C     C_R   0.851886 0.249072 0.014805 -0.002104
C171  C     C_R   0.283475 0.872090 0.098270 0.050539
C172  C     C_R   0.697231 0.698370 0.052022 0.015032
C173  C     C_R   0.317450 0.273406 0.970874 0.022516
C174  C     C_R   0.296322 0.692620 0.941504 0.013572
C175  C     C_R   0.359940 0.640757 0.109029 0.517424
C176  C     C_R   0.685843 0.277837 0.033182 0.022774
C177  C     C_R   0.196411 0.250565 0.989647 -0.021479
C178  C     C_R   0.735808 0.816162 0.955943 -0.003985
C179  C     C_R   0.801954 0.247993 0.007901 -0.022280
C180  C     C_R   0.263389 0.814526 0.043796 -0.002837
C181  C     C_R   0.721256 0.724885 0.026752 -0.032611
C182  C     C_R   0.287273 0.261321 0.991070 -0.000302
C183  C     C_R   0.276051 0.722346 0.970619 -0.035348
C184  C     C_R   0.714696 0.263733 0.011460 0.001573
C185  C     C_R   0.140732 0.138945 0.391377 0.506911
C186  C     C_R   0.664982 0.876459 0.509625 -0.150705
C187  C     C_R   0.856058 0.863430 0.602482 0.519454
C188  C     C_R   0.860140 0.139806 0.610422 0.565778
C189  C     C_R   0.140593 0.860994 0.391379 0.539449
C190  C     C_R   0.643935 0.636477 0.397448 0.504415
C191  C     C_R   0.360053 0.360195 0.610269 0.539098
C192  C     C_R   0.359058 0.638772 0.607911 0.546150
C193  C     C_R   0.639853 0.360184 0.389557 0.542396
C194  C     C_R   0.777943 0.777761 0.083901 -0.015804
C195  C     C_R   0.243288 0.199671 0.953720 -0.029283
C196  C     C_R   0.220159 0.775930 0.914634 -0.017493
H1    H     H_    0.122666 0.965830 0.656289 0.144295
H2    H     H_    0.134018 0.916353 0.039595 0.149249
H3    H     H_    0.814867 0.444089 0.721069 0.234167
H4    H     H_    0.936689 0.801002 0.417089 0.328018
H5    H     H_    0.267198 0.985002 0.839781 0.342705
H6    H     H_    0.041798 0.789420 0.573060 0.332292
H7    H     H_    0.734245 0.991194 0.165583 0.345654
H8    H     H_    0.268515 0.502955 0.209790 0.348903
H9    H     H_    0.598712 0.698149 0.619042 0.345757
H10   H     H_    0.707502 0.471332 0.749244 0.330246
H11   H     H_    0.377893 0.685456 0.360806 0.336649
H12   H     H_    0.530462 0.633905 0.125131 0.172136
H13   H     H_    0.492669 0.362502 0.895865 0.110196
H14   H     H_    0.754366 0.895212 0.799076 0.145696
H15   H     H_    0.242859 0.889099 0.197950 0.150655
H16   H     H_    0.518392 0.748449 0.066058 0.140453
H17   H     H_    0.499945 0.248518 0.951035 0.115455
H18   H     H_    0.868700 0.913028 0.771650 0.151562
H19   H     H_    0.129942 0.911974 0.226835 0.144298
H20   H     H_    0.469474 0.634818 0.875993 0.156142
H21   H     H_    0.880111 0.034958 0.346499 0.151751
H22   H     H_    0.511650 0.361922 0.107547 0.112222
H23   H     H_    0.034901 0.880572 0.501429 0.150100
H24   H     H_    0.970365 0.121917 0.502472 0.141427
H25   H     H_    0.910131 0.913668 0.441762 0.139214
H26   H     H_    0.092678 0.087340 0.560975 0.139679
H27   H     H_    0.609646 0.437726 0.577280 0.114491
H28   H     H_    0.390127 0.561562 0.422277 0.131044
H29   H     H_    0.500453 0.374298 0.532100 0.149085
H30   H     H_    0.500319 0.625165 0.468495 0.158691
H31   H     H_    0.114938 0.275040 0.206304 0.147433
H32   H     H_    0.609447 0.561802 0.642878 0.163698
H33   H     H_    0.647419 0.926995 0.509575 0.125868
H34   H     H_    0.883275 0.276396 0.793517 0.169717
H35   H     H_    0.134508 0.750199 0.215728 0.117479
H36   H     H_    0.851808 0.570835 0.489697 0.125748
H37   H     H_    0.384589 0.226693 0.795434 0.114728
H38   H     H_    0.358247 0.745682 0.778583 0.139749
H39   H     H_    0.620033 0.225979 0.208389 0.118265
H40   H     H_    0.727957 0.930216 0.515339 0.160204
H41   H     H_    0.112934 0.190837 0.275347 0.191999
H42   H     H_    0.114583 0.813124 0.275945 0.113867
H43   H     H_    0.391153 0.436374 0.357988 0.162260
H44   H     H_    0.885872 0.191691 0.725114 0.184595
H45   H     H_    0.387997 0.308854 0.726560 0.119323
H46   H     H_    0.771802 0.568080 0.484778 0.155568
H47   H     H_    0.612546 0.307128 0.273984 0.117912
H48   H     H_    0.379257 0.681903 0.720097 0.143923
H49   H     H_    0.666342 0.904529 0.779844 0.176820
H50   H     H_    0.115408 0.306614 0.022608 0.167849
H51   H     H_    0.330286 0.898314 0.220340 0.173610
H52   H     H_    0.876312 0.293995 0.964035 0.172670
H53   H     H_    0.350838 0.223378 0.932114 0.166706
H54   H     H_    0.241051 0.886521 0.291818 0.150239
H55   H     H_    0.723004 0.686404 0.159603 0.180259
H56   H     H_    0.653186 0.230266 0.073614 0.166545
H57   H     H_    0.261643 0.672401 0.827283 0.185838
H58   H     H_    0.855144 0.836043 0.211752 0.190895
H59   H     H_    0.217329 0.092798 0.896421 0.155876
H60   H     H_    0.142522 0.833597 0.786442 0.193204
H61   H     H_    0.784469 0.095801 0.107970 0.154225
H62   H     H_    0.301535 0.396088 0.133179 0.167023
H63   H     H_    0.660846 0.678593 0.810927 0.182485
H64   H     H_    0.691132 0.386432 0.853985 0.170386
H65   H     H_    0.756587 0.891885 0.705497 0.127727
H66   H     H_    0.333679 0.673714 0.182870 0.186067
H67   H     H_    0.029966 0.262573 0.807932 0.307591
H68   H     H_    0.710010 0.018496 0.978623 0.338857
H69   H     H_    0.963399 0.266802 0.187004 0.309861
H70   H     H_    0.292142 0.018175 0.028628 0.338668
H71   H     H_    0.571420 0.743963 0.890611 0.304099
H72   H     H_    0.265455 0.442653 0.887388 0.354877
H73   H     H_    0.422805 0.741558 0.100245 0.303551
H74   H     H_    0.740172 0.447689 0.115476 0.353369
H75   H     H_    0.159911 0.086677 0.504468 0.250182
H76   H     H_    0.506761 0.248179 0.053994 0.115300
H77   H     H_    0.223665 0.050572 0.524934 0.239901
H78   H     H_    0.817892 0.818899 0.415754 0.257202
H79   H     H_    0.903863 0.824038 0.525893 0.287605
H80   H     H_    0.831023 0.086346 0.462197 0.252251
H81   H     H_    0.763609 0.039686 0.425282 0.240193
H82   H     H_    0.222113 0.941920 0.578725 0.241644
H83   H     H_    0.149966 0.890827 0.525892 0.244249
H84   H     H_    0.600660 0.667083 0.475647 0.280719
H85   H     H_    0.683519 0.635714 0.537884 0.210142
H86   H     H_    0.253904 0.460896 0.423494 0.238954
H87   H     H_    0.485085 0.749008 0.938994 0.130247
H88   H     H_    0.321479 0.421427 0.455400 0.248862
H89   H     H_    0.357804 0.626963 0.477118 0.258912
H90   H     H_    0.292715 0.565757 0.427176 0.231634
H91   H     H_    0.739401 0.462893 0.573205 0.209702
H92   H     H_    0.672206 0.418347 0.538832 0.225135
H93   H     H_    0.356798 0.088113 0.780861 0.249205
H94   H     H_    0.291063 0.136539 0.745624 0.257643
H95   H     H_    0.871515 0.659780 0.430436 0.269904
H96   H     H_    0.948875 0.660596 0.544260 0.245635
H97   H     H_    0.654082 0.089504 0.226914 0.258918
H98   H     H_    0.863992 0.919082 0.958126 0.149758
H99   H     H_    0.718946 0.141320 0.263377 0.265566
H100  H     H_    0.213554 0.849649 0.663119 0.252429
H101  H     H_    0.281429 0.907680 0.713406 0.242000
H102  H     H_    0.630277 0.837622 0.571887 0.266801
H103  H     H_    0.552324 0.836939 0.458082 0.251183
H104  H     H_    0.145040 0.413288 0.223945 0.256907
H105  H     H_    0.210041 0.364570 0.257844 0.272535
H106  H     H_    0.185179 0.623417 0.236981 0.246339
H107  H     H_    0.245460 0.687728 0.278490 0.251301
H108  H     H_    0.749686 0.394856 0.686932 0.245168
N1    N     N_3   0.215107 0.078841 0.551164 -0.618679
N2    N     N_3   0.900054 0.688480 0.487879 -0.596764
N3    N     N_3   0.706597 0.111233 0.284379 -0.626444
N4    N     N_3   0.267999 0.853151 0.705449 -0.618169
N5    N     N_3   0.601265 0.809056 0.514189 -0.581708
N6    N     N_3   0.198275 0.392722 0.280454 -0.625712
N7    N     N_3   0.234402 0.649121 0.296177 -0.645714
N8    N     N_3   0.801430 0.392580 0.721546 -0.573757
N9    N     N_3   0.848700 0.820190 0.481127 -0.595563
N10   N     N_3   0.797544 0.085273 0.461670 -0.606430
N11   N     N_3   0.188984 0.897860 0.535688 -0.616216
N12   N     N_3   0.656326 0.679280 0.528025 -0.591054
N13   N     N_3   0.290671 0.417545 0.458740 -0.598171
N14   N     N_3   0.320289 0.611740 0.468232 -0.592392
N15   N     N_3   0.705411 0.417285 0.538977 -0.620741
N16   N     N_3   0.303364 0.108057 0.723772 -0.584013
O1    O     O_3   0.999990 0.000000 0.249990 -0.453885
O2    O     O_R   0.585440 0.646160 0.804690 -0.537542
O3    O     O_R   0.585440 0.353840 0.804690 -0.545624
O4    O     O_R   0.414560 0.646160 0.195310 -0.534505
O5    O     O_R   0.085440 0.146150 0.366190 -0.517966
O6    O     O_R   0.914560 0.853850 0.633810 -0.519377
O7    O     O_R   0.914560 0.146150 0.633810 -0.499019
O8    O     O_R   0.085440 0.853850 0.366190 -0.512592
O9    O     O_R   0.585440 0.646150 0.366190 -0.539149
O10   O     O_R   0.414560 0.353850 0.633810 -0.524311
O11   O     O_R   0.414560 0.646150 0.633810 -0.505967
O12   O     O_3   0.000010 0.000000 0.750010 -0.451322
O13   O     O_R   0.585440 0.353850 0.366190 -0.520924
O14   O     O_R   0.853820 0.085430 0.073070 -0.492344
O15   O     O_R   0.146180 0.914570 0.926930 -0.545770
O16   O     O_R   0.146180 0.085430 0.926930 -0.493278
O17   O     O_R   0.853820 0.914570 0.073070 -0.548258
O18   O     O_R   0.353820 0.585430 0.073070 -0.515506
O19   O     O_R   0.646180 0.414570 0.926930 -0.514303
O20   O     O_R   0.646180 0.585430 0.926930 -0.514291
O21   O     O_R   0.353820 0.414570 0.073070 -0.513521
O22   O     O_R   0.146150 0.914540 0.365390 -0.560130
O23   O     O_3   0.499990 0.500000 0.249990 -0.453729
O24   O     O_R   0.853850 0.085460 0.634610 -0.540859
O25   O     O_R   0.853850 0.914540 0.634610 -0.572490
O26   O     O_R   0.146150 0.085460 0.365390 -0.544656
O27   O     O_R   0.646150 0.414540 0.365390 -0.546941
O28   O     O_R   0.353850 0.585460 0.634610 -0.539139
O29   O     O_R   0.353850 0.414540 0.634610 -0.533293
O30   O     O_R   0.646150 0.585460 0.365390 -0.541426
O31   O     O_R   0.939240 0.000000 0.071950 -0.513873
O32   O     O_R   0.060760 0.000000 0.928050 -0.510538
O33   O     O_R   0.439240 0.500000 0.071950 -0.461012
O34   O     O_3   0.500010 0.500000 0.750010 -0.458774
O35   O     O_R   0.560760 0.500000 0.928050 -0.459629
O36   O     O_R   0.000020 0.939290 0.367320 -0.531649
O37   O     O_R   0.999980 0.060710 0.632680 -0.548395
O38   O     O_R   0.999980 0.939290 0.632680 -0.535277
O39   O     O_R   0.000020 0.060710 0.367320 -0.550347
O40   O     O_R   0.500020 0.439290 0.367320 -0.536925
O41   O     O_R   0.499980 0.560710 0.632680 -0.532842
O42   O     O_R   0.499980 0.439290 0.632680 -0.538225
O43   O     O_R   0.500020 0.560710 0.367320 -0.553471
O44   O     O_R   0.060680 0.000000 0.193390 -0.544066
O45   O     O_R   0.914560 0.853840 0.195310 -0.551083
O46   O     O_R   0.939320 0.000000 0.806610 -0.547415
O47   O     O_R   0.560680 0.500000 0.193390 -0.566731
O48   O     O_R   0.439320 0.500000 0.806610 -0.570496
O49   O     O_2   0.070065 0.166191 0.943685 -0.455124
O50   O     O_R   0.019375 0.222341 0.823117 -0.694198
O51   O     O_2   0.711009 0.001798 0.886907 -0.502997
O52   O     O_R   0.713676 0.964886 0.974060 -0.684834
O53   O     O_2   0.935627 0.166574 0.063276 -0.460156
O54   O     O_R   0.978159 0.226940 0.176669 -0.685146
O55   O     O_2   0.288618 0.998288 0.117410 -0.504347
O56   O     O_R   0.085440 0.146160 0.804690 -0.524509
O57   O     O_R   0.287854 0.964326 0.031431 -0.683951
O58   O     O_2   0.616522 0.621425 0.012866 -0.485624
O59   O     O_R   0.560714 0.699233 0.901438 -0.717951
O60   O     O_2   0.362495 0.362379 0.959253 -0.540271
O61   O     O_R   0.260780 0.395053 0.902181 -0.655736
O62   O     O_2   0.377479 0.618854 0.977731 -0.485767
O63   O     O_R   0.433478 0.697098 0.088999 -0.706012
O64   O     O_2   0.644183 0.368728 0.048261 -0.537013
O65   O     O_R   0.743639 0.399504 0.099984 -0.655643
O66   O     O_2   0.815903 0.754972 0.305959 -0.541482
O67   O     O_R   0.085440 0.853840 0.804690 -0.552462
O68   O     O_R   0.912692 0.798211 0.357433 -0.697964
O69   O     O_2   0.337945 0.091407 0.892101 -0.539692
O70   O     O_R   0.258520 0.022847 0.859146 -0.707786
O71   O     O_2   0.154119 0.725871 0.670460 -0.511847
O72   O     O_R   0.073313 0.791742 0.637156 -0.704963
O73   O     O_2   0.664065 0.098504 0.112618 -0.541741
O74   O     O_R   0.743226 0.028301 0.146152 -0.710363
O75   O     O_2   0.174593 0.413464 0.126513 -0.534379
O76   O     O_R   0.270443 0.466924 0.181808 -0.723749
O77   O     O_2   0.617908 0.822701 0.660420 -0.532992
O78   O     O_R   0.914560 0.146160 0.195310 -0.519705
O79   O     O_R   0.620558 0.701453 0.677321 -0.712665
O80   O     O_2   0.811702 0.393057 0.850485 -0.505671
O81   O     O_R   0.708215 0.439590 0.782213 -0.720306
O82   O     O_2   0.370520 0.811710 0.332430 -0.525127
O83   O     O_R   0.360982 0.691188 0.306344 -0.713570
O84   O     O_R   0.414560 0.353840 0.195310 -0.544296
Zn1   Zn    Zn3+2 1.000000 0.086750 0.293940 0.977835
Zn2   Zn    Zn3+2 0.086780 0.000000 0.880710 1.012875
Zn3   Zn    Zn3+2 0.413220 0.500000 0.119290 1.015352
Zn4   Zn    Zn3+2 0.586780 0.500000 0.880710 1.009722
Zn5   Zn    Zn3+2 0.086730 0.000000 0.292800 0.945522
Zn6   Zn    Zn3+2 0.913270 0.000000 0.707200 0.946726
Zn7   Zn    Zn3+2 0.586730 0.500000 0.292800 0.939211
Zn8   Zn    Zn3+2 0.413270 0.500000 0.707200 0.955584
Zn9   Zn    Zn3+2 1.000000 0.913250 0.706060 0.949528
Zn10  Zn    Zn3+2 1.000000 0.086750 0.706060 0.986011
Zn11  Zn    Zn3+2 1.000000 0.913250 0.293940 0.951142
Zn12  Zn    Zn3+2 0.500000 0.586750 0.293940 0.956664
Zn13  Zn    Zn3+2 0.500000 0.413250 0.706060 0.951862
Zn14  Zn    Zn3+2 0.500000 0.586750 0.706060 0.978230
Zn15  Zn    Zn3+2 0.500000 0.413250 0.293940 0.947507
Zn16  Zn    Zn3+2 0.913220 0.000000 0.119290 1.006751

loop_
_geom_bond_atom_site_label_1
_geom_bond_atom_site_label_2
_ccdc_geom_bond_type
O23   Zn15  S    
C21   C26   A    
C191  O10   A    
C46   C112  A    
C6    C179  A    
C74   C124  A    
C4    C177  A    
O1    Zn11  S    
C130  C140  A    
C110  C118  A    
O40   Zn15  S    
H79   N9    S    
O16   Zn2   S    
C150  C163  A    
H86   N13   S    
C122  C139  A    
C31   C36   A    
C59   C66   S    
H97   N3    S    
C58   C60   S    
C29   C33   A    
O23   Zn12  S    
H108  N8    S    
C17   C39   A    
C2    C90   A    
C18   C40   A    
C10   C131  S    
C62   C64   S    
C96   O59   S    
C185  O5    A    
C137  C191  S    
H103  N5    S    
C40   C43   A    
C99   C176  S    
C113  H47   S    
C90   C116  A    
C3    C184  A    
C74   C83   A    
H101  N4    S    
C102  C151  S    
C85   N3    S    
C143  C151  A    
C188  O24   A    
C126  C136  A    
O23   Zn3   S    
C148  H64   S    
C89   N7    S    
C107  C157  S    
C87   C186  A    
C25   C29   A    
C77   N11   S    
C166  C174  A    
C78   N12   S    
C27   C31   A    
C28   C32   A    
C24   C110  A    
C5    C12   A    
C30   C34   A    
C58   C70   S    
C100  C150  S    
H100  N4    S    
C17   C21   A    
C82   C91   A    
C49   O46   A    
C42   C45   A    
C19   C23   A    
C190  O9    A    
O27   Zn7   S    
O3    Zn13  S    
H78   N9    S    
C12   C181  A    
C156  C160  A    
C183  C196  A    
C106  O79   S    
C181  C194  A    
C69   H43   S    
C74   N1    S    
C103  C152  S    
C46   C84   A    
C54   O40   A    
C60   C65   S    
C22   C27   A    
O23   Zn7   S    
C154  C167  A    
C36   C44   A    
C193  O13   A    
C185  O26   A    
C37   C45   A    
C117  C135  A    
C118  C136  A    
C104  O73   D    
H107  N7    S    
C93   O51   D    
C176  C184  A    
C103  O71   D    
H89   N14   S    
C61   C63   S    
H71   O59   S    
H92   N15   S    
C79   H40   S    
O10   Zn13  S    
C20   C42   A    
C16   C184  A    
C33   C38   A    
C56   C59   S    
H5    O70   S    
O5    Zn1   S    
C25   H17   S    
C80   C88   A    
C151  C165  A    
O31   Zn16  S    
C94   C170  S    
O1    Zn1   S    
O1    Zn16  S    
C57   C85   A    
C51   O35   A    
O39   Zn1   S    
C55   O42   A    
C6    C16   A    
C129  C137  A    
C97   O61   S    
C189  O22   A    
C193  O27   A    
O41   Zn14  S    
H10   O81   S    
C76   C85   A    
C139  C193  S    
C78   C87   A    
C87   N5    S    
C114  H48   S    
C14   C142  S    
O14   Zn16  S    
C79   C115  A    
C105  O75   D    
H70   O57   S    
C81   C130  A    
C63   H29   S    
O34   Zn4   S    
C16   C164  S    
C132  C139  A    
O9    Zn12  S    
O12   Zn10  S    
C131  O78   A    
C160  H49   S    
C141  H58   S    
O22   Zn5   S    
H4    O68   S    
C66   H21   S    
H8    O76   S    
C110  H44   S    
C75   C84   A    
C31   H19   S    
C23   H16   S    
C65   C70   S    
C21   H14   S    
C8    C195  A    
C111  C119  A    
C67   C72   S    
C162  H51   S    
C128  C138  A    
C50   O33   A    
C58   H24   S    
C172  C181  A    
O44   Zn5   S    
C63   C69   S    
H106  N7    S    
C64   C73   S    
C62   H28   S    
C80   N13   S    
C77   C127  A    
C96   O58   D    
C111  H45   S    
C143  H59   S    
C136  C188  S    
C4    C14   A    
C48   O44   A    
C11   C120  S    
O38   Zn9   S    
O34   Zn14  S    
C141  C150  A    
C47   C50   S    
O34   Zn8   S    
C113  C122  A    
C164  O19   A    
C155  C159  A    
C34   C39   A    
C98   O62   D    
C187  O25   A    
C99   O65   S    
C57   C113  A    
C107  O80   D    
C23   C28   A    
C92   O50   S    
C167  H56   S    
C121  C125  A    
O46   Zn6   S    
C48   O31   A    
C61   C67   S    
C123  C127  A    
H84   N12   S    
O32   Zn2   S    
H95   N2    S    
C41   C47   A    
O28   Zn8   S    
C32   C37   A    
O26   Zn5   S    
C75   N9    S    
C145  C154  A    
O20   Zn4   S    
C105  C155  S    
H105  N6    S    
C3    C145  A    
C106  C156  S    
C19   H12   S    
C107  O81   S    
C94   O53   D    
C100  O66   D    
C146  H62   S    
C114  C123  A    
O19   Zn4   S    
C80   C129  A    
C188  O7    A    
C18   C22   A    
O84   Zn15  S    
C46   H36   S    
O29   Zn8   S    
C34   C43   A    
C152  C166  A    
C26   C30   A    
C39   C44   A    
C144  C196  A    
C124  C134  A    
C170  C179  A    
C108  O83   S    
C112  C121  A    
C144  C152  A    
C84   N2    S    
O47   Zn7   S    
H93   N16   S    
C189  O8    A    
C112  H46   S    
C7    C180  A    
C148  C157  A    
C190  O30   A    
C147  H63   S    
C5    C178  A    
C97   C173  S    
C118  C132  A    
C133  C187  S    
H73   O63   S    
C142  O84   A    
C175  O4    A    
C76   N10   S    
C182  C195  A    
C95   O55   D    
C13   C101  A    
C153  O2    A    
H99   N3    S    
O13   Zn15  S    
C5    C147  A    
C79   C186  A    
C76   C126  A    
C191  O29   A    
C53   O38   A    
C78   C128  A    
C102  O70   S    
C26   H65   S    
C91   N8    S    
H83   N11   S    
C86   N4    S    
C144  H60   S    
C93   C169  S    
O11   Zn14  S    
O78   Zn1   S    
C192  O11   A    
C127  C135  A    
C24   H34   S    
C81   N14   S    
C116  C134  A    
C20   C25   A    
C168  C177  A    
C83   N16   S    
C166  H57   S    
O42   Zn13  S    
O1    Zn5   S    
C57   H39   S    
C131  O14   A    
C8    C177  A    
C146  C155  A    
C15   C183  A    
C18   H2    S    
C160  C169  A    
C100  O68   S    
C69   C73   S    
C35   H37   S    
H85   N12   S    
O18   Zn3   S    
C81   C89   A    
H88   N13   S    
C164  O3    A    
O56   Zn10  S    
C53   C70   S    
C104  O74   S    
C2    H31   S    
C49   O32   A    
H91   N15   S    
C1    C9    S    
C11   C196  A    
C35   C83   A    
C9    C194  A    
C7    C15   A    
C115  C133  A    
C60   C71   S    
C61   C73   S    
C33   H22   S    
C145  H61   S    
C62   C69   S    
C75   C125  A    
H7    O74   S    
O24   Zn6   S    
O21   Zn3   S    
C159  H50   S    
C30   H18   S    
C54   C73   S    
C66   C71   S    
C56   C71   S    
C143  C195  A    
C22   H15   S    
C20   H13   S    
C147  C156  A    
C68   H38   S    
C54   O43   A    
C55   O41   A    
O37   Zn10  S    
C97   O60   D    
O17   Zn16  S    
C10   C179  A    
H80   N10   S    
C157  C161  A    
C149  H66   S    
H96   N2    S    
C90   H41   S    
H3    N8    S    
C60   H26   S    
C174  C183  A    
C109  O16   A    
C82   N15   S    
O35   Zn4   S    
O6    Zn9   S    
C101  C117  A    
C163  H55   S    
H81   N10   S    
C52   C71   S    
O25   Zn6   S    
C108  O82   D    
C192  O28   A    
C59   C70   S    
C63   C72   S    
C109  O56   A    
O48   Zn8   S    
C11   C180  A    
C104  C154  S    
O4    Zn12  S    
C95   C171  S    
C52   O36   A    
C56   H23   S    
C9    C178  A    
C19   C41   A    
C93   O52   S    
H6    O72   S    
C28   H87   S    
C44   C48   S    
C103  O72   S    
C68   C86   A    
C12   C153  S    
C64   H30   S    
O43   Zn12  S    
C161  H52   S    
C52   O39   A    
C186  H33   S    
C119  C124  A    
O8    Zn11  S    
C106  O77   D    
C165  H53   S    
H67   O50   S    
C98   O63   S    
C27   H54   S    
C38   C42   A    
H102  N5    S    
C98   C174  S    
C108  C158  S    
C45   C51   S    
C187  O6    A    
C165  C173  A    
C56   C65   S    
C159  C168  A    
O2    Zn14  S    
C92   C168  S    
C135  C189  S    
H11   O83   S    
C59   H25   S    
C7    C149  A    
C58   C66   S    
C116  C129  A    
O30   Zn7   S    
H9    O79   S    
C2    C88   A    
C99   O64   D    
C55   C72   S    
H75   N1    S    
C102  O69   D    
C105  O76   S    
C37   C41   A    
H69   O54   S    
C94   O54   S    
C134  C185  S    
C138  C190  S    
C50   O47   A    
C13   C89   A    
C17   H98   S    
O12   Zn9   S    
C119  C137  A    
C64   C67   S    
C36   C40   A    
C175  O18   A    
H77   N1    S    
H82   N11   S    
C43   C49   S    
H72   O61   S    
O67   Zn9   S    
C120  O15   A    
C123  C140  A    
C32   H20   S    
C121  C138  A    
C122  C126  A    
C153  O20   A    
C61   H27   S    
C51   O48   A    
C163  C172  A    
C13   H35   S    
C120  O67   A    
C6    C148  A    
O12   Zn2   S    
C4    C146  A    
H94   N16   S    
O33   Zn3   S    
C62   C72   S    
C117  C130  A    
C115  C128  A    
C38   C47   A    
C14   C182  A    
H68   O52   S    
O15   Zn2   S    
C65   H1    S    
C161  C170  A    
C77   C86   A    
H90   N14   S    
C140  C192  S    
C171  C180  A    
C1    O17   A    
O45   Zn11  S    
C24   C91   A    
C169  C178  A    
O34   Zn13  S    
C35   C111  A    
C149  C158  A    
C125  C133  A    
O7    Zn10  S    
C1    O45   A    
C101  H42   S    
C29   H76   S    
C53   O37   A    
C173  C182  A    
C92   O49   D    
C88   N6    S    
C15   C175  S    
C95   O57   S    
C3    C10   A    
C8    C109  S    
O36   Zn11  S    
C67   H32   S    
O12   Zn6   S    
C141  C194  A    
C158  C162  A    
H104  N6    S    
C162  C171  A    
C96   C172  S    
C82   C132  A    
C142  O21   A    
C68   C114  A    
C167  C176  A    
H74   O65   S    
