data_mof_unit_23603.cif
_audit_creation_date              2012-12-10T16:47:17-0500
_audit_creation_method            fapswitch 2.2
_symmetry_space_group_name_H-M    P1
_symmetry_Int_Tables_number       1
_space_group_crystal_system       triclinic
_cell_length_a                    12.109471
_cell_length_b                    11.952315
_cell_length_c                    7.73105
_cell_angle_alpha                 89.999888
_cell_angle_beta                  95.096513
_cell_angle_gamma                 89.999977
_cell_volume                      1114.53904153

loop_
_atom_site_label
_atom_site_type_symbol
_atom_type_description
_atom_site_fract_x
_atom_site_fract_y
_atom_site_fract_z
_atom_type_partial_charge
C1    C     C_R   0.366563 0.839823 0.459528 0.948880
C2    C     C_2   0.760288 0.805841 0.581556 -0.034649
C3    C     C_2   0.688121 0.266756 0.555635 -0.026314
C4    C     C_2   0.311879 0.733243 0.444365 -0.026311
C5    C     C_2   0.811879 0.766756 0.444365 -0.026308
C6    C     C_2   0.188121 0.233243 0.555634 -0.026311
C7    C     C_2   0.260288 0.694159 0.581555 -0.034647
C8    C     C_2   0.739713 0.305839 0.418444 -0.034652
C9    C     C_3   0.812862 0.827084 0.271217 -0.881838
C10   C     C_3   0.187138 0.172916 0.728782 -0.881825
C11   C     C_3   0.304293 0.709110 0.770625 -0.872196
C12   C     C_R   0.633437 0.160177 0.540472 0.948884
C13   C     C_3   0.695711 0.290883 0.229375 -0.872192
C14   C     C_3   0.195709 0.209115 0.229374 -0.872186
C15   C     C_3   0.804291 0.790885 0.770625 -0.872187
C16   C     C_3   0.687145 0.327080 0.728787 -0.881822
C17   C     C_3   0.312859 0.672918 0.271215 -0.881826
C18   C     C_R   0.656115 0.862742 0.548668 0.946421
C19   C     C_R   0.343884 0.137257 0.451332 0.946421
C20   C     C_R   0.843885 0.362742 0.451332 0.946425
C21   C     C_R   0.156115 0.637258 0.548668 0.946420
C22   C     C_R   0.133438 0.339823 0.540473 0.948879
C23   C     C_R   0.866563 0.660177 0.459527 0.948880
C24   C     C_2   0.239712 0.194159 0.418444 -0.034649
H1    H     H_    0.616774 0.999938 0.003653 0.191154
H2    H     H_    0.252792 0.207054 0.823722 0.254211
H3    H     H_    0.287594 0.632888 0.846311 0.228043
H4    H     H_    0.395810 0.719520 0.784578 0.260112
H5    H     H_    0.263167 0.781373 0.828486 0.250514
H6    H     H_    0.712423 0.367098 0.153677 0.228046
H7    H     H_    0.736827 0.218608 0.171526 0.250518
H8    H     H_    0.604192 0.280487 0.215420 0.260106
H9    H     H_    0.212416 0.132897 0.153680 0.228044
H10   H     H_    0.104191 0.219517 0.215420 0.260109
H11   H     H_    0.236830 0.281386 0.171521 0.250514
H12   H     H_    0.383226 0.000062 0.996347 0.191156
H13   H     H_    0.787584 0.867103 0.846319 0.228044
H14   H     H_    0.763171 0.718615 0.828479 0.250515
H15   H     H_    0.895809 0.780484 0.784579 0.260109
H16   H     H_    0.605743 0.315761 0.782389 0.238798
H17   H     H_    0.752813 0.292950 0.823712 0.254216
H18   H     H_    0.697134 0.418873 0.713801 0.252661
H19   H     H_    0.394264 0.684230 0.217624 0.238796
H20   H     H_    0.302862 0.581126 0.286197 0.252664
H21   H     H_    0.247199 0.707052 0.176283 0.254214
H22   H     H_    0.116774 0.500062 0.003653 0.191155
H23   H     H_    0.883226 0.499938 0.996347 0.191154
H24   H     H_    0.894270 0.815778 0.217637 0.238795
H25   H     H_    0.747209 0.792948 0.176279 0.254214
H26   H     H_    0.802860 0.918874 0.286198 0.252666
H27   H     H_    0.105729 0.184221 0.782361 0.238793
H28   H     H_    0.197143 0.081125 0.713801 0.252666
N1    N     N_2   0.541470 1.000000 0.055820 -0.171469
N2    N     N_2   0.458530 0.000000 0.944180 -0.171469
N3    N     N_2   0.041470 0.500000 0.055820 -0.171469
N4    N     N_2   0.958530 0.500000 0.944180 -0.171470
O1    O     O_R   0.375700 0.885870 0.609240 -0.626039
O2    O     O_R   0.597720 0.114130 0.675960 -0.623595
O3    O     O_R   0.597720 0.885870 0.675960 -0.626920
O4    O     O_R   0.402280 0.114130 0.324040 -0.626919
O5    O     O_R   0.902280 0.385870 0.324040 -0.626920
O6    O     O_R   0.097720 0.614130 0.675960 -0.626918
O7    O     O_R   0.097720 0.385870 0.675960 -0.623592
O8    O     O_R   0.902280 0.614130 0.324040 -0.623591
O9    O     O_R   0.624300 0.114130 0.390760 -0.626040
O10   O     O_R   0.624300 0.885870 0.390760 -0.620420
O11   O     O_R   0.375700 0.114130 0.609240 -0.620421
O12   O     O_R   0.875700 0.385870 0.609240 -0.620423
O13   O     O_R   0.124300 0.614130 0.390760 -0.620421
O14   O     O_R   0.124300 0.385870 0.390760 -0.626039
O15   O     O_R   0.875700 0.614130 0.609240 -0.626039
O16   O     O_R   0.402280 0.885870 0.324040 -0.623593
Zn1   Zn    Zn3+2 0.482250 1.000000 0.690430 0.912621
Zn2   Zn    Zn3+2 0.517750 0.000000 0.309570 0.912621
Zn3   Zn    Zn3+2 0.982250 0.500000 0.690430 0.912620
Zn4   Zn    Zn3+2 0.017750 0.500000 0.309570 0.912621

loop_
_geom_bond_atom_site_label_1
_geom_bond_atom_site_label_2
_ccdc_geom_bond_type
N3    N4    D    
C8    C13   S    
C2    C18   S    
C13   H8    S    
N1    Zn2   S    
C10   H28   S    
C14   H9    S    
N1    N2    D    
O12   Zn3   S    
C7    C11   S    
C8    C20   S    
H1    N1    S    
C14   C24   S    
C6    C22   S    
O13   Zn4   S    
O1    Zn1   S    
C20   O5    A    
C15   H13   S    
C3    C12   S    
C22   O7    A    
H22   N3    S    
C19   O11   A    
O11   Zn1   S    
O3    Zn1   S    
C12   O2    A    
C10   H2    S    
N4    Zn3   S    
C4    C7    D    
C10   H27   S    
C20   O12   A    
O5    Zn4   S    
C1    O16   A    
C23   O15   A    
C13   H6    S    
C9    H25   S    
O16   Zn2   S    
C3    C8    D    
C14   H11   S    
C7    C21   S    
O9    Zn2   S    
C21   O13   A    
C17   H19   S    
C15   H14   S    
C5    C9    S    
C1    O1    A    
N2    Zn1   S    
C5    C23   S    
C11   H3    S    
C6    C24   D    
O8    Zn4   S    
C2    C15   S    
C15   H15   S    
C21   O6    A    
C16   H16   S    
N3    Zn4   S    
C23   O8    A    
O14   Zn4   S    
O6    Zn3   S    
C2    C5    D    
C4    C17   S    
C16   H18   S    
C13   H7    S    
C9    H26   S    
C17   H21   S    
C14   H10   S    
C19   O4    A    
C18   O10   A    
C12   O9    A    
C1    C4    S    
C19   C24   S    
C17   H20   S    
O15   Zn3   S    
O7    Zn3   S    
C11   H4    S    
O4    Zn2   S    
H12   N2    S    
C6    C10   S    
C18   O3    A    
C11   H5    S    
C9    H24   S    
C16   H17   S    
C22   O14   A    
C3    C16   S    
O2    Zn1   S    
H23   N4    S    
O10   Zn2   S    
