data_mof_unit_19332.cif
_audit_creation_date              2012-12-11T19:09:30-0500
_audit_creation_method            fapswitch 2.2
_symmetry_space_group_name_H-M    P1
_symmetry_Int_Tables_number       1
_space_group_crystal_system       triclinic
_cell_length_a                    8.212066
_cell_length_b                    15.013011
_cell_length_c                    27.025149
_cell_angle_alpha                 98.251585
_cell_angle_beta                  93.014469
_cell_angle_gamma                 81.253494
_cell_volume                      3257.42043869

loop_
_atom_site_label
_atom_site_type_symbol
_atom_type_description
_atom_site_fract_x
_atom_site_fract_y
_atom_site_fract_z
_atom_type_partial_charge
Ba1   Ba    Ba6+2 0.860050 0.456430 0.522540 1.642599
Ba2   Ba    Ba6+2 0.329780 0.543490 0.477450 1.637913
C1    C     C_3   0.755291 0.119067 0.647571 -0.369794
C2    C     C_R   0.903261 0.590785 0.180115 0.574034
C3    C     C_2   0.751325 0.561928 0.273917 -0.084870
C4    C     C_3   0.157869 0.262001 0.654909 0.337370
C5    C     C_3   0.730781 0.590253 0.329251 -0.047058
C6    C     C_1   0.982049 0.484532 0.342781 0.032387
C7    C     C_2   0.022646 0.480774 0.295123 -0.102719
C8    C     C_2   0.899313 0.518842 0.257099 0.194440
C9    C     C_R   0.017167 0.506179 0.102508 -0.079639
C10   C     C_R   0.053535 0.428419 0.127058 -0.035856
C11   C     C_R   0.128906 0.347275 0.100171 -0.060491
C12   C     C_3   0.702920 0.212019 0.630855 0.361918
C13   C     C_R   0.941226 0.587675 0.129422 -0.024479
C14   C     C_2   0.842061 0.530371 0.360791 -0.288357
C15   C     C_2   0.352934 0.475918 0.640295 -0.279128
C16   C     C_3   0.144543 0.236295 0.706802 -0.312144
C17   C     C_R   0.172330 0.416059 0.972962 0.020089
C18   C     C_R   0.056217 0.578125 0.975478 0.020484
C19   C     C_R   0.133470 0.495295 0.948784 0.049521
C20   C     C_R   0.249796 0.335602 0.944588 -0.101483
C21   C     C_R   0.287147 0.332985 0.894731 -0.060178
C22   C     C_R   0.249487 0.410322 0.870465 -0.024363
C23   C     C_3   0.495703 0.672132 0.630733 0.293541
C24   C     C_R   0.172539 0.491638 0.897305 -0.079646
C25   C     C_R   0.135274 0.569277 0.872695 -0.035766
C26   C     C_R   0.175735 0.564699 0.821856 0.597105
C27   C     C_R   0.287516 0.407276 0.819768 0.573614
C28   C     C_3   0.218163 0.265144 0.413568 0.313254
C29   C     C_2   0.438017 0.436646 0.725681 -0.086511
C30   C     C_3   0.458965 0.410963 0.670179 -0.047491
C31   C     C_1   0.208949 0.517201 0.657503 0.030200
C32   C     C_2   0.166719 0.518228 0.704794 -0.103400
C33   C     C_2   0.289846 0.479265 0.742669 0.193257
C34   C     C_3   0.493011 0.693659 0.687426 -0.356512
C35   C     C_R   0.133085 0.419600 0.024299 0.020439
C36   C     C_R   0.056215 0.502494 0.051025 0.049529
C37   C     C_R   0.017759 0.581789 0.026882 0.020095
C38   C     C_R   0.167837 0.342804 0.050196 -0.098964
C39   C     C_R   0.904603 0.665158 0.105250 -0.060115
C40   C     C_3   0.242406 0.162297 0.399192 -0.381161
C41   C     C_R   0.020184 0.654733 0.949474 -0.099025
C42   C     C_R   0.058930 0.650258 0.899493 -0.060585
C43   C     C_R   0.941673 0.662474 0.055375 -0.101472
C44   C     C_R   0.353774 0.176131 0.535198 -0.009244
C45   C     C_3   0.032601 0.738803 0.345556 0.334874
C46   C     C_R   0.577399 0.209642 0.489586 0.064812
C47   C     C_R   0.757340 0.770636 0.485727 -0.292067
C48   C     C_R   0.846868 0.829765 0.467740 0.014749
C49   C     C_R   0.788917 0.923038 0.473420 -0.146324
C50   C     C_R   0.640080 0.958757 0.498448 0.013198
C51   C     C_R   0.556981 0.897534 0.519864 -0.016219
C52   C     C_3   0.978282 0.736005 0.586926 0.312679
C53   C     C_R   0.572815 0.053130 0.504052 0.005508
C54   C     C_R   0.424130 0.083647 0.530538 -0.020235
C55   C     C_R   0.348439 0.021415 0.551639 -0.102815
C56   C     C_3   0.044355 0.763838 0.293446 -0.310698
C57   C     C_R   0.414619 0.930834 0.547079 -0.053978
C58   C     C_R   0.644938 0.117915 0.482838 -0.136876
C59   C     C_R   0.435931 0.238763 0.516973 -0.297768
C60   C     C_R   0.618378 0.803888 0.513722 0.022183
C61   C     C_3   0.959197 0.838662 0.601969 -0.387237
C62   C     C_3   0.693197 0.342286 0.371711 0.299935
C63   C     C_3   0.692331 0.320247 0.314996 -0.358508
C64   C     C_3   0.488542 0.788021 0.369037 0.356220
C65   C     C_3   0.433837 0.881156 0.352800 -0.365639
C66   C     C_R   0.013035 0.433064 0.177912 0.597107
H1    H     H_    0.748021 0.209636 0.592554 0.076894
H2    H     H_    0.815704 0.358870 0.385189 0.010397
H3    H     H_    0.597591 0.401895 0.381937 0.075593
H4    H     H_    0.891144 0.100350 0.646502 0.146629
H5    H     H_    0.791819 0.263293 0.303470 0.134853
H6    H     H_    0.712557 0.380566 0.298102 0.071409
H7    H     H_    0.571472 0.300622 0.300905 0.133007
H8    H     H_    0.565888 0.224930 0.629864 -0.065204
H9    H     H_    0.697766 0.066877 0.622101 0.071443
H10   H     H_    0.372499 0.656735 0.616648 0.018510
H11   H     H_    0.590001 0.611605 0.620937 0.069727
H12   H     H_    0.328946 0.142217 0.367952 0.126509
H13   H     H_    0.396346 0.752375 0.698527 0.134555
H14   H     H_    0.465987 0.633919 0.703708 0.074169
H15   H     H_    0.614834 0.710420 0.702465 0.133120
H16   H     H_    0.714888 0.119800 0.686219 0.123437
H17   H     H_    0.133630 0.298553 0.734574 0.121205
H18   H     H_    0.122648 0.676646 0.349120 0.095380
H19   H     H_    0.905978 0.724751 0.349912 -0.050180
H20   H     H_    0.154325 0.797514 0.291040 0.145391
H21   H     H_    0.056641 0.701155 0.265964 0.121462
H22   H     H_    0.932454 0.810625 0.284005 0.122380
H23   H     H_    0.293746 0.128051 0.431453 0.062899
H24   H     H_    0.625525 0.775262 0.368980 -0.061967
H25   H     H_    0.446998 0.789989 0.407717 0.077580
H26   H     H_    0.492340 0.933270 0.378029 0.069566
H27   H     H_    0.298085 0.899507 0.354711 0.151311
H28   H     H_    0.071566 0.325744 0.651815 0.092288
H29   H     H_    0.471411 0.880971 0.313903 0.122466
H30   H     H_    0.146104 0.451327 0.283622 0.129063
H31   H     H_    0.158590 0.286123 0.117791 0.122231
H32   H     H_    0.533916 0.410152 0.751128 0.119456
H33   H     H_    0.346482 0.269226 0.875113 0.122427
H34   H     H_    0.122280 0.139266 0.387349 0.130345
H35   H     H_    0.284206 0.272602 0.959624 0.068976
H36   H     H_    0.225260 0.277259 0.033043 0.068828
H37   H     H_    0.655628 0.587840 0.248236 0.118560
H38   H     H_    0.846318 0.729093 0.124958 0.122549
H39   H     H_    0.961500 0.720081 0.966502 0.068806
H40   H     H_    0.286160 0.273532 0.650534 -0.053078
H41   H     H_    0.028274 0.711274 0.881794 0.122177
H42   H     H_    0.043004 0.547198 0.716245 0.130611
H43   H     H_    0.908544 0.725676 0.040464 0.069001
H44   H     H_    0.820404 0.540205 0.400596 0.082598
H45   H     H_    0.857012 0.715739 0.575608 0.000820
H46   H     H_    0.386074 0.477646 0.602132 0.077430
H47   H     H_    0.382883 0.309825 0.520825 0.074291
H48   H     H_    0.236905 0.041464 0.572321 0.110630
H49   H     H_    0.751726 0.099391 0.460055 0.085250
H50   H     H_    0.803338 0.698549 0.481217 0.066035
H51   H     H_    0.864567 0.965440 0.459022 0.083741
H52   H     H_    0.033353 0.203547 0.708970 0.146903
H53   H     H_    0.349610 0.887450 0.564895 0.100303
H54   H     H_    0.255155 0.188449 0.716090 0.120222
H55   H     H_    0.338811 0.287328 0.423905 0.002885
H56   H     H_    0.062351 0.717232 0.555129 0.071668
H57   H     H_    0.136057 0.283025 0.445927 0.069957
H58   H     H_    0.869162 0.859739 0.632227 0.130904
H59   H     H_    0.914808 0.874368 0.569655 0.063587
H60   H     H_    0.079975 0.859186 0.615447 0.120646
N1    N     N_R   0.939272 0.513953 0.204308 -0.421922
N2    N     N_R   0.250244 0.483956 0.795485 -0.421770
O1    O     O_2   0.906490 0.548660 0.619040 -0.459499
O2    O     O_2   0.186327 0.825030 0.472427 -0.482378
O3    O     O_3   0.068438 0.811262 0.381197 -0.603742
O4    O     O_3   0.138490 0.548590 0.558860 -0.495283
O5    O     O_3   0.572560 0.389970 0.472910 -0.491580
O6    O     O_2   0.345680 0.723560 0.528460 -0.466486
O7    O     O_3   0.533751 0.747608 0.610943 -0.644914
O8    O     O_2   0.404128 0.545395 0.323663 -0.498079
O9    O     O_3   0.418846 0.721134 0.336224 -0.596524
O10   O     O_2   0.041306 0.364553 0.198326 -0.597154
O11   O     O_2   0.353244 0.335553 0.797204 -0.621029
O12   O     O_3   0.660926 0.266200 0.391898 -0.633523
O13   O     O_2   0.838701 0.662707 0.202771 -0.620920
O14   O     O_2   0.146826 0.633188 0.801435 -0.597496
O15   O     O_3   0.686290 0.382320 0.585720 -0.481128
O16   O     O_2   0.785869 0.454894 0.676188 -0.496514
O17   O     O_3   0.040724 0.694193 0.628246 -0.625275
O18   O     O_3   0.770597 0.279081 0.664094 -0.595942
O19   O     O_2   0.844020 0.276410 0.471510 -0.461878
O20   O     O_3   0.101490 0.335510 0.560360 -0.492076
O21   O     O_2   0.014786 0.174082 0.525545 -0.484847
O22   O     O_3   0.116269 0.191401 0.618929 -0.611662
O23   O     O_2   0.283210 0.451320 0.380930 -0.462230
O24   O     O_3   0.051220 0.451340 0.441130 -0.497600
O25   O     O_3   0.503420 0.617610 0.414270 -0.475730
O26   O     O_3   0.149368 0.305580 0.372347 -0.624008
O27   O     O_3   0.617160 0.609950 0.527080 -0.477594
O28   O     O_3   0.088220 0.664410 0.439630 -0.494005
P1    P     P_3+3 0.071960 0.575810 0.612130 0.991689
P2    P     P_3+3 0.664360 0.290070 0.457280 0.983549
P3    P     P_3+3 0.146330 0.218324 0.559537 0.933986
P4    P     P_3+3 0.117760 0.424110 0.387870 0.991045
P5    P     P_3+3 0.047789 0.782853 0.440836 0.946081
P6    P     P_3+3 0.676498 0.385514 0.650152 0.948044
P7    P     P_3+3 0.531321 0.722869 0.545634 0.937774
P8    P     P_3+3 0.513607 0.614619 0.349843 0.943735

loop_
_geom_bond_atom_site_label_1
_geom_bond_atom_site_label_2
_ccdc_geom_bond_type
C57   H53   S    
C20   H35   S    
C53   C54   A    
C40   H12   S    
C7    H30   S    
C12   O18   S    
C9    C36   A    
Ba1   O15   S    
C19   C24   A    
O17   P1    S    
Ba2   P4    S    
C2    O13   D    
O7    P7    S    
C51   C57   A    
C3    H37   S    
C46   P2    S    
C24   C25   A    
Ba2   O4    S    
C17   C19   A    
C22   C24   A    
Ba1   Ba2   S    
C35   C38   A    
C36   C37   A    
C55   C57   A    
C52   C61   S    
O25   P8    S    
O5    P2    S    
C52   H45   S    
O3    P5    S    
C63   H5    S    
C54   C55   A    
C32   C33   S    
C62   H3    S    
C22   C27   A    
C11   C38   A    
C17   C35   A    
C9    C13   A    
C25   C42   A    
C64   O9    S    
C29   C30   S    
C34   H14   S    
C6    C7    D    
O21   P3    D    
C44   P3    S    
C59   H47   S    
C65   H26   S    
C49   H51   S    
C21   C22   A    
Ba1   O19   S    
C26   O14   D    
C62   H2    S    
C7    C8    S    
O22   P3    S    
C50   C53   A    
C37   C43   A    
C4    O22   S    
C42   H41   S    
C28   O26   S    
C64   C65   S    
C28   H57   S    
O26   P4    S    
Ba2   O24   S    
C53   C58   A    
C45   O3    S    
C65   H27   S    
C66   N1    Am   
C15   C31   D    
C40   H34   S    
O19   P2    D    
C15   H46   S    
C46   C58   A    
C55   H48   S    
C4    C16   S    
C16   H17   S    
Ba1   O20   S    
C39   H38   S    
C44   C59   A    
C49   C50   A    
O18   P6    S    
C45   H18   S    
Ba1   P1    S    
C17   C20   A    
C13   C39   A    
O27   P7    S    
C3    C5    S    
C18   C37   A    
C64   H24   S    
O16   P6    D    
Ba2   O6    S    
C63   H6    S    
C23   H10   S    
C12   H8    S    
C11   H31   S    
O9    P8    S    
C23   O7    S    
C41   C42   A    
C35   C36   A    
C38   H36   S    
C10   C66   A    
C51   C60   A    
C47   H50   S    
C34   H13   S    
Ba2   O28   S    
C27   O11   D    
C48   C49   A    
C58   H49   S    
Ba2   O25   S    
C41   H39   S    
C29   H32   S    
C10   C11   A    
O1    P1    D    
C28   H55   S    
C56   H22   S    
C33   N2    S    
C1    C12   S    
O28   P5    S    
C16   H54   S    
C64   H25   S    
C5    C14   S    
C5    P8    S    
Ba2   O23   S    
C4    H28   S    
C32   H42   S    
C12   H1    S    
C29   C33   D    
C66   O10   D    
Ba1   O4    S    
C1    H9    S    
C16   H52   S    
C25   C26   A    
C18   C41   A    
C50   C51   A    
C14   H44   S    
O20   P3    S    
C52   H56   S    
C39   C43   A    
C47   C60   A    
C48   P5    S    
C23   H11   S    
O24   P4    S    
Ba1   P2    S    
C61   H60   S    
O12   P2    S    
Ba1   O1    S    
C56   H20   S    
C9    C10   A    
C43   H43   S    
C2    N1    Am   
O15   P6    S    
Ba2   O5    S    
C63   H7    S    
O23   P4    D    
O8    P8    D    
C62   C63   S    
C2    C13   A    
Ba1   O27   S    
C1    H4    S    
C8    N1    S    
C3    C8    D    
C6    P4    S    
C45   C56   S    
C46   C59   A    
C21   H33   S    
C62   O12   S    
Ba2   O27   S    
C30   P6    S    
C31   C32   D    
O4    P1    S    
C26   N2    Am   
Ba1   O24   S    
C56   H21   S    
O2    P5    D    
C61   H58   S    
C65   H29   S    
C23   C34   S    
C27   N2    Am   
C31   P1    S    
C60   P7    S    
C18   C19   A    
C6    C14   D    
C47   C48   A    
O6    P7    D    
C44   C54   A    
C1    H16   S    
C15   C30   S    
C4    H40   S    
C20   C21   A    
C28   C40   S    
C34   H15   S    
Ba1   O5    S    
C61   H59   S    
C40   H23   S    
C45   H19   S    
C52   O17   S    
