data_mof_unit_15486.cif
_audit_creation_date              2012-12-10T18:20:37-0500
_audit_creation_method            fapswitch 2.2
_symmetry_space_group_name_H-M    P1
_symmetry_Int_Tables_number       1
_space_group_crystal_system       triclinic
_cell_length_a                    14.126343
_cell_length_b                    13.57566
_cell_length_c                    14.87616
_cell_angle_alpha                 87.211814
_cell_angle_beta                  88.677708
_cell_angle_gamma                 83.84308
_cell_volume                      2832.5954816

loop_
_atom_site_label
_atom_site_type_symbol
_atom_type_description
_atom_site_fract_x
_atom_site_fract_y
_atom_site_fract_z
_atom_type_partial_charge
C1    C     C_R   0.500721 0.502972 0.327218 0.976631
C2    C     C_R   0.570298 0.323845 0.962718 -0.081097
C3    C     C_R   0.802935 0.436922 0.558182 0.731099
C4    C     C_R   0.197063 0.563094 0.441832 0.731080
C5    C     C_R   0.793810 0.563569 0.441200 -0.030066
C6    C     C_R   0.206194 0.436414 0.558787 -0.030054
C7    C     C_R   0.894498 0.564668 0.440161 -0.064162
C8    C     C_R   0.105503 0.435335 0.559843 -0.064168
C9    C     C_R   0.949447 0.500012 0.499977 -0.038328
C10   C     C_R   0.050553 0.500002 0.500037 -0.038328
C11   C     C_R   0.903487 0.435399 0.559678 -0.234372
C12   C     C_R   0.499279 0.497026 0.672783 0.976619
C13   C     C_R   0.096511 0.564617 0.440337 -0.234345
C14   C     C_R   0.941643 0.628786 0.380882 -0.296554
C15   C     C_R   0.058358 0.371220 0.619126 -0.296560
C16   C     C_R   0.516535 0.314443 0.500266 0.915986
C17   C     C_R   0.483464 0.685558 0.499724 0.915923
C18   C     C_R   0.040675 0.628885 0.380857 0.682826
C19   C     C_R   0.959323 0.371131 0.619158 0.682863
C20   C     C_1   0.471128 0.789153 0.499232 -0.131025
C21   C     C_1   0.528869 0.210852 0.500662 -0.131067
C22   C     C_2   0.459030 0.980790 0.497996 -0.191267
C23   C     C_R   0.499385 0.498414 0.953181 -0.012476
C24   C     C_2   0.540968 0.019224 0.501705 -0.191266
C25   C     C_1   0.537836 0.123077 0.501163 0.022296
C26   C     C_1   0.462161 0.876932 0.498632 0.022290
C27   C     C_R   0.534283 0.410370 0.816151 0.571957
C28   C     C_R   0.465714 0.589626 0.183851 0.571926
C29   C     C_R   0.497064 0.494997 0.768003 -0.172383
C30   C     C_R   0.502935 0.505000 0.231998 -0.172317
C31   C     C_R   0.458795 0.579224 0.808967 -0.373553
C32   C     C_R   0.541193 0.420771 0.191033 -0.373556
C33   C     C_R   0.461539 0.583896 0.901782 0.091579
C34   C     C_R   0.500599 0.501583 0.046819 -0.012493
C35   C     C_R   0.538444 0.416100 0.098218 0.091564
C36   C     C_R   0.389554 0.762225 0.888346 0.127616
C37   C     C_R   0.451687 0.817948 0.837316 -0.185592
C38   C     C_R   0.415519 0.900923 0.784465 -0.159050
C39   C     C_R   0.317498 0.929445 0.783246 -0.102982
C40   C     C_R   0.255405 0.874663 0.834311 -0.121437
C41   C     C_R   0.291155 0.791066 0.886485 -0.151689
C42   C     C_R   0.610357 0.237750 0.111659 0.127628
C43   C     C_R   0.708751 0.208893 0.113567 -0.151768
C44   C     C_R   0.744459 0.125284 0.165747 -0.121474
C45   C     C_R   0.535280 0.409708 0.910400 -0.078534
C46   C     C_R   0.682327 0.070506 0.216768 -0.102926
C47   C     C_R   0.584311 0.099043 0.215499 -0.158939
C48   C     C_R   0.548187 0.182035 0.162645 -0.185513
C49   C     C_R   0.398814 0.772312 0.078074 0.207141
C50   C     C_R   0.458865 0.848413 0.072105 -0.143072
C51   C     C_R   0.428007 0.941295 0.104931 -0.162751
C52   C     C_R   0.337475 0.958551 0.144604 -0.125599
C53   C     C_R   0.277174 0.883147 0.150507 -0.084207
C54   C     C_R   0.307300 0.790429 0.116641 -0.021327
C55   C     C_R   0.600997 0.227631 0.921948 0.207276
C56   C     C_R   0.464696 0.590284 0.089602 -0.078558
C57   C     C_R   0.692523 0.209332 0.883445 -0.021258
C58   C     C_R   0.722524 0.116557 0.849633 -0.084416
C59   C     C_R   0.662084 0.041278 0.855527 -0.125520
C60   C     C_R   0.571539 0.058715 0.895135 -0.162887
C61   C     C_R   0.540806 0.151654 0.927903 -0.143220
C62   C     C_R   0.736833 0.632177 0.378029 0.205433
C63   C     C_R   0.709044 0.730318 0.401194 -0.134861
C64   C     C_R   0.662976 0.798254 0.338661 -0.165296
C65   C     C_R   0.647562 0.769832 0.251655 -0.054685
C66   C     C_R   0.679015 0.673682 0.226772 -0.139988
C67   C     C_R   0.427547 0.672457 0.943211 -0.051247
C68   C     C_R   0.724509 0.605316 0.289368 -0.136398
C69   C     C_R   0.263180 0.367729 0.621894 0.205437
C70   C     C_R   0.275580 0.394505 0.710567 -0.136441
C71   C     C_R   0.321066 0.326059 0.773104 -0.139801
C72   C     C_R   0.352430 0.229914 0.748150 -0.054843
C73   C     C_R   0.336943 0.201579 0.661131 -0.165416
C74   C     C_R   0.290890 0.269596 0.598655 -0.134818
C75   C     C_R   0.572409 0.327531 0.056790 -0.051256
C76   C     C_R   0.429642 0.676137 0.037286 -0.081112
F1    F     F_    0.567023 0.329823 0.769252 -0.653311
F2    F     F_    0.433011 0.670183 0.230753 -0.653360
F3    F     F_    0.757304 0.375374 0.614603 -0.574039
F4    F     F_    0.242693 0.624651 0.385418 -0.574093
F5    F     F_    0.081219 0.692347 0.322102 -0.628095
F6    F     F_    0.918779 0.307672 0.677915 -0.628000
H1    H     H_    0.609062 0.973617 0.505327 0.158106
H2    H     H_    0.179503 0.896762 0.833183 0.134006
H3    H     H_    0.242374 0.748687 0.925253 0.124018
H4    H     H_    0.757560 0.251270 0.074832 0.124047
H5    H     H_    0.820358 0.103173 0.166915 0.134007
H6    H     H_    0.710218 0.006080 0.257349 0.126492
H7    H     H_    0.536326 0.056620 0.255203 0.144535
H8    H     H_    0.472091 0.203353 0.161778 0.131919
H9    H     H_    0.528871 0.836098 0.040814 0.114532
H10   H     H_    0.474001 0.000045 0.098787 0.144957
H11   H     H_    0.313827 0.030536 0.170164 0.127555
H12   H     H_    0.390937 0.026396 0.494384 0.158111
H13   H     H_    0.206813 0.896802 0.180645 0.153430
H14   H     H_    0.259647 0.732901 0.120225 0.147273
H15   H     H_    0.740287 0.266757 0.879879 0.147259
H16   H     H_    0.792895 0.102757 0.819549 0.153267
H17   H     H_    0.685635 0.969248 0.830012 0.127526
H18   H     H_    0.525437 0.000062 0.901277 0.145044
H19   H     H_    0.470789 0.164107 0.959148 0.114521
H20   H     H_    0.722562 0.753848 0.467819 0.130856
H21   H     H_    0.639899 0.873146 0.357446 0.132543
H22   H     H_    0.612458 0.822747 0.203263 0.139421
H23   H     H_    0.429078 0.641578 0.766612 0.178556
H24   H     H_    0.668490 0.652232 0.158881 0.131800
H25   H     H_    0.750007 0.531502 0.268939 0.136332
H26   H     H_    0.250141 0.468311 0.731056 0.136360
H27   H     H_    0.331647 0.347441 0.841006 0.131756
H28   H     H_    0.387518 0.176934 0.796497 0.139432
H29   H     H_    0.359949 0.126690 0.642294 0.132558
H30   H     H_    0.277318 0.246133 0.532020 0.130832
H31   H     H_    0.570905 0.358412 0.233386 0.178544
H32   H     H_    0.902449 0.679866 0.333608 0.177149
H33   H     H_    0.097551 0.320137 0.666397 0.177160
H34   H     H_    0.527786 0.796646 0.838147 0.131950
H35   H     H_    0.463474 0.943349 0.744725 0.144529
H36   H     H_    0.289576 0.993862 0.742669 0.126535
N1    N     N_R   0.750030 0.500040 0.500070 -0.184886
N2    N     N_R   0.249970 0.499960 0.499930 -0.184880
O1    O     O_R   0.580280 0.500020 0.367860 -0.643233
O2    O     O_R   0.419720 0.499980 0.632140 -0.643272
O3    O     O_R   0.419730 0.500030 0.367840 -0.558147
O4    O     O_R   0.580270 0.499970 0.632160 -0.558094
O5    O     O_R   0.591830 0.359650 0.500030 -0.562970
O6    O     O_R   0.408170 0.640350 0.499970 -0.562941
O7    O     O_R   0.431280 0.359660 0.500010 -0.637168
O8    O     O_R   0.568720 0.640340 0.499990 -0.637189
Zn1   Zn    Zn3+2 0.607200 0.499990 0.500020 1.019959
Zn2   Zn    Zn3+2 0.392800 0.500010 0.499980 1.019945

loop_
_geom_bond_atom_site_label_1
_geom_bond_atom_site_label_2
_ccdc_geom_bond_type
C64   H21   S    
C66   C68   A    
C34   C56   A    
C16   C21   S    
C56   C76   A    
C12   C29   S    
C53   H13   S    
C59   H17   S    
C73   C74   A    
C40   H2    S    
C58   H16   S    
C3    F3    S    
O8    Zn1   S    
C18   F5    S    
C28   C56   A    
C36   C67   S    
C37   H34   S    
C53   C54   A    
C15   C19   A    
C35   C75   A    
C42   C75   S    
C37   C38   A    
C13   C18   A    
C5    N1    A    
C23   C45   A    
C22   C24   D    
C36   C37   A    
C24   H1    S    
C4    F4    S    
C2    C55   S    
C74   H30   S    
C38   C39   A    
C17   O6    A    
C27   C29   A    
O6    Zn2   S    
C49   C54   A    
C55   C61   A    
C17   C20   S    
C34   C35   A    
C22   H12   S    
C4    C13   A    
C49   C50   A    
C14   C18   A    
C38   H35   S    
C7    C14   A    
C23   C33   A    
C5    C62   S    
C31   C33   A    
C70   C71   A    
C68   H25   S    
C32   H31   S    
C44   H5    S    
C28   F2    S    
C9    C10   A    
C6    C69   S    
C54   H14   S    
C27   C45   A    
C57   H15   S    
C59   C60   A    
C48   H8    S    
C31   H23   S    
C36   C41   A    
C66   H24   S    
C63   H20   S    
C6    N2    A    
C44   C46   A    
C73   H29   S    
C46   H6    S    
C2    C45   A    
C72   H28   S    
C51   C52   A    
C32   C35   A    
C69   C74   A    
C24   C25   S    
C39   C40   A    
C5    C7    A    
C6    C8    A    
C27   F1    S    
C58   C59   A    
C14   H32   S    
C60   C61   A    
C61   H19   S    
C43   C44   A    
C1    O3    A    
C62   C63   A    
C51   H10   S    
C47   C48   A    
C12   O4    A    
C23   C34   A    
C11   C19   A    
C50   C51   A    
C49   C76   S    
C52   H11   S    
C42   C48   A    
C9    C11   A    
C3    N1    A    
C40   C41   A    
C47   H7    S    
C8    C15   A    
C55   C57   A    
O3    Zn2   S    
N2    Zn2   S    
C42   C43   A    
C19   F6    S    
C52   C53   A    
C33   C67   A    
C16   O5    A    
C7    C9    A    
C21   C25   T    
C46   C47   A    
C43   H4    S    
O1    Zn1   S    
C72   C73   A    
C60   H18   S    
C10   C13   A    
C17   O8    A    
C39   H36   S    
C41   H3    S    
C62   C68   A    
C64   C65   A    
C28   C30   A    
O7    Zn2   S    
C71   C72   A    
C29   C31   A    
C70   H26   S    
C30   C32   A    
C57   C58   A    
C20   C26   T    
C71   H27   S    
C1    C30   S    
N1    Zn1   S    
O4    Zn1   S    
C15   H33   S    
C69   C70   A    
C16   O7    A    
C1    O1    A    
C3    C11   A    
C63   C64   A    
O5    Zn1   S    
C50   H9    S    
C12   O2    A    
C8    C10   A    
C65   C66   A    
C22   C26   S    
C4    N2    A    
C67   C76   A    
C65   H22   S    
O2    Zn2   S    
C2    C75   A    
