data_mof_unit_65837.cif
_audit_creation_date              2012-12-10T20:33:58-0500
_audit_creation_method            fapswitch 2.2
_symmetry_space_group_name_H-M    P1
_symmetry_Int_Tables_number       1
_space_group_crystal_system       triclinic
_cell_length_a                    21.711313
_cell_length_b                    21.723798
_cell_length_c                    21.211615
_cell_angle_alpha                 121.301232
_cell_angle_beta                  120.894448
_cell_angle_gamma                 89.59706
_cell_volume                      6859.79438278

loop_
_atom_site_label
_atom_site_type_symbol
_atom_type_description
_atom_site_fract_x
_atom_site_fract_y
_atom_site_fract_z
_atom_type_partial_charge
Br1   Br    Br    0.606923 0.855748 0.911920 -0.179062
Br2   Br    Br    0.842571 0.996418 0.707210 -0.203920
Br3   Br    Br    0.857403 0.116138 0.902472 -0.312009
Br4   Br    Br    0.405403 0.166148 0.104194 -0.149520
Br5   Br    Br    0.688186 0.307270 0.536399 -0.273789
Br6   Br    Br    0.587624 0.318841 0.885720 -0.309350
Br7   Br    Br    0.245138 0.334480 0.339026 -0.292716
Br8   Br    Br    0.390031 0.575404 0.753766 -0.275246
Br9   Br    Br    0.995329 0.370289 0.707996 -0.301296
Br10  Br    Br    0.744193 0.484166 0.330051 -0.375304
Br11  Br    Br    0.043701 0.147035 0.311953 -0.160523
Br12  Br    Br    0.499096 0.598398 0.184052 -0.241416
Br13  Br    Br    0.738806 0.681693 0.534900 -0.325478
Br14  Br    Br    0.110908 0.430270 0.149023 -0.260136
Br15  Br    Br    0.311008 0.731070 0.483972 -0.413759
Br16  Br    Br    0.194539 0.313130 0.479772 -0.226357
C1    C     C_R   0.085899 0.585861 0.671410 0.852631
C2    C     C_R   0.490683 0.713308 0.817510 0.273905
C3    C     C_R   0.516997 0.764336 0.807393 0.181228
C4    C     C_R   0.118778 0.498676 0.498054 0.897611
C5    C     C_R   0.477554 0.748081 0.720312 0.378434
C6    C     C_R   0.412675 0.681641 0.644234 -0.275325
C7    C     C_R   0.385204 0.631264 0.653661 -0.075443
C8    C     C_1   0.137318 0.636990 0.773027 -0.140111
C9    C     C_1   0.179918 0.679376 0.857683 0.031094
C10   C     C_1   0.229805 0.729245 0.957620 0.051265
C11   C     C_1   0.271951 0.771470 0.042281 0.070723
C12   C     C_R   0.986990 0.217584 0.219047 0.330900
C13   C     C_1   0.321671 0.821331 0.142238 0.070328
C14   C     C_1   0.363785 0.863573 0.226906 -0.110379
C15   C     C_R   0.973304 0.458325 0.716136 0.313721
C16   C     C_R   0.913958 0.414148 0.328578 0.899566
C17   C     C_R   0.906043 0.448693 0.641878 -0.057070
C18   C     C_R   0.890058 0.513274 0.647280 0.082938
C19   C     C_R   0.941345 0.587442 0.727920 -0.119175
C20   C     C_R   0.007938 0.596870 0.802469 -0.175609
C21   C     C_R   0.024189 0.532438 0.796455 -0.132165
C22   C     C_R   0.753690 0.503111 0.568962 0.382431
C23   C     C_R   0.246714 0.428858 0.430521 0.271379
C24   C     C_R   0.687969 0.502323 0.500447 -0.220478
C25   C     C_R   0.686848 0.502563 0.433379 0.034403
C26   C     C_R   0.748933 0.496054 0.429900 0.282163
C27   C     C_R   0.814551 0.499328 0.499608 -0.185530
C28   C     C_R   0.880322 0.500032 0.500073 0.928524
C29   C     C_R   0.818050 0.503684 0.569834 -0.083559
C30   C     C_R   0.567435 0.468416 0.285942 0.331831
C31   C     C_R   0.527546 0.489229 0.227134 0.380121
C32   C     C_R   0.549308 0.566757 0.261435 0.246015
C33   C     C_R   0.608982 0.622988 0.354000 -0.231401
C34   C     C_R   0.312543 0.496666 0.500679 -0.178160
C35   C     C_R   0.650030 0.602661 0.412260 0.244265
C36   C     C_R   0.630320 0.524869 0.378413 -0.125141
C37   C     C_1   0.862440 0.363119 0.226935 -0.085496
C38   C     C_1   0.819888 0.320736 0.142268 0.081176
C39   C     C_1   0.770196 0.270683 0.042317 0.108951
C40   C     C_R   0.047636 0.228068 0.299140 0.221934
C41   C     C_1   0.728190 0.228400 0.957658 0.116800
C42   C     C_1   0.678480 0.178676 0.857708 0.085613
C43   C     C_1   0.636266 0.136553 0.773054 -0.119291
C44   C     C_R   0.498549 0.621778 0.500246 0.927714
C45   C     C_R   0.314843 0.562298 0.571772 0.073810
C46   C     C_R   0.378534 0.498149 0.500205 0.945264
C47   C     C_R   0.502286 0.378464 0.499500 1.002778
C48   C     C_R   0.621569 0.502324 0.500055 0.969285
C49   C     C_R   0.499615 0.120024 0.500049 0.957874
C50   C     C_R   0.414383 0.914301 0.328560 0.881133
C51   C     C_R   0.501023 0.881072 0.501602 0.870923
C52   C     C_R   0.111149 0.297696 0.369203 0.207783
C53   C     C_R   0.585625 0.085793 0.671436 0.849336
C54   C     C_R   0.265043 0.501230 0.223533 -0.202329
C55   C     C_R   0.336732 0.559775 0.287143 0.382090
C56   C     C_R   0.248778 0.562364 0.566375 -0.169234
C57   C     C_R   0.355127 0.626648 0.369848 -0.079179
C58   C     C_R   0.297508 0.635972 0.383601 0.174549
C59   C     C_R   0.225855 0.576680 0.319292 -0.196820
C60   C     C_R   0.209864 0.509312 0.239685 0.279739
C61   C     C_R   0.434273 0.753585 0.438171 -0.120086
C62   C     C_R   0.502358 0.816441 0.503306 -0.125150
C63   C     C_R   0.569723 0.817765 0.569706 0.017360
C64   C     C_R   0.113380 0.356603 0.358733 -0.107123
C65   C     C_R   0.568589 0.752715 0.567744 0.411480
C66   C     C_R   0.499439 0.688384 0.500931 -0.177151
C67   C     C_R   0.183420 0.496502 0.496240 -0.089964
C68   C     C_R   0.431242 0.689532 0.436920 0.076375
C69   C     C_R   0.697331 0.905586 0.640062 0.380574
C70   C     C_R   0.762806 0.973175 0.715472 0.222755
C71   C     C_R   0.769691 0.023603 0.797011 0.249866
C72   C     C_R   0.711499 0.006845 0.802630 -0.215329
C73   C     C_R   0.646332 0.940622 0.727793 -0.200123
C74   C     C_R   0.638855 0.889260 0.646451 -0.013417
C75   C     C_R   0.487068 0.209939 0.230238 0.181421
C76   C     C_R   0.051119 0.346049 0.279419 0.325800
C77   C     C_R   0.469815 0.221517 0.290208 0.319503
C78   C     C_R   0.182071 0.428372 0.429633 0.064012
C79   C     C_R   0.529499 0.251675 0.381795 -0.157547
C80   C     C_R   0.606525 0.272164 0.413721 0.166035
C81   C     C_R   0.623596 0.261956 0.354093 0.285749
C82   C     C_R   0.563936 0.228827 0.261818 0.308295
C83   C     C_R   0.508245 0.185297 0.438285 0.395358
C84   C     C_R   0.497187 0.184841 0.497668 -0.212891
C85   C     C_R   0.482570 0.245665 0.553158 0.021311
C86   C     C_R   0.483216 0.309213 0.552383 0.404656
C87   C     C_R   0.499707 0.311865 0.497788 -0.219927
C88   C     C_R   0.989221 0.276367 0.209688 -0.270682
C89   C     C_R   0.424643 0.646691 0.740649 0.221400
C90   C     C_R   0.511265 0.249846 0.439633 0.032911
C91   C     C_R   0.388779 0.215843 0.577664 0.373038
C92   C     C_R   0.372684 0.217314 0.634531 0.350399
C93   C     C_R   0.432573 0.247139 0.724966 -0.304960
C94   C     C_R   0.508778 0.275330 0.759623 0.243866
C95   C     C_R   0.525866 0.273118 0.703073 0.315750
C96   C     C_R   0.465673 0.243717 0.611872 -0.139745
Cl1   Cl    Cl    0.906752 0.131540 0.129081 -0.424627
Cl2   Cl    Cl    0.373101 0.193806 0.249203 -0.404821
Cl3   Cl    Cl    0.048613 0.419604 0.266008 -0.536080
Cl4   Cl    Cl    0.719930 0.288118 0.393926 -0.458596
Cl5   Cl    Cl    0.514546 0.103533 0.357998 -0.501265
Cl6   Cl    Cl    0.459831 0.383794 0.617180 -0.461229
Cl7   Cl    Cl    0.312746 0.179124 0.463688 -0.391942
Cl8   Cl    Cl    0.277729 0.183238 0.594707 -0.370920
Cl9   Cl    Cl    0.622235 0.308169 0.746671 -0.458532
Cl10  Cl    Cl    0.540513 0.732817 0.926488 -0.362114
Cl11  Cl    Cl    0.507552 0.810379 0.704392 -0.527536
Cl12  Cl    Cl    0.758075 0.505307 0.656164 -0.473002
Cl13  Cl    Cl    0.541701 0.371094 0.242123 -0.453011
Cl14  Cl    Cl    0.451506 0.418122 0.110187 -0.327352
Cl15  Cl    Cl    0.400261 0.549637 0.258095 -0.562793
Cl16  Cl    Cl    0.654514 0.753731 0.650293 -0.461653
Cl17  Cl    Cl    0.688016 0.842105 0.537519 -0.485546
Cl18  Cl    Cl    0.585784 0.208689 0.184985 -0.321815
H1    H     H_    0.383761 0.668403 0.577082 0.208536
H2    H     H_    0.716593 0.045508 0.865214 0.212828
H3    H     H_    0.601682 0.929166 0.733445 0.242446
H4    H     H_    0.419796 0.248976 0.768874 0.249247
H5    H     H_    0.942354 0.267895 0.147837 0.226769
H6    H     H_    0.249144 0.613074 0.619271 0.170479
H7    H     H_    0.076159 0.540149 0.854191 0.182129
H8    H     H_    0.866499 0.391246 0.580264 0.218661
H9    H     H_    0.929327 0.637725 0.733173 0.181330
H10   H     H_    0.047121 0.654167 0.864822 0.175353
H11   H     H_    0.625560 0.682471 0.379791 0.257347
H12   H     H_    0.251535 0.450038 0.160295 0.226479
H13   H     H_    0.181849 0.583843 0.329976 0.229312
H14   H     H_    0.382837 0.754873 0.388542 0.174308
O1    O     O_R   0.063140 0.511430 0.626300 -0.588471
O2    O     O_R   0.448260 0.091600 0.499970 -0.620119
O3    O     O_R   0.488590 0.936860 0.373720 -0.560634
O4    O     O_R   0.063120 0.614850 0.626270 -0.594824
O5    O     O_R   0.385150 0.936860 0.373710 -0.590108
O6    O     O_R   0.551740 0.908400 0.500030 -0.591483
O7    O     O_R   0.448290 0.908400 0.500030 -0.595847
O8    O     O_R   0.614850 0.063140 0.626290 -0.588791
O9    O     O_R   0.511410 0.063140 0.626280 -0.603368
O10   O     O_R   0.091630 0.448290 0.500020 -0.604956
O11   O     O_R   0.091620 0.551710 0.499990 -0.592324
O12   O     O_R   0.535650 0.627270 0.571300 -0.576741
O13   O     O_R   0.936880 0.385150 0.373730 -0.600178
O14   O     O_R   0.936860 0.488570 0.373700 -0.556803
O15   O     O_R   0.908380 0.448290 0.500010 -0.599422
O16   O     O_R   0.908370 0.551710 0.499980 -0.578908
O17   O     O_R   0.464370 0.556010 0.428710 -0.617603
O18   O     O_R   0.372740 0.464390 0.428700 -0.598241
O19   O     O_R   0.444020 0.535650 0.571290 -0.612930
O20   O     O_R   0.464350 0.372770 0.428700 -0.596915
O21   O     O_R   0.535630 0.444040 0.571290 -0.563640
O22   O     O_R   0.555980 0.464390 0.428710 -0.621098
O23   O     O_R   0.627260 0.535660 0.571300 -0.555564
O24   O     O_R   0.551710 0.091600 0.499970 -0.545081
Zn1   Zn    Zn3+2 0.000010 0.430940 0.500020 1.097398
Zn2   Zn    Zn3+2 0.999990 0.569060 0.499980 1.118244
Zn3   Zn    Zn3+2 0.452410 0.452440 0.404800 1.127075
Zn4   Zn    Zn3+2 0.547590 0.547610 0.595200 1.172688
Zn5   Zn    Zn3+2 0.569070 0.000000 0.500000 1.155713
Zn6   Zn    Zn3+2 0.430930 0.000000 0.500000 1.086272

loop_
_geom_bond_atom_site_label_1
_geom_bond_atom_site_label_2
_ccdc_geom_bond_type
C52   C64   A    
C71   C72   A    
C5    Cl11  S    
C85   C86   A    
C59   H13   S    
C4    O11   A    
C6    H1    S    
C95   Cl9   S    
C25   C26   A    
C92   Cl8   S    
C30   Cl13  S    
C79   C80   A    
Br12  C32   S    
Br8   C89   S    
C81   C82   A    
C12   C40   A    
C61   C62   A    
C85   C96   S    
C49   O24   A    
C10   C11   T    
C4    O10   A    
C20   C21   A    
C88   H5    S    
O5    Zn6   S    
C48   O23   A    
C49   O2    A    
C69   C70   A    
C56   H6    S    
Br10  C26   S    
C7    C89   A    
C30   C36   A    
C92   C93   A    
C18   C19   A    
C57   C58   A    
C46   O19   A    
C94   C95   A    
C22   C29   A    
C48   O22   A    
O13   Zn1   S    
Br13  C35   S    
C44   C66   S    
C63   C74   S    
O18   Zn3   S    
C31   C32   A    
C33   C35   A    
C33   H11   S    
O4    Zn2   S    
C91   C92   A    
C15   C17   A    
C54   C55   A    
Br16  C52   S    
C25   C36   S    
C86   Cl6   S    
Br4   C75   S    
C69   Cl17  S    
O21   Zn4   S    
O22   Zn3   S    
C77   C79   A    
O7    Zn6   S    
C21   H7    S    
C5    C6    A    
C51   O6    A    
Br6   C94   S    
C55   Cl15  S    
C47   O20   A    
C51   C62   S    
C91   Cl7   S    
C65   C66   A    
C16   O14   A    
O24   Zn5   S    
O1    Zn1   S    
C54   H12   S    
C1    C8    S    
Br1   C3    S    
C58   C59   A    
Br3   C71   S    
C35   C36   A    
C57   C68   S    
C1    O4    A    
C73   H3    S    
C8    C9    T    
C50   O5    A    
C47   C87   S    
C63   C65   A    
C75   C77   A    
C76   C88   A    
C70   C71   A    
C2    C3    A    
C61   C68   A    
C42   C43   T    
C37   C38   T    
C67   C78   A    
C51   O7    A    
O9    Zn6   S    
O12   Zn4   S    
C53   O9    A    
C15   C21   A    
O10   Zn1   S    
C19   C20   A    
Br14  C60   S    
C64   C76   A    
C1    O1    A    
C59   C60   A    
C44   O12   A    
C23   C78   A    
C13   C14   T    
C79   C90   S    
C83   Cl5   S    
C20   H10   S    
C12   C88   A    
C83   C84   A    
C7    C45   S    
C17   H8    S    
C80   C81   A    
C82   Cl18  S    
C44   O17   A    
C91   C96   A    
C30   C31   A    
C81   Cl4   S    
O19   Zn4   S    
C27   C29   A    
C50   O3    A    
C14   C50   S    
C18   C29   S    
C2    Cl10  S    
O8    Zn5   S    
C45   C56   A    
C32   C33   A    
C43   C53   S    
C66   C68   A    
C39   C41   T    
C65   Cl16  S    
C54   C60   A    
C34   C46   S    
C19   H9    S    
C26   C27   A    
C72   H2    S    
C64   C78   S    
C16   C37   S    
Br5   C80   S    
C31   Cl14  S    
C55   C57   A    
C16   O13   A    
C28   O15   A    
C83   C90   A    
C38   C39   S    
C24   C25   A    
Br7   C23   S    
O15   Zn1   S    
C95   C96   A    
C3    C5    A    
C93   H4    S    
C62   C63   A    
C53   O8    A    
O14   Zn2   S    
C49   C84   S    
C69   C74   A    
O3    Zn5   S    
O23   Zn4   S    
C24   C48   S    
C9    C10   S    
C61   H14   S    
C23   C34   A    
C40   C52   A    
C93   C94   A    
C22   C24   A    
O11   Zn2   S    
C41   C42   S    
C46   O18   A    
C11   C13   S    
C27   C28   S    
C28   O16   A    
O2    Zn6   S    
C84   C85   A    
C17   C18   A    
Br2   C70   S    
C87   C90   A    
C77   Cl2   S    
C75   C82   A    
C86   C87   A    
C76   Cl3   S    
C2    C89   A    
C56   C67   A    
C12   Cl1   S    
Br9   C15   S    
O17   Zn3   S    
C47   O21   A    
Br15  C58   S    
C72   C73   A    
O6    Zn5   S    
C4    C67   S    
C34   C45   A    
O16   Zn2   S    
C6    C7    A    
O20   Zn3   S    
C73   C74   A    
C22   Cl12  S    
Br11  C40   S    
