data_mof_unit_6306.cif
_audit_creation_date              2012-12-11T15:28:40-0500
_audit_creation_method            fapswitch 2.2
_symmetry_space_group_name_H-M    P1
_symmetry_Int_Tables_number       1
_space_group_crystal_system       triclinic
_cell_length_a                    6.952697
_cell_length_b                    19.573394
_cell_length_c                    23.480515
_cell_angle_alpha                 96.280994
_cell_angle_beta                  91.449772
_cell_angle_gamma                 88.390322
_cell_volume                      3174.18442445

loop_
_atom_site_label
_atom_site_type_symbol
_atom_type_description
_atom_site_fract_x
_atom_site_fract_y
_atom_site_fract_z
_atom_type_partial_charge
O1    O     O_R   0.617180 0.809390 0.808140 -0.530225
O2    O     O_R   0.382820 0.190610 0.191860 -0.530225
O3    O     O_R   0.293300 0.672410 0.795490 -0.519576
O4    O     O_R   0.706700 0.327590 0.204510 -0.519579
O5    O     O_R   0.117220 0.690610 0.691850 -0.520782
O6    O     O_R   0.882780 0.309390 0.308150 -0.520782
C1    C     C_R   0.465983 0.647855 0.805353 0.794575
C2    C     C_R   0.534017 0.352145 0.194646 0.794579
O7    O     O_R   0.287840 0.807750 0.814460 -0.522590
O8    O     O_R   0.712160 0.192250 0.185540 -0.522590
O9    O     O_R   0.111720 0.826910 0.710960 -0.519012
O10   O     O_R   0.888280 0.173090 0.289040 -0.519012
C3    C     C_R   0.456589 0.830734 0.833191 0.736791
C4    C     C_R   0.543411 0.169266 0.166809 0.736790
O11   O     O_R   0.622680 0.673080 0.789040 -0.541454
O12   O     O_R   0.377320 0.326920 0.210960 -0.541453
O13   O     O_3   0.448820 0.756130 0.716020 -0.353761
O14   O     O_3   0.551180 0.243870 0.283980 -0.353761
V1    V     V_3+5 0.176220 0.748860 0.756300 1.550327
V2    V     V_3+5 0.823780 0.251140 0.243700 1.550322
O15   O     O_R   0.781670 0.827580 0.704500 -0.539771
O16   O     O_R   0.218330 0.172420 0.295500 -0.539771
C5    C     C_R   0.947438 0.851581 0.693882 0.764935
C6    C     C_R   0.052562 0.148419 0.306118 0.764936
O17   O     O_R   0.787130 0.692240 0.685530 -0.530271
O18   O     O_R   0.212870 0.307760 0.314470 -0.530271
C7    C     C_R   0.956086 0.669232 0.666771 0.735701
C8    C     C_R   0.043914 0.330768 0.333229 0.735701
V3    V     V_3+5 0.675510 0.751130 0.743690 1.510431
V4    V     V_3+5 0.324490 0.248870 0.256310 1.510431
O19   O     O_3   0.952780 0.743870 0.783980 -0.360310
O20   O     O_3   0.047220 0.256130 0.216020 -0.360311
C9    C     C_1   0.966578 0.617195 0.614714 -0.155938
C10   C     C_1   0.033422 0.382805 0.385286 -0.155938
C11   C     C_1   0.978153 0.573682 0.571901 0.051050
C12   C     C_1   0.021847 0.426318 0.428099 0.051050
C13   C     C_1   0.993409 0.521867 0.521310 0.051563
C14   C     C_1   0.006591 0.478133 0.478690 0.051563
C15   C     C_R   0.945148 0.912852 0.662124 -0.099923
C16   C     C_R   0.054852 0.087148 0.337876 -0.099924
C17   C     C_R   0.873014 0.034349 0.663024 -0.063246
C18   C     C_R   0.126986 0.965651 0.336976 -0.063245
C19   C     C_R   0.871612 0.974434 0.689596 -0.239117
C20   C     C_R   0.128388 0.025566 0.310404 -0.239117
C21   C     C_R   0.008215 0.910271 0.605057 0.323717
C22   C     C_R   0.991785 0.089729 0.394943 0.323717
C23   C     C_R   0.979070 0.969188 0.573830 -0.002701
C24   C     C_R   0.020930 0.030812 0.426170 -0.002701
C25   C     C_R   0.930785 0.033031 0.605969 -0.014872
C26   C     C_R   0.069215 0.966969 0.394031 -0.014873
C27   C     C_R   0.998660 0.968423 0.512803 -0.005240
C28   C     C_R   0.001340 0.031576 0.487197 -0.005240
C29   C     C_R   0.996222 0.093205 0.523931 -0.107064
C30   C     C_R   0.003778 0.906795 0.476069 -0.107064
C31   C     C_R   0.948110 0.094693 0.581144 0.379474
C32   C     C_R   0.051890 0.905307 0.418855 0.379474
H1    H     H_    0.178064 0.023141 0.266825 0.134406
H2    H     H_    0.821936 0.976859 0.733175 0.134406
H3    H     H_    0.826381 0.081654 0.687561 0.200327
H4    H     H_    0.173619 0.918346 0.312439 0.200328
H5    H     H_    0.033114 0.141297 0.509308 0.215294
H6    H     H_    0.966886 0.858703 0.490692 0.215294
C33   C     C_R   0.493709 0.586889 0.837127 -0.172278
C34   C     C_R   0.506293 0.413112 0.162874 -0.172284
C35   C     C_R   0.688307 0.482803 0.842410 0.477320
C36   C     C_R   0.311720 0.517203 0.157595 0.477325
C37   C     C_R   0.603479 0.532151 0.810837 -0.260870
C38   C     C_R   0.396537 0.467851 0.189165 -0.260878
C39   C     C_R   0.445692 0.587339 0.895241 0.340324
C40   C     C_R   0.554306 0.412662 0.104760 0.340324
C41   C     C_R   0.511953 0.531971 0.926763 -0.035559
C42   C     C_R   0.488052 0.468032 0.073239 -0.035573
C43   C     C_R   0.658372 0.486234 0.902145 -0.096796
C44   C     C_R   0.341646 0.513772 0.097859 -0.096797
C45   C     C_R   0.447778 0.522377 0.982874 0.056049
C46   C     C_R   0.552226 0.477626 0.017128 0.056047
C47   C     C_R   0.725755 0.448165 0.996012 -0.088319
C48   C     C_R   0.274254 0.551840 0.003992 -0.088305
C49   C     C_R   0.774956 0.449044 0.939046 0.421239
C50   C     C_R   0.225067 0.550965 0.060959 0.421239
H7    H     H_    0.365336 0.469538 0.234332 0.160589
H8    H     H_    0.634684 0.530463 0.765670 0.160588
H9    H     H_    0.828940 0.425711 0.024147 0.204518
H10   H     H_    0.171066 0.574294 0.975858 0.204527
C51   C     C_1   0.467433 0.882774 0.885253 -0.160950
C52   C     C_1   0.532567 0.117225 0.114747 -0.160950
C53   C     C_1   0.478829 0.926295 0.928076 0.041069
C54   C     C_1   0.521171 0.073705 0.071924 0.041068
C55   C     C_1   0.493627 0.978125 0.978683 0.040101
C56   C     C_1   0.506373 0.021875 0.021317 0.040101
Cl1   Cl    Cl    0.923171 0.176153 0.621066 -0.521250
Cl2   Cl    Cl    0.076830 0.823847 0.378934 -0.521244
Cl3   Cl    Cl    0.845226 0.161772 0.420104 -0.642753
Cl4   Cl    Cl    0.154774 0.838227 0.579896 -0.642753
Cl5   Cl    Cl    0.003132 0.412543 0.920707 -0.513661
Cl6   Cl    Cl    0.996919 0.587481 0.079302 -0.513637
Cl7   Cl    Cl    0.649279 0.334364 0.070009 -0.618788
Cl8   Cl    Cl    0.350708 0.665637 0.929990 -0.618791
Cl9   Cl    Cl    0.816296 0.415369 0.802678 -0.452735
Cl10  Cl    Cl    0.183768 0.584641 0.197330 -0.452730

loop_
_geom_bond_atom_site_label_1
_geom_bond_atom_site_label_2
_ccdc_geom_bond_type
C36   C38   A    
C51   C53   T    
O13   V3    S    
O4    C2    A    
V1    O19   S    
C23   C25   A    
C7    C9    S    
C16   C22   A    
O9    V1    S    
C38   H7    S    
C34   C38   A    
C11   C13   S    
O3    C1    A    
C9    C11   T    
C48   C50   A    
C47   H9    S    
O12   V4    S    
C2    C34   S    
C35   C43   A    
C21   C23   A    
C36   Cl10  S    
C39   C41   A    
O7    C3    A    
C31   Cl1   S    
C19   H2    S    
C6    C16   S    
O5    C7    A    
C29   H5    S    
O7    V1    S    
O6    C8    A    
C33   C39   A    
O8    V2    S    
C35   C37   A    
O3    V1    S    
O14   V4    S    
C34   C40   A    
C50   Cl6   S    
C10   C12   T    
C40   Cl7   S    
C42   C46   A    
C15   C21   A    
C39   Cl8   S    
C24   C26   A    
C8    C10   S    
C2    O12   A    
C44   C50   A    
C17   C19   A    
C18   C20   A    
C21   Cl4   S    
C17   C25   A    
O11   V3    S    
C22   C24   A    
C29   C31   A    
O17   V3    S    
C33   C37   A    
C52   C54   T    
C27   C28   A    
V4    O20   S    
C46   C47   A    
C4    C52   S    
C42   C44   A    
O8    C4    A    
C18   H4    S    
C41   C43   A    
C15   C19   A    
C1    O11   A    
C30   H6    S    
C25   C31   A    
C35   Cl9   S    
O15   V3    S    
C26   C32   A    
C45   C46   A    
C49   Cl5   S    
C13   C14   T    
C16   C20   A    
C20   H1    S    
O10   V2    S    
O1    V3    S    
C43   C49   A    
C47   C49   A    
C1    C33   S    
C18   C26   A    
C54   C56   S    
O18   V4    S    
C53   C55   S    
O16   C6    A    
O1    C3    A    
C12   C14   S    
C28   C29   A    
V2    O20   S    
O16   V4    S    
C23   C27   A    
C30   C32   A    
O5    V1    S    
O17   C7    A    
O6    V2    S    
O10   C6    A    
O18   C8    A    
O2    V4    S    
C27   C30   A    
O15   C5    A    
V3    O19   S    
C41   C45   A    
C22   Cl3   S    
C5    C15   S    
O9    C5    A    
O13   V1    S    
O14   V2    S    
O2    C4    A    
C45   C48   A    
O4    V2    S    
C48   H10   S    
C24   C28   A    
C37   H8    S    
C17   H3    S    
C3    C51   S    
C40   C42   A    
C55   C56   T    
C32   Cl2   S    
C36   C44   A    
