data_mof_unit_6831.cif
_audit_creation_date              2012-12-11T14:38:20-0500
_audit_creation_method            fapswitch 2.2
_symmetry_space_group_name_H-M    P1
_symmetry_Int_Tables_number       1
_space_group_crystal_system       triclinic
_cell_length_a                    19.701783
_cell_length_b                    11.110419
_cell_length_c                    19.607833
_cell_angle_alpha                 90.032314
_cell_angle_beta                  95.940746
_cell_angle_gamma                 89.883006
_cell_volume                      4268.99804566

loop_
_atom_site_label
_atom_site_type_symbol
_atom_type_description
_atom_site_fract_x
_atom_site_fract_y
_atom_site_fract_z
_atom_type_partial_charge
C1    C     C_R   0.707944 0.995729 0.366154 0.553301
C2    C     C_3   0.166524 0.517526 0.481191 -0.259277
C3    C     C_2   0.122498 0.707792 0.029892 0.565394
C4    C     C_2   0.620733 0.428034 0.441420 0.596565
C5    C     C_2   0.379165 0.427210 0.558522 0.596527
C6    C     C_2   0.120733 0.928035 0.441420 0.596565
C7    C     C_2   0.879165 0.927210 0.558522 0.596527
C8    C     C_3   0.333439 0.017106 0.518788 -0.259566
C9    C     C_3   0.666524 0.017526 0.481191 -0.259277
C10   C     C_3   0.778411 0.326786 0.552335 -0.238098
C11   C     C_3   0.221641 0.326786 0.447657 -0.237893
C12   C     C_3   0.278411 0.826786 0.552335 -0.238098
C13   C     C_3   0.721641 0.826786 0.447657 -0.237893
C14   C     C_3   0.777275 0.463671 0.561161 0.027361
C15   C     C_3   0.222718 0.463652 0.438833 0.027232
C16   C     C_3   0.277275 0.963671 0.561161 0.027361
C17   C     C_R   0.292083 0.995831 0.633822 0.553699
C18   C     C_3   0.722718 0.963652 0.438833 0.027232
C19   C     C_3   0.751546 0.413688 0.430961 0.036094
C20   C     C_3   0.248371 0.413648 0.569045 0.035809
C21   C     C_3   0.251546 0.913688 0.430961 0.036094
C22   C     C_3   0.748371 0.913648 0.569045 0.035809
C23   C     C_3   0.814119 0.498510 0.440921 -0.271828
C24   C     C_3   0.185784 0.498863 0.559075 -0.272057
C25   C     C_3   0.314120 0.998509 0.440921 -0.271828
C26   C     C_3   0.685784 0.998863 0.559075 -0.272057
C27   C     C_3   0.770533 0.301468 0.476425 -0.222557
C28   C     C_R   0.207944 0.495729 0.366154 0.553302
C29   C     C_3   0.229412 0.301519 0.523555 -0.222581
C30   C     C_3   0.270533 0.801468 0.476425 -0.222557
C31   C     C_3   0.729412 0.801519 0.523555 -0.222581
C32   C     C_3   0.458190 0.306004 0.968454 -0.227319
C33   C     C_3   0.474542 0.301474 0.045500 -0.224000
C34   C     C_3   0.958190 0.806004 0.968454 -0.227319
C35   C     C_3   0.974541 0.801474 0.045500 -0.223998
C36   C     C_3   0.409838 0.096891 0.980588 -0.058166
C37   C     C_3   0.559449 0.131779 0.023692 -0.052760
C38   C     C_3   0.909838 0.596891 0.980588 -0.058167
C39   C     C_R   0.792084 0.495831 0.633822 0.553699
C40   C     C_3   0.059449 0.631780 0.023691 -0.052759
C41   C     C_3   0.530215 0.123176 0.948115 -0.246597
C42   C     C_3   0.444251 0.082040 0.055964 -0.259345
C43   C     C_3   0.030215 0.623178 0.948115 -0.246596
C44   C     C_3   0.944251 0.582040 0.055964 -0.259345
C45   C     C_R   0.534574 0.179626 0.337750 0.536015
C46   C     C_R   0.465489 0.179457 0.662292 0.545383
C47   C     C_R   0.034574 0.679626 0.337750 0.536015
C48   C     C_R   0.965489 0.679457 0.662292 0.545383
C49   C     C_3   0.457091 0.176397 0.938313 0.013760
C50   C     C_3   0.689887 0.484200 0.456195 -0.044492
C51   C     C_3   0.502881 0.174247 0.068549 0.012170
C52   C     C_3   0.957091 0.676398 0.938313 0.013759
C53   C     C_3   0.002881 0.674247 0.068549 0.012171
C54   C     C_1   0.761243 0.421976 0.903812 0.012034
C55   C     C_1   0.237869 0.427631 0.094854 0.061806
C56   C     C_1   0.261243 0.921976 0.903812 0.012032
C57   C     C_1   0.737869 0.927631 0.094853 0.061804
C58   C     C_1   0.752218 0.414228 0.036428 0.028310
C59   C     C_1   0.249163 0.417434 0.962888 -0.021906
C60   C     C_1   0.252218 0.914229 0.036428 0.028310
C61   C     C_3   0.310011 0.483795 0.543825 -0.043951
C62   C     C_1   0.749163 0.917434 0.962888 -0.021912
C63   C     C_1   0.755334 0.415026 0.964457 -0.003232
C64   C     C_1   0.244784 0.420752 0.034470 0.034287
C65   C     C_1   0.255334 0.915027 0.964457 -0.003238
C66   C     C_1   0.744784 0.920753 0.034470 0.034277
C67   C     C_1   0.747190 0.401203 0.096918 0.046372
C68   C     C_1   0.253463 0.403939 0.902368 -0.004630
C69   C     C_1   0.247190 0.901203 0.096918 0.046376
C70   C     C_1   0.753463 0.903939 0.902368 -0.004630
C71   C     C_R   0.739836 0.366046 0.360045 0.526268
C72   C     C_3   0.189887 0.984200 0.456195 -0.044493
C73   C     C_R   0.260128 0.365958 0.639959 0.526411
C74   C     C_R   0.239836 0.866046 0.360045 0.526268
C75   C     C_R   0.760128 0.865958 0.639959 0.526411
C76   C     C_R   0.722436 0.953473 0.163399 0.576040
C77   C     C_R   0.276819 0.950894 0.835568 0.572276
C78   C     C_R   0.222436 0.453473 0.163399 0.576035
C79   C     C_R   0.776819 0.450894 0.835568 0.572276
C80   C     C_R   0.531673 0.179407 0.141161 0.546727
C81   C     C_R   0.436541 0.182667 0.862997 0.595305
C82   C     C_R   0.031673 0.679407 0.141161 0.546724
C83   C     C_3   0.810011 0.983795 0.543825 -0.043951
C84   C     C_R   0.936541 0.682667 0.862996 0.595305
C85   C     C_R   0.737189 0.361711 0.165002 0.562075
C86   C     C_R   0.262448 0.363770 0.834120 0.562472
C87   C     C_R   0.237189 0.861711 0.165002 0.562073
C88   C     C_R   0.762448 0.863770 0.834120 0.562472
C89   C     C_1   0.488700 0.168235 0.595585 0.013140
C90   C     C_1   0.511510 0.168603 0.404514 0.014977
C91   C     C_1   0.988700 0.668235 0.595585 0.013140
C92   C     C_1   0.011510 0.668603 0.404514 0.014977
C93   C     C_1   0.502559 0.161889 0.464350 0.010654
C94   C     C_3   0.833439 0.517106 0.518788 -0.259566
C95   C     C_1   0.497742 0.161693 0.535759 0.009884
C96   C     C_1   0.002559 0.661889 0.464350 0.010654
C97   C     C_1   0.997742 0.661693 0.535759 0.009884
C98   C     C_3   0.703424 0.501748 0.533772 -0.219831
C99   C     C_3   0.296505 0.501384 0.466254 -0.219764
C100  C     C_3   0.203424 0.001748 0.533772 -0.219832
C101  C     C_3   0.796505 0.001384 0.466254 -0.219764
C102  C     C_2   0.338769 0.149452 0.980120 0.520661
C103  C     C_2   0.622499 0.207792 0.029892 0.565390
C104  C     C_2   0.838769 0.649452 0.980120 0.520661
Cr1   Cr    Cr6+3 0.765780 0.160710 0.267420 1.030541
Cr2   Cr    Cr6+3 0.383970 0.323720 0.751490 1.058860
Cr3   Cr    Cr6+3 0.116030 0.823720 0.248510 1.073107
Cr4   Cr    Cr6+3 0.883970 0.823720 0.751490 1.058859
Cr5   Cr    Cr6+3 0.234220 0.160710 0.732580 1.032168
Cr6   Cr    Cr6+3 0.265780 0.660710 0.267420 1.030540
Cr7   Cr    Cr6+3 0.734220 0.660710 0.732580 1.032168
Cr8   Cr    Cr6+3 0.612200 0.009560 0.248850 1.031373
Cr9   Cr    Cr6+3 0.387800 0.009560 0.751150 1.027842
Cr10  Cr    Cr6+3 0.112200 0.509560 0.248850 1.031372
Cr11  Cr    Cr6+3 0.887800 0.509560 0.751150 1.027841
Cr12  Cr    Cr6+3 0.616030 0.323720 0.248510 1.073107
H1    H     H_    0.690533 0.592124 0.548135 0.108536
H2    H     H_    0.117637 0.469628 0.466240 0.135338
H3    H     H_    0.382333 0.968866 0.533685 0.135272
H4    H     H_    0.617637 0.969628 0.466240 0.135338
H5    H     H_    0.858460 0.459383 0.417725 0.140562
H6    H     H_    0.141435 0.460037 0.582226 0.140739
H7    H     H_    0.358460 0.959382 0.417725 0.140562
H8    H     H_    0.641435 0.960037 0.582226 0.140739
H9    H     H_    0.408369 0.352307 0.955506 0.142877
H10   H     H_    0.511146 0.375629 0.059698 0.186686
H11   H     H_    0.908369 0.852307 0.955506 0.142878
H12   H     H_    0.309304 0.591708 0.451963 0.108379
H13   H     H_    0.011144 0.875630 0.059698 0.186689
H14   H     H_    0.497744 0.361554 0.946721 0.185784
H15   H     H_    0.427821 0.321568 0.070919 0.150357
H16   H     H_    0.997743 0.861555 0.946722 0.185783
H17   H     H_    0.927819 0.821566 0.070919 0.150359
H18   H     H_    0.408592 0.091583 0.095950 0.165370
H19   H     H_    0.563512 0.169229 0.913582 0.160764
H20   H     H_    0.908593 0.591581 0.095950 0.165370
H21   H     H_    0.063512 0.669231 0.913582 0.160760
H22   H     H_    0.528864 0.026677 0.932584 0.116043
H23   H     H_    0.190533 0.092124 0.548135 0.108536
H24   H     H_    0.464716 0.988832 0.062626 0.104630
H25   H     H_    0.028864 0.526679 0.932584 0.116044
H26   H     H_    0.964716 0.488832 0.062625 0.104630
H27   H     H_    0.576027 0.039510 0.040623 0.124841
H28   H     H_    0.404479 0.006036 0.956814 0.108029
H29   H     H_    0.076027 0.539510 0.040623 0.124842
H30   H     H_    0.904479 0.506036 0.956814 0.108029
H31   H     H_    0.667236 0.447859 0.561579 0.161631
H32   H     H_    0.332745 0.447356 0.438410 0.161343
H33   H     H_    0.167236 0.947859 0.561579 0.161631
H34   H     H_    0.809304 0.091708 0.451963 0.108379
H35   H     H_    0.832745 0.947356 0.438410 0.161343
H36   H     H_    0.687045 0.573974 0.431152 0.098915
H37   H     H_    0.312840 0.573568 0.568910 0.098802
H38   H     H_    0.187045 0.073974 0.431153 0.098915
H39   H     H_    0.812840 0.073568 0.568910 0.098802
H40   H     H_    0.345844 0.111658 0.530546 0.151369
H41   H     H_    0.654171 0.112177 0.469467 0.151403
H42   H     H_    0.845844 0.611658 0.530546 0.151369
H43   H     H_    0.154171 0.612177 0.469467 0.151402
H44   H     H_    0.302584 0.086167 0.415156 0.112885
H45   H     H_    0.821933 0.271805 0.464520 0.140738
H46   H     H_    0.697287 0.086479 0.584872 0.112724
H47   H     H_    0.802584 0.586167 0.415156 0.112885
H48   H     H_    0.197287 0.586479 0.584872 0.112724
H49   H     H_    0.827377 0.286306 0.575061 0.152691
H50   H     H_    0.172724 0.286530 0.424870 0.152704
H51   H     H_    0.327377 0.786306 0.575061 0.152691
H52   H     H_    0.672724 0.786530 0.424870 0.152704
H53   H     H_    0.736809 0.283321 0.577618 0.132542
H54   H     H_    0.263312 0.283070 0.422433 0.132797
H55   H     H_    0.236809 0.783321 0.577618 0.132541
H56   H     H_    0.177989 0.272278 0.535397 0.140579
H57   H     H_    0.763312 0.783070 0.422433 0.132797
H58   H     H_    0.248761 0.172179 0.925037 0.343382
H59   H     H_    0.725012 0.191445 0.035798 0.319473
H60   H     H_    0.748761 0.672180 0.925037 0.343382
H61   H     H_    0.225012 0.691448 0.035791 0.319476
H62   H     H_    0.521961 0.450935 0.405017 0.346932
H63   H     H_    0.478017 0.449658 0.594581 0.347365
H64   H     H_    0.021961 0.950936 0.405016 0.346932
H65   H     H_    0.978017 0.949658 0.594581 0.347365
H66   H     H_    0.732938 0.230652 0.464774 0.140664
H67   H     H_    0.321933 0.771805 0.464520 0.140738
H68   H     H_    0.266963 0.230406 0.535236 0.140735
H69   H     H_    0.232938 0.730652 0.464774 0.140664
H70   H     H_    0.766963 0.730406 0.535236 0.140735
H71   H     H_    0.677989 0.772278 0.535397 0.140579
H72   H     H_    0.882333 0.468866 0.533685 0.135272
O1    O     O_R   0.783100 0.287550 0.345460 -0.543249
O2    O     O_R   0.454350 0.284910 0.836260 -0.526067
O3    O     O_R   0.045650 0.784910 0.163740 -0.515973
O4    O     O_R   0.954350 0.784910 0.836260 -0.526068
O5    O     O_R   0.677950 0.374280 0.185410 -0.474227
O6    O     O_R   0.322050 0.374280 0.814590 -0.500638
O7    O     O_R   0.177950 0.874280 0.185410 -0.474228
O8    O     O_R   0.822050 0.874280 0.814590 -0.500638
O9    O     O_3   0.664670 0.164660 0.254930 -0.270871
O10   O     O_3   0.335330 0.164660 0.745070 -0.280342
O11   O     O_3   0.164670 0.664660 0.254930 -0.270874
O12   O     O_R   0.216900 0.287550 0.654540 -0.542314
O13   O     O_3   0.835330 0.664660 0.745070 -0.280342
O14   O     O_R   0.760020 0.037400 0.337700 -0.515938
O15   O     O_R   0.239980 0.037400 0.662300 -0.515097
O16   O     O_R   0.260020 0.537400 0.337700 -0.515937
O17   O     O_R   0.739980 0.537400 0.662300 -0.515097
O18   O     O_R   0.666600 0.921990 0.332020 -0.519270
O19   O     O_R   0.333400 0.921990 0.667980 -0.519893
O20   O     O_R   0.166600 0.421990 0.332020 -0.519270
O21   O     O_R   0.833400 0.421990 0.667980 -0.519893
O22   O     O_R   0.557260 0.082670 0.312540 -0.523534
O23   O     O_R   0.283100 0.787550 0.345460 -0.543249
O24   O     O_R   0.442740 0.082670 0.687460 -0.519102
O25   O     O_R   0.057260 0.582670 0.312540 -0.523534
O26   O     O_R   0.942740 0.582670 0.687460 -0.519102
O27   O     O_R   0.548410 0.285740 0.316480 -0.480374
O28   O     O_R   0.451590 0.285740 0.683520 -0.474481
O29   O     O_R   0.048410 0.785740 0.316480 -0.480374
O30   O     O_R   0.951590 0.785740 0.683520 -0.474481
O31   O     O_R   0.680500 0.375040 0.327000 -0.479704
O32   O     O_R   0.319500 0.375040 0.673000 -0.479141
O33   O     O_R   0.180500 0.875040 0.327000 -0.479703
O34   O     O_R   0.716900 0.787550 0.654540 -0.542314
O35   O     O_R   0.819500 0.875040 0.673000 -0.479140
O36   O     O_R   0.780350 0.286720 0.192720 -0.513632
O37   O     O_R   0.219650 0.286720 0.807280 -0.499763
O38   O     O_R   0.280350 0.786720 0.192720 -0.513634
O39   O     O_R   0.719650 0.786720 0.807280 -0.499763
O40   O     O_R   0.757470 0.036630 0.196110 -0.480409
O41   O     O_R   0.242530 0.036630 0.803890 -0.465061
O42   O     O_R   0.257470 0.536630 0.196110 -0.480411
O43   O     O_R   0.742530 0.536630 0.803890 -0.465060
O44   O     O_R   0.663840 0.921160 0.179280 -0.503704
O45   O     O_R   0.554710 0.081900 0.170950 -0.504671
O46   O     O_R   0.336160 0.921160 0.820720 -0.515926
O47   O     O_R   0.163840 0.421160 0.179280 -0.503704
O48   O     O_R   0.836160 0.421160 0.820720 -0.515926
O49   O     O_2   0.315213 0.178373 0.033109 -0.555966
O50   O     O_R   0.298718 0.161017 0.918197 -0.702934
O51   O     O_2   0.620545 0.311616 0.009404 -0.543609
O52   O     O_R   0.684068 0.154321 0.054413 -0.720828
O53   O     O_2   0.815214 0.678375 0.033109 -0.555965
O54   O     O_R   0.798718 0.661016 0.918197 -0.702934
O55   O     O_2   0.120544 0.811620 0.009409 -0.543606
O56   O     O_R   0.445290 0.081900 0.829050 -0.508977
O57   O     O_R   0.184069 0.654318 0.054404 -0.720837
O58   O     O_2   0.610607 0.328183 0.463734 -0.573154
O59   O     O_R   0.567418 0.493959 0.406612 -0.687513
O60   O     O_2   0.389236 0.327213 0.536231 -0.573891
O61   O     O_R   0.432547 0.492932 0.593131 -0.686659
O62   O     O_2   0.110607 0.828184 0.463734 -0.573153
O63   O     O_R   0.067418 0.993959 0.406611 -0.687513
O64   O     O_2   0.889236 0.827213 0.536231 -0.573891
O65   O     O_R   0.932547 0.992933 0.593131 -0.686659
O66   O     O_R   0.054710 0.581900 0.170950 -0.504673
O67   O     O_R   0.945290 0.581900 0.829050 -0.508977
O68   O     O_R   0.545650 0.284910 0.163740 -0.515974

loop_
_geom_bond_atom_site_label_1
_geom_bond_atom_site_label_2
_ccdc_geom_bond_type
C10   C27   S    
C44   H20   S    
C7    C83   S    
C99   H32   S    
C43   C52   S    
C29   H68   S    
C82   O3    A    
C35   C53   S    
C68   C86   S    
C30   H67   S    
C88   O8    A    
C19   C71   S    
Cr6   O23   S    
C103  O51   D    
C2    C15   S    
C57   C66   T    
C70   C88   S    
C35   H17   S    
C12   H51   S    
C32   H14   S    
C2    H2    S    
C23   H5    S    
C46   C89   S    
C48   O30   A    
C10   H53   S    
C6    C72   S    
C47   O29   A    
C74   O33   A    
C39   O21   A    
C59   C64   S    
C6    O63   S    
C90   C93   T    
Cr9   O19   S    
C81   O56   A    
Cr6   O16   S    
C94   H72   S    
C79   O48   A    
H58   O50   S    
C37   C51   S    
Cr12  O68   S    
H63   O61   S    
H64   O63   S    
C104  O54   S    
C77   O41   A    
C88   O39   A    
C76   O40   A    
C98   H31   S    
C56   C65   T    
C73   O12   A    
C47   O25   A    
C101  H34   S    
C92   C96   T    
C71   O31   A    
C62   C70   T    
C36   C102  S    
C34   C35   S    
C47   C92   S    
Cr1   O40   S    
C49   C81   S    
C20   C61   S    
C52   C84   S    
C51   C80   S    
C38   H30   S    
C38   C104  S    
Cr6   O42   S    
C14   C39   S    
Cr3   O29   S    
Cr5   O41   S    
C44   C53   S    
C41   C49   S    
C40   C43   S    
H61   O57   S    
C12   C16   S    
C75   O34   A    
Cr10  O20   S    
C16   C17   S    
C102  O49   D    
C48   C91   S    
C76   O44   A    
C11   H50   S    
Cr9   O10   S    
C43   H21   S    
Cr4   O8    S    
C80   O68   A    
C35   H13   S    
C69   C87   S    
C42   C51   S    
Cr2   O10   S    
Cr4   O30   S    
C33   H15   S    
Cr1   O9    S    
C103  O52   S    
C75   O35   A    
C8    C16   S    
C7    O65   S    
C33   H10   S    
C8    C25   S    
Cr10  O25   S    
Cr7   O13   S    
Cr5   O10   S    
C61   C99   S    
C26   H8    S    
C22   C75   S    
C25   H44   S    
Cr12  O27   S    
C1    O14   A    
Cr3   O7    S    
Cr11  O48   S    
Cr2   O32   S    
C14   C98   S    
C12   H55   S    
C23   H47   S    
C20   C29   S    
Cr9   O46   S    
Cr10  O66   S    
C48   O26   A    
C102  O50   S    
C67   C85   S    
C22   C31   S    
C6    O62   D    
C21   C72   S    
C42   H24   S    
C28   O16   A    
C30   H69   S    
C20   C24   S    
Cr5   O15   S    
C72   H38   S    
Cr2   O6    S    
Cr8   O45   S    
Cr6   O38   S    
C50   C98   S    
Cr1   O14   S    
C37   C103  S    
Cr4   O35   S    
C62   C66   S    
C19   C23   S    
C78   O47   A    
C13   H52   S    
C31   H70   S    
C9    C26   S    
C32   C49   S    
C12   C30   S    
C21   C74   S    
C26   H46   S    
C71   O1    A    
C56   C77   S    
C73   O32   A    
C4    C50   S    
C53   C82   S    
C104  O53   D    
Cr7   O34   S    
Cr8   O22   S    
C32   H9    S    
C89   C95   T    
C13   H57   S    
C4    O59   S    
C38   C44   S    
Cr4   O13   S    
C24   H48   S    
C100  H23   S    
C5    O61   S    
C59   C68   T    
C9    C18   S    
C9    H41   S    
Cr7   O43   S    
C87   O38   A    
C79   O43   A    
C55   C64   T    
C84   O67   A    
C24   H6    S    
C1    C18   S    
C5    C61   S    
C3    O55   D    
Cr7   O17   S    
C91   C97   T    
Cr12  O31   S    
C1    O18   A    
C25   H7    S    
Cr11  O67   S    
C4    O58   D    
C41   H22   S    
C99   H12   S    
C22   C26   S    
H65   O65   S    
Cr12  O5    S    
C13   C18   S    
C14   C94   S    
C44   H26   S    
C34   H11   S    
C60   C65   S    
C11   C15   S    
Cr10  O11   S    
C2    C24   S    
C9    H4    S    
C28   O20   A    
C83   C101  S    
C43   H25   S    
C78   O42   A    
C27   H45   S    
C2    H43   S    
C5    O60   D    
Cr3   O3    S    
Cr8   O9    S    
C41   H19   S    
C19   C27   S    
C96   C97   S    
C57   C76   S    
C98   H1    S    
H60   O54   S    
C54   C79   S    
C72   C100  S    
C58   C63   S    
C55   C78   S    
C21   C25   S    
Cr11  O21   S    
Cr5   O37   S    
C37   H27   S    
C17   O15   A    
Cr6   O11   S    
C34   C52   S    
C80   O45   A    
C13   C31   S    
C16   C100  S    
Cr9   O24   S    
C15   C99   S    
Cr11  O13   S    
C61   H37   S    
C36   C42   S    
C3    C40   S    
Cr9   O56   S    
Cr10  O47   S    
C40   H29   S    
C100  H33   S    
C33   C51   S    
Cr1   O36   S    
Cr2   O28   S    
C21   C30   S    
C7    O64   D    
C46   O28   A    
C45   O22   A    
Cr8   O44   S    
C23   C94   S    
C74   O23   A    
C42   H18   S    
C17   O19   A    
Cr7   O39   S    
C22   C83   S    
C36   H28   S    
C27   H66   S    
C87   O7    A    
C86   O6    A    
C11   C29   S    
Cr3   O11   S    
Cr12  O9    S    
C19   C50   S    
C85   O5    A    
C15   C28   S    
C93   C95   S    
C60   C69   T    
C10   H49   S    
C46   O24   A    
C39   O17   A    
C38   C52   S    
C77   O46   A    
C45   O27   A    
Cr1   O1    S    
C101  H35   S    
C20   C73   S    
C84   O4    A    
C29   H56   S    
C37   C41   S    
C32   C33   S    
C8    H40   S    
C85   O36   A    
C81   O2    A    
Cr8   O18   S    
H62   O59   S    
C34   H16   S    
C50   H36   S    
C58   C67   T    
C83   H39   S    
Cr11  O26   S    
C11   H54   S    
C94   H42   S    
C40   C53   S    
C54   C63   T    
C31   H71   S    
C86   O37   A    
Cr2   O2    S    
C82   O66   A    
Cr5   O12   S    
C3    O57   S    
C18   C101  S    
C45   C90   S    
C36   C49   S    
H59   O52   S    
C8    H3    S    
C10   C14   S    
Cr3   O33   S    
Cr4   O4    S    
