data_mof_unit_50752.cif
_audit_creation_date              2012-12-10T21:14:43-0500
_audit_creation_method            fapswitch 2.2
_symmetry_space_group_name_H-M    P1
_symmetry_Int_Tables_number       1
_space_group_crystal_system       triclinic
_cell_length_a                    17.572632
_cell_length_b                    16.948788
_cell_length_c                    11.533471
_cell_angle_alpha                 90.01454
_cell_angle_beta                  91.960637
_cell_angle_gamma                 89.97759
_cell_volume                      3433.05783165

loop_
_atom_site_label
_atom_site_type_symbol
_atom_type_description
_atom_site_fract_x
_atom_site_fract_y
_atom_site_fract_z
_atom_type_partial_charge
C1    C     C_R   0.354065 0.499959 0.499800 0.920035
C2    C     C_R   0.114736 0.505618 0.511104 0.025157
C3    C     C_1   0.966618 0.504229 0.513087 -0.019167
C4    C     C_1   0.034179 0.505453 0.513329 -0.019338
C5    C     C_R   0.499522 0.500000 0.281787 0.883980
C6    C     C_R   0.500062 0.500008 0.718191 0.889305
C7    C     C_R   0.453757 0.833603 0.420949 0.343974
C8    C     C_R   0.564097 0.166577 0.539342 0.363527
C9    C     C_R   0.546187 0.833613 0.579057 0.344026
C10   C     C_R   0.435890 0.166616 0.460712 0.363908
C11   C     C_R   0.457884 0.749415 0.417021 0.143125
C12   C     C_R   0.645961 0.499916 0.500681 0.912316
C13   C     C_R   0.560098 0.250542 0.550260 0.133699
C14   C     C_R   0.542092 0.749430 0.582984 0.143280
C15   C     C_R   0.439898 0.250568 0.449765 0.132243
C16   C     C_1   0.499971 0.963839 0.499997 0.092639
C17   C     C_1   0.499984 0.036360 0.500011 0.110749
C18   C     C_1   0.499490 0.500024 0.161420 -0.200961
C19   C     C_1   0.499973 0.500050 0.838548 -0.202655
C20   C     C_1   0.499593 0.500069 0.059272 0.003742
C21   C     C_1   0.499806 0.500083 0.940690 0.003588
C22   C     C_R   0.499968 0.876300 0.500000 -0.166372
C23   C     C_R   0.767459 0.518483 0.609562 0.120163
C24   C     C_R   0.499992 0.123883 0.500025 -0.154253
C25   C     C_R   0.847336 0.522394 0.611616 0.180371
C26   C     C_R   0.149693 0.527487 0.407406 0.180329
C27   C     C_R   0.157421 0.480995 0.610721 0.188390
C28   C     C_R   0.846801 0.478906 0.407152 0.177777
C29   C     C_3   0.334713 0.882394 0.388681 0.085655
C30   C     C_3   0.286541 0.937507 0.311421 -0.292548
C31   C     C_3   0.207001 0.948362 0.358118 -0.987275
C32   C     C_3   0.686413 0.134168 0.493462 0.077110
C33   C     C_3   0.672224 0.081375 0.386759 -0.367064
C34   C     C_R   0.229168 0.521738 0.401634 0.123303
C35   C     C_3   0.739897 0.082818 0.307387 -0.952724
C36   C     C_3   0.665214 0.882359 0.611366 0.085683
C37   C     C_3   0.713369 0.937446 0.688672 -0.292580
C38   C     C_3   0.792920 0.948230 0.642023 -0.987218
C39   C     C_3   0.313587 0.134323 0.506644 0.077220
C40   C     C_3   0.327779 0.081509 0.613297 -0.367812
C41   C     C_3   0.260124 0.083026 0.692704 -0.951703
C42   C     C_3   0.418066 0.708030 0.316497 -0.756575
C43   C     C_3   0.622301 0.291045 0.620936 -0.759415
C44   C     C_3   0.581988 0.708061 0.683442 -0.757500
C45   C     C_R   0.237367 0.480064 0.606915 0.114304
C46   C     C_3   0.377705 0.291078 0.379057 -0.761381
C47   C     C_3   0.890070 0.548014 0.722355 -0.891449
C48   C     C_3   0.103318 0.556189 0.301730 -0.894272
C49   C     C_3   0.118635 0.455456 0.720468 -0.903019
C50   C     C_3   0.889074 0.454021 0.299997 -0.895586
C51   C     C_3   0.725546 0.533494 0.720749 -0.901562
C52   C     C_3   0.267028 0.537882 0.287349 -0.902380
C53   C     C_3   0.287282 0.458667 0.712815 -0.869902
C54   C     C_3   0.724025 0.459617 0.289877 -0.863682
C55   C     C_R   0.766806 0.479686 0.403050 0.113093
C56   C     C_R   0.728051 0.499507 0.504350 -0.134216
C57   C     C_R   0.272035 0.499905 0.502202 -0.143335
C58   C     C_R   0.886001 0.501942 0.510647 0.027178
H1    H     H_    0.338251 0.907401 0.477923 0.130909
H2    H     H_    0.662224 0.019880 0.414776 0.226473
H3    H     H_    0.620870 0.102107 0.336783 0.219079
H4    H     H_    0.750410 0.143894 0.276894 0.265388
H5    H     H_    0.727660 0.044659 0.230733 0.271320
H6    H     H_    0.791813 0.060288 0.354046 0.259986
H7    H     H_    0.661685 0.907358 0.522136 0.130892
H8    H     H_    0.693923 0.823862 0.607886 0.138594
H9    H     H_    0.684972 0.995886 0.693237 0.265626
H10   H     H_    0.718321 0.912608 0.777804 0.220777
H11   H     H_    0.823308 0.890773 0.640592 0.267571
H12   H     H_    0.306012 0.823916 0.392143 0.138383
H13   H     H_    0.825954 0.989623 0.698845 0.268248
H14   H     H_    0.789377 0.972955 0.552834 0.266714
H15   H     H_    0.258818 0.116822 0.463116 0.173713
H16   H     H_    0.306350 0.196516 0.535022 0.134619
H17   H     H_    0.337751 0.020004 0.585220 0.226612
H18   H     H_    0.379149 0.102180 0.663266 0.218822
H19   H     H_    0.249641 0.144112 0.723259 0.266041
H20   H     H_    0.272362 0.044847 0.769316 0.271216
H21   H     H_    0.208189 0.060562 0.646049 0.259980
H22   H     H_    0.383519 0.658431 0.346398 0.255096
H23   H     H_    0.314935 0.995924 0.306864 0.265597
H24   H     H_    0.378423 0.746685 0.265993 0.225949
H25   H     H_    0.460785 0.688540 0.254165 0.244899
H26   H     H_    0.599905 0.340525 0.671394 0.261488
H27   H     H_    0.648486 0.250253 0.686210 0.228618
H28   H     H_    0.668066 0.311402 0.564371 0.227450
H29   H     H_    0.621474 0.746773 0.734113 0.226092
H30   H     H_    0.539319 0.688397 0.745693 0.244804
H31   H     H_    0.616731 0.658626 0.653383 0.255651
H32   H     H_    0.400106 0.340545 0.328650 0.261931
H33   H     H_    0.351572 0.250286 0.313735 0.229412
H34   H     H_    0.281568 0.912657 0.222280 0.220846
H35   H     H_    0.331907 0.311450 0.435595 0.225162
H36   H     H_    0.881235 0.504218 0.792120 0.240744
H37   H     H_    0.952254 0.554356 0.713361 0.239757
H38   H     H_    0.869092 0.606553 0.750281 0.243308
H39   H     H_    0.125371 0.614032 0.272840 0.243900
H40   H     H_    0.107131 0.512782 0.230102 0.240774
H41   H     H_    0.042216 0.565506 0.317621 0.241975
H42   H     H_    0.133596 0.496987 0.792129 0.241782
H43   H     H_    0.055754 0.453597 0.712352 0.241589
H44   H     H_    0.137205 0.394849 0.744666 0.242923
H45   H     H_    0.176620 0.890927 0.359573 0.267468
H46   H     H_    0.870166 0.394338 0.271889 0.241971
H47   H     H_    0.877458 0.496682 0.228581 0.241737
H48   H     H_    0.951614 0.450417 0.313487 0.242792
H49   H     H_    0.663461 0.523162 0.712733 0.222224
H50   H     H_    0.747147 0.493005 0.789949 0.246033
H51   H     H_    0.734375 0.595437 0.749325 0.241884
H52   H     H_    0.259314 0.600751 0.262798 0.241826
H53   H     H_    0.328830 0.525065 0.289174 0.220706
H54   H     H_    0.241332 0.499888 0.218117 0.246725
H55   H     H_    0.327694 0.507562 0.732684 0.228210
H56   H     H_    0.173948 0.989757 0.301315 0.268229
H57   H     H_    0.255950 0.448077 0.792806 0.243957
H58   H     H_    0.319998 0.404208 0.695005 0.247918
H59   H     H_    0.742468 0.499425 0.219822 0.239751
H60   H     H_    0.735572 0.397511 0.265545 0.239976
H61   H     H_    0.661549 0.466201 0.293152 0.231277
H62   H     H_    0.210566 0.973119 0.447305 0.266779
H63   H     H_    0.741167 0.116603 0.537002 0.173550
H64   H     H_    0.693681 0.196352 0.465140 0.135438
N1    N     N_R   0.500000 0.707230 0.500000 -0.121650
N2    N     N_R   0.500000 0.292770 0.500000 -0.120640
O1    O     O_R   0.389110 0.566570 0.499990 -0.614224
O2    O     O_3   0.628688 0.125132 0.575448 -0.641905
O3    O     O_3   0.592169 0.874794 0.657801 -0.623270
O4    O     O_3   0.371291 0.125218 0.424625 -0.641700
O5    O     O_R   0.610890 0.433430 0.500010 -0.613669
O6    O     O_R   0.610890 0.566570 0.500010 -0.613144
O7    O     O_R   0.389110 0.433430 0.499990 -0.617890
O8    O     O_R   0.500000 0.566540 0.334450 -0.612136
O9    O     O_R   0.500000 0.433460 0.665550 -0.614396
O10   O     O_R   0.500000 0.566540 0.665550 -0.614621
O11   O     O_R   0.500000 0.433460 0.334450 -0.615185
O12   O     O_3   0.407750 0.874772 0.342213 -0.623193
Zn1   Zn    Zn3+2 0.500000 0.588860 0.500000 0.933853
Zn2   Zn    Zn3+2 0.500000 0.411140 0.500000 0.930682

loop_
_geom_bond_atom_site_label_1
_geom_bond_atom_site_label_2
_ccdc_geom_bond_type
O11   Zn2   S    
C55   C56   A    
C42   H22   S    
C8    C13   A    
C42   H24   S    
C13   C43   S    
O10   Zn1   S    
C23   C56   A    
C7    C11   A    
C48   H39   S    
C45   C57   A    
C29   C30   S    
C12   O6    A    
N2    Zn2   S    
C36   C37   S    
C19   C21   T    
C1    O1    A    
C6    O9    A    
C10   C15   A    
C41   H19   S    
C30   C31   S    
C36   H8    S    
C9    C22   A    
C52   H54   S    
C37   H10   S    
C11   C42   S    
C39   H16   S    
C32   O2    S    
C8    C24   A    
C38   H13   S    
C28   C50   S    
C26   C34   A    
C5    O8    A    
O5    Zn2   S    
C29   H1    S    
C51   H50   S    
C34   C57   A    
C47   H38   S    
C2    C27   A    
C39   O4    S    
C44   H29   S    
C25   C47   S    
C31   H56   S    
C53   H58   S    
C26   C48   S    
C27   C45   A    
C23   C25   A    
C38   H11   S    
C45   C53   S    
O9    Zn2   S    
C51   H51   S    
C54   H61   S    
C43   H26   S    
C51   H49   S    
C10   O4    S    
C28   C55   A    
C53   H55   S    
C38   H14   S    
C17   C24   S    
C15   N2    A    
C43   H27   S    
C32   H64   S    
C30   H34   S    
C12   O5    A    
C41   H20   S    
C13   N2    A    
C36   H7    S    
C16   C17   T    
C5    C18   S    
C52   H53   S    
C10   C24   A    
O8    Zn1   S    
C40   H18   S    
C31   H45   S    
C2    C4    S    
C9    C14   A    
C37   C38   S    
C6    C19   S    
C1    C57   S    
C50   H47   S    
C23   C51   S    
C52   H52   S    
C2    C26   A    
C9    O3    S    
C35   H6    S    
C12   C56   S    
C8    O2    S    
C40   C41   S    
C33   H2    S    
C54   H60   S    
C36   O3    S    
C25   C58   A    
C3    C4    T    
C49   H44   S    
C14   C44   S    
C29   H12   S    
C5    O11   A    
C48   H41   S    
C54   C55   S    
C16   C22   S    
C14   N1    A    
C43   H28   S    
C32   H63   S    
C11   N1    A    
C42   H25   S    
C1    O7    A    
C41   H21   S    
C46   H32   S    
C28   C58   A    
C7    C22   A    
C48   H40   S    
N1    Zn1   S    
C34   C52   S    
C40   H17   S    
O1    Zn1   S    
C32   C33   S    
C30   H23   S    
C7    O12   S    
C6    O10   A    
O7    Zn2   S    
C49   H42   S    
C49   H43   S    
C46   H35   S    
C37   H9    S    
C33   C35   S    
C47   H36   S    
C35   H4    S    
C18   C20   T    
C39   H15   S    
C31   H62   S    
C44   H31   S    
C39   C40   S    
C3    C58   S    
C27   C49   S    
C29   O12   S    
C20   C21   S    
C33   H3    S    
C54   H59   S    
C50   H48   S    
C47   H37   S    
C35   H5    S    
C15   C46   S    
C44   H30   S    
O6    Zn1   S    
C46   H33   S    
C50   H46   S    
C53   H57   S    
