data_mof_unit_18658.cif
_audit_creation_date              2012-12-11T17:00:20-0500
_audit_creation_method            fapswitch 2.2
_symmetry_space_group_name_H-M    P1
_symmetry_Int_Tables_number       1
_space_group_crystal_system       triclinic
_cell_length_a                    6.979305
_cell_length_b                    13.59142
_cell_length_c                    20.247341
_cell_angle_alpha                 102.965535
_cell_angle_beta                  89.121775
_cell_angle_gamma                 91.172501
_cell_volume                      1871.16402278

loop_
_atom_site_label
_atom_site_type_symbol
_atom_type_description
_atom_site_fract_x
_atom_site_fract_y
_atom_site_fract_z
_atom_type_partial_charge
O1    O     O_R   0.506770 0.599700 0.449550 -0.544106
O2    O     O_R   0.179980 0.595740 0.587960 -0.528112
O3    O     O_R   0.004580 0.400300 0.550450 -0.541373
C1    C     C_R   0.347707 0.615884 0.615624 0.747395
O4    O     O_R   0.177380 0.611700 0.452380 -0.542307
O5    O     O_R   0.001970 0.416370 0.413900 -0.551645
C2    C     C_R   0.348699 0.638653 0.436074 0.698256
O6    O     O_R   0.509390 0.583630 0.586100 -0.503637
O7    O     O_3   0.337530 0.435890 0.487530 -0.385712
V1    V     V_3+5 0.064660 0.511890 0.502310 1.496601
O8    O     O_R   0.671950 0.404260 0.412040 -0.545906
C3    C     C_R   0.840788 0.383400 0.384617 0.676137
O9    O     O_R   0.674540 0.388300 0.547620 -0.531323
C4    C     C_R   0.841183 0.361146 0.563868 0.749636
V2    V     V_3+5 0.564030 0.488110 0.497690 1.493275
O10   O     O_3   0.841030 0.564110 0.512470 -0.346153
C5    C     C_R   0.761293 0.112641 0.612143 -0.135490
H1    H     H_    0.749680 0.163635 0.519458 0.130476
H2    H     H_    0.725618 0.989773 0.696584 0.110349
H3    H     H_    0.716966 0.036403 0.587747 0.135903
C6    C     C_R   0.840752 0.282934 0.603041 -0.062160
C7    C     C_R   0.918015 0.314059 0.928036 -0.131200
C8    C     C_R   0.936189 0.389318 0.891844 -0.069107
C9    C     C_R   0.913086 0.366452 0.821837 -0.160376
C10   C     C_R   0.869293 0.266596 0.786033 0.074953
C11   C     C_R   0.844149 0.190423 0.823920 0.073643
C12   C     C_R   0.848082 0.240011 0.714096 0.067774
C13   C     C_R   0.792866 0.139436 0.682256 0.132858
C14   C     C_R   0.767371 0.066553 0.720574 -0.200234
C15   C     C_R   0.794584 0.091201 0.790125 -0.194549
C16   C     C_R   0.877634 0.309956 0.672499 -0.172375
C17   C     C_R   0.781375 0.184531 0.573065 -0.169961
C18   C     C_R   0.871586 0.215022 0.894981 -0.102819
H4    H     H_    0.924412 0.386664 0.692551 0.149686
H5    H     H_    0.941003 0.332759 0.982208 0.173858
H6    H     H_    0.929133 0.428967 0.797521 0.154292
H7    H     H_    0.970539 0.466017 0.918144 0.173120
H8    H     H_    0.773780 0.031791 0.817364 0.117460
C19   C     C_R   0.706255 0.183444 0.227220 0.042518
C20   C     C_R   0.864497 0.184679 0.183935 -0.134213
C21   C     C_R   0.020326 0.248847 0.209362 -0.083307
H9    H     H_    0.143258 0.254059 0.177204 0.154242
C22   C     C_R   0.014529 0.311609 0.274965 -0.179456
H10   H     H_    0.133582 0.362888 0.291503 0.124822
C23   C     C_R   0.851235 0.313481 0.316879 -0.084169
C24   C     C_R   0.699239 0.247292 0.291934 0.033013
C25   C     C_3   0.494800 0.272695 0.285259 -0.467218
C26   C     C_3   0.501910 0.203819 0.214715 0.199039
H11   H     H_    0.477459 0.353520 0.284321 0.152355
H12   H     H_    0.400271 0.245294 0.322284 0.174793
H13   H     H_    0.485547 0.243690 0.172858 0.122573
C27   C     C_R   0.513162 0.744677 0.706645 -0.067989
C28   C     C_R   0.352647 0.684535 0.683922 -0.062908
C29   C     C_R   0.197242 0.689084 0.729260 -0.089362
H14   H     H_    0.079594 0.636843 0.716002 0.204994
C30   C     C_R   0.199296 0.754802 0.793800 -0.191742
H15   H     H_    0.081782 0.752468 0.828498 0.192099
C31   C     C_R   0.359289 0.816857 0.815783 -0.074760
C32   C     C_R   0.516775 0.810043 0.771115 -0.096831
C33   C     C_3   0.718356 0.782131 0.782847 0.117023
C34   C     C_3   0.712041 0.709773 0.713057 0.621060
H16   H     H_    0.820624 0.846796 0.786520 0.089679
C35   C     C_R   0.515444 0.874996 0.385108 0.353934
H17   H     H_    0.506715 0.823177 0.477641 0.126869
H18   H     H_    0.638178 0.976539 0.290600 0.134920
C36   C     C_R   0.369855 0.716425 0.396843 -0.110145
C37   C     C_R   0.239786 0.696830 0.075691 -0.195948
C38   C     C_R   0.186251 0.627822 0.114103 0.454862
C39   C     C_R   0.230970 0.646471 0.182634 -0.204558
C40   C     C_R   0.334819 0.734626 0.214488 0.041693
C41   C     C_R   0.397367 0.802490 0.173811 0.072147
C42   C     C_R   0.375168 0.758500 0.285492 0.066790
C43   C     C_R   0.477872 0.849582 0.314389 0.047785
C44   C     C_R   0.548323 0.910731 0.271827 -0.220896
C45   C     C_R   0.507687 0.888076 0.203231 -0.158862
C46   C     C_R   0.320093 0.693794 0.328611 -0.220681
C47   C     C_R   0.467416 0.806273 0.424633 -0.159863
C48   C     C_R   0.344290 0.784310 0.104705 -0.155279
H19   H     H_    0.248133 0.622250 0.310312 0.109338
H20   H     H_    0.195891 0.683383 0.023242 0.143959
H21   H     H_    0.179733 0.590836 0.209288 0.142643
H22   H     H_    0.564745 0.938861 0.173416 0.154747
O11   O     O_R   0.203450 0.916320 0.913910 -0.546507
O12   O     O_R   0.535520 0.888300 0.047620 -0.540821
O13   O     O_R   0.710860 0.083650 0.086100 -0.538641
C49   C     C_R   0.364643 0.862537 0.065133 0.732643
O14   O     O_R   0.532860 0.904250 0.912040 -0.525191
O15   O     O_R   0.708190 0.099710 0.949550 -0.542399
C50   C     C_R   0.365113 0.882912 0.884830 0.705480
O16   O     O_R   0.206120 0.900260 0.050460 -0.535302
O17   O     O_3   0.375280 0.064080 0.012470 -0.369189
V3    V     V_3+5 0.648180 0.988110 0.997690 1.492346
O18   O     O_R   0.038220 0.111740 0.952370 -0.542809
C51   C     C_R   0.871718 0.137372 0.934915 0.680956
O19   O     O_R   0.040880 0.095790 0.087940 -0.527760
C52   C     C_R   0.871938 0.117983 0.114936 0.704171
V4    V     V_3+5 0.148800 0.011950 0.002300 1.490518
O20   O     O_3   0.871820 0.935920 0.987530 -0.364393
O21   O     O_3   0.383499 0.117024 0.207013 -0.637939
H23   H     H_    0.389735 0.090756 0.248847 0.295739
O22   O     O_3   0.735042 0.734306 0.837587 -0.624552
H24   H     H_    0.623861 0.687684 0.838024 0.333297
Cl1   Cl    Cl    0.720853 0.577549 0.713444 -0.709364
O23   O     O_3   0.838242 0.736052 0.664637 -0.637594
H25   H     H_    0.824512 0.808954 0.665636 0.246973
O24   O     O_3   0.603182 0.964404 0.417340 -0.653783
H26   H     H_    0.560498 0.018741 0.395909 0.273106
Cl2   Cl    Cl    0.052931 0.519265 0.077037 -0.715816

loop_
_geom_bond_atom_site_label_1
_geom_bond_atom_site_label_2
_ccdc_geom_bond_type
O18   C51   A    
C1    C28   S    
C43   C44   A    
O19   C52   A    
C46   H19   S    
C42   C46   A    
C18   C51   S    
V4    O20   S    
V3    O20   S    
C25   H11   S    
C28   C29   A    
C7    H5    S    
C6    C16   A    
C9    H6    S    
C4    C6    S    
C13   C14   A    
C34   Cl1   S    
O12   C49   A    
C27   C34   S    
O5    C3    A    
O13   C52   A    
O24   H26   S    
V2    O10   S    
C5    H3    S    
C30   H15   S    
C15   H8    S    
C33   H16   S    
C21   H9    S    
C26   O21   S    
C29   H14   S    
O8    V2    S    
C26   H13   S    
O21   H23   S    
C38   C39   A    
C8    C9    A    
C40   C41   A    
O1    V2    S    
O7    V1    S    
O16   V4    S    
C1    O6    A    
C48   C49   S    
C32   C33   S    
O9    C4    A    
C21   C22   A    
C37   C48   A    
C20   C52   S    
O23   H25   S    
O13   V3    S    
C25   H12   S    
C29   C30   A    
O11   C50   A    
C6    C17   A    
O15   C51   A    
C44   C45   A    
C12   C16   A    
C37   C38   A    
O22   H24   S    
O15   V3    S    
C34   O23   S    
C9    C10   A    
C49   O16   A    
O17   V3    S    
O4    C2    A    
C42   C43   A    
C35   C43   A    
C10   C11   A    
C8    H7    S    
H18   C44   S    
C33   C34   S    
O2    C1    A    
C22   H10   S    
C14   C15   A    
C27   C32   A    
C11   C18   A    
C25   C26   S    
C36   C46   A    
C16   H4    S    
O17   V4    S    
C35   O24   S    
C22   C23   A    
O3    C4    A    
C19   C24   A    
C20   C21   A    
C11   C15   A    
O6    V2    S    
O14   C50   A    
H1    C17   S    
C33   O22   S    
O2    V1    S    
O18   V4    S    
C19   C20   A    
C27   C28   A    
C35   C47   A    
C5    C17   A    
C7    C18   A    
C24   C25   S    
O1    C2    A    
C5    C13   A    
C37   H20   S    
C3    C23   S    
O5    V1    S    
O8    C3    A    
O19   V4    S    
C45   H22   S    
C10   C12   A    
C38   Cl2   S    
O9    V2    S    
C31   C32   A    
O4    V1    S    
O3    V1    S    
V1    O10   S    
C2    C36   S    
C41   C45   A    
C30   C31   A    
C36   C47   A    
O7    V2    S    
C39   C40   A    
C31   C50   S    
C39   H21   S    
C23   C24   A    
O11   V4    S    
C12   C13   A    
H17   C47   S    
C7    C8    A    
C40   C42   A    
O12   V3    S    
O14   V3    S    
C41   C48   A    
C19   C26   S    
H2    C14   S    
