data_mof_unit_65591.cif
_audit_creation_date              2013-03-05T15:56:56-0500
_audit_creation_method            fapswitch 2.2
_symmetry_space_group_name_H-M    P1
_symmetry_Int_Tables_number       1
_space_group_crystal_system       triclinic
_cell_length_a                    18.704761
_cell_length_b                    18.635618
_cell_length_c                    18.833446
_cell_angle_alpha                 109.416332
_cell_angle_beta                  109.522001
_cell_angle_gamma                 109.293933
_cell_volume                      5064.90164325

loop_
_atom_site_label
_atom_site_type_symbol
_atom_site_description
_atom_site_fract_x
_atom_site_fract_y
_atom_site_fract_z
_atom_type_partial_charge
O1    O     O_R   0.091590 0.143330 0.551700 -0.630336
O2    O     O_R   0.091620 0.039900 0.448280 -0.556932
C1    C     C_R   0.117469 0.120361 0.497577 0.959592
O3    O     O_R   0.091610 0.051730 0.643330 -0.607476
O4    O     O_R   0.091640 0.948310 0.539920 -0.575275
C2    C     C_R   0.120256 0.999756 0.619459 1.032296
Zn1   Zn    Zn3+2 0.999980 0.069060 0.569050 1.068308
Zn2   Zn    Zn3+2 0.000020 0.930940 0.430950 1.107415
O5    O     O_R   0.908380 0.960100 0.551720 -0.602376
O6    O     O_R   0.908410 0.856670 0.448300 -0.637769
O7    O     O_R   0.908360 0.051690 0.460080 -0.623877
O8    O     O_R   0.908390 0.948270 0.356670 -0.589284
C3    C     C_R   0.878974 0.879579 0.499084 0.955118
C4    C     C_R   0.881013 0.001402 0.380158 0.882977
C5    C     C_R   0.306904 0.108324 0.680996 0.324941
C6    C     C_R   0.393951 0.179459 0.728857 0.364775
C7    C     C_R   0.444078 0.208798 0.816490 -0.213010
H1    H     H_    0.506418 0.268975 0.854969 0.231861
C8    C     C_R   0.415543 0.161198 0.854620 0.237168
C9    C     C_R   0.336163 0.079707 0.802046 -0.079979
C10   C     C_R   0.276275 0.062394 0.721201 -0.055357
C11   C     C_R   0.187610 0.999772 0.684204 -0.153252
C12   C     C_R   0.162677 0.942850 0.715836 0.265849
H2    H     H_    0.208771 0.898778 0.802747 0.214391
C13   C     C_R   0.227059 0.947245 0.783047 -0.167056
C14   C     C_R   0.313725 0.013959 0.825677 -0.095581
C15   C     C_R   0.177744 0.179037 0.417917 0.334427
C16   C     C_R   0.244842 0.243903 0.421840 -0.259130
H3    H     H_    0.243390 0.238550 0.362180 0.201027
C17   C     C_R   0.313208 0.316399 0.501941 -0.192388
C18   C     C_R   0.316186 0.326065 0.580364 0.344084
C19   C     C_R   0.249921 0.260504 0.576560 -0.277400
H4    H     H_    0.251535 0.266166 0.636348 0.212410
C20   C     C_R   0.181739 0.187537 0.496464 -0.225265
C21   C     C_R   0.744062 0.922131 0.245871 -0.263015
H5    H     H_    0.739135 0.861763 0.243861 0.201712
C22   C     C_R   0.679069 0.918380 0.179320 0.331095
C23   C     C_R   0.686776 0.997786 0.183901 -0.220628
C24   C     C_R   0.759059 0.078543 0.252273 -0.174523
H6    H     H_    0.764479 0.139229 0.254818 0.194545
C25   C     C_R   0.825174 0.082249 0.317288 0.503224
C26   C     C_R   0.816234 0.002872 0.314204 -0.175364
C27   C     C_R   0.808841 0.732656 0.478882 -0.201394
H7    H     H_    0.856001 0.720119 0.463684 0.177753
C28   C     C_R   0.745738 0.668974 0.480747 0.421024
C29   C     C_R   0.686241 0.687562 0.501629 -0.195942
C30   C     C_R   0.688937 0.768562 0.520687 0.244712
C31   C     C_R   0.752421 0.830925 0.518422 -0.218605
H8    H     H_    0.756049 0.893890 0.533478 0.205216
C32   C     C_R   0.812069 0.813089 0.498242 -0.110711
O9    O     O_R   0.448330 0.856720 0.908450 -0.585639
O10   O     O_R   0.551760 0.960180 0.908450 -0.594497
C33   C     C_R   0.499173 0.879923 0.879221 1.035746
O11   O     O_R   0.356660 0.948290 0.908410 -0.620558
O12   O     O_R   0.460090 0.051750 0.908420 -0.607513
C34   C     C_R   0.379928 0.005922 0.885345 0.969990
Zn3   Zn    Zn3+2 0.430940 0.930960 0.000040 1.151096
Zn4   Zn    Zn3+2 0.569060 0.069120 0.000040 1.131209
O13   O     O_R   0.448250 0.039900 0.091630 -0.607787
O14   O     O_R   0.551680 0.143360 0.091630 -0.541436
O15   O     O_R   0.539910 0.948330 0.091670 -0.569073
O16   O     O_R   0.643340 0.051790 0.091670 -0.629115
C35   C     C_R   0.502780 0.120751 0.123100 0.978184
C36   C     C_R   0.620224 0.998853 0.119087 0.957801
O17   O     O_R   0.448280 0.591700 0.540000 -0.610984
O18   O     O_R   0.551730 0.591680 0.643420 -0.605480
C37   C     C_R   0.499293 0.619881 0.620118 1.004932
O19   O     O_R   0.356670 0.408480 0.448390 -0.625452
O20   O     O_R   0.460120 0.408460 0.551810 -0.589121
C38   C     C_R   0.379896 0.381004 0.501080 0.913568
Zn5   Zn    Zn3+2 0.430920 0.500100 0.431040 1.067617
Zn6   Zn    Zn3+2 0.569080 0.500080 0.569140 1.110939
O21   O     O_R   0.448270 0.408490 0.356760 -0.617570
O22   O     O_R   0.551720 0.408480 0.460170 -0.596388
O23   O     O_R   0.539880 0.591710 0.448370 -0.611451
O24   O     O_R   0.643330 0.591700 0.551790 -0.580820
C39   C     C_R   0.498322 0.378325 0.380663 0.896421
C40   C     C_R   0.620012 0.620633 0.500597 1.001935
C41   C     C_R   0.575839 0.811019 0.829522 0.456219
C42   C     C_R   0.575288 0.745872 0.765708 -0.209084
H9    H     H_    0.634687 0.742612 0.777718 0.170283
C43   C     C_R   0.498612 0.685882 0.685987 -0.087985
C44   C     C_R   0.421583 0.689169 0.668965 -0.180846
H10   H     H_    0.362669 0.642162 0.606568 0.203463
C45   C     C_R   0.420364 0.753415 0.731651 0.234074
C46   C     C_R   0.498149 0.814015 0.812057 -0.191670
C47   C     C_R   0.535701 0.272998 0.204859 0.488010
C48   C     C_R   0.528738 0.333231 0.265208 -0.307125
H11   H     H_    0.549451 0.398700 0.273879 0.177889
C49   C     C_R   0.497474 0.310804 0.316204 -0.217457
C50   C     C_R   0.473642 0.228122 0.310247 0.385266
C51   C     C_R   0.480733 0.167048 0.250106 0.219990
C52   C     C_R   0.507600 0.188099 0.194330 -0.300020
N1    N     N_R   0.072986 0.878304 0.678388 0.195858
O25   O     O_R   0.012952 0.900756 0.666532 -0.401862
O26   O     O_R   0.053399 0.800750 0.669151 -0.336638
N2    N     N_R   0.608318 0.834279 0.106830 0.229180
O27   O     O_R   0.579032 0.767968 0.118648 -0.336631
O28   O     O_R   0.582183 0.820293 0.027817 -0.350172
O29   O     O_3   0.896985 0.163764 0.380495 -0.713761
H12   H     H_    0.946990 0.157010 0.410098 0.353035
O30   O     O_3   0.739786 0.588082 0.461188 -0.745197
H13   H     H_    0.786167 0.586025 0.447585 0.353966
N3    N     N_R   0.629946 0.789273 0.544755 0.225827
O31   O     O_R   0.610331 0.767266 0.597218 -0.414644
O32   O     O_R   0.605797 0.840986 0.524570 -0.331475
O33   O     O_3   0.650488 0.871377 0.909479 -0.713195
H14   H     H_    0.698679 0.859420 0.910875 0.354566
O34   O     O_3   0.252957 0.079245 0.594865 -0.761292
H15   H     H_    0.276762 0.123694 0.579426 0.337958
N4    N     N_R   0.341132 0.757781 0.711894 0.225863
O35   O     O_R   0.343793 0.833060 0.735909 -0.404693
O36   O     O_R   0.265543 0.686415 0.659564 -0.324046
O37   O     O_3   0.569876 0.296032 0.156148 -0.641043
H16   H     H_    0.586288 0.357817 0.172225 0.355749
O38   O     O_3   0.445300 0.205316 0.362695 -0.675432
H17   H     H_    0.429852 0.247621 0.392047 0.323900
N5    N     N_R   0.464367 0.085459 0.248758 0.260907
O39   O     O_R   0.523595 0.061953 0.257080 -0.371590
O40   O     O_R   0.393997 0.038472 0.247125 -0.268601
O41   O     O_3   0.431028 0.223859 0.693622 -0.704394
H18   H     H_    0.412861 0.180348 0.634394 0.350182
N6    N     N_R   0.461774 0.201477 0.947528 0.242828
O42   O     O_R   0.418752 0.190621 0.988479 -0.385729
O43   O     O_R   0.545023 0.258005 0.991871 -0.337781
N7    N     N_R   0.105369 0.107529 0.334524 0.225628
O44   O     O_R   0.117926 0.077899 0.269367 -0.329501
O45   O     O_R   0.025637 0.080883 0.319979 -0.396894
N8    N     N_R   0.383481 0.402463 0.663154 0.230871
O46   O     O_R   0.409306 0.480262 0.671644 -0.391213
O47   O     O_R   0.409392 0.395578 0.732663 -0.312093

loop_
_geom_bond_atom_site_label_1
_geom_bond_atom_site_label_2
_geom_bond_distance
_ccdc_geom_bond_type
Zn4   O16   2.019253 S    
C47   C48   1.384219 A    
N7    O44   1.301426 A    
O15   C36   1.278100 A    
C25   C26   1.411534 A    
C5    O34   1.379658 S    
C8    C9    1.420870 A    
Zn6   O24   2.014459 S    
C22   N2    1.439033 S    
O37   H16   0.992041 S    
N6    O42   1.301643 A    
C24   C25   1.381568 A    
C45   C46   1.410702 A    
O38   H17   0.989019 S    
Zn1   O7    2.023525 S    
C8    N6    1.435091 S    
O14   C35   1.280258 A    
C16   H3    1.084654 S    
C21   C22   1.385994 A    
O24   C40   1.276906 A    
O20   C38   1.278964 A    
C17   C18   1.406614 A    
C15   N7    1.438931 S    
Zn3   O13   2.016412 S    
Zn4   O14   2.020040 S    
C5    C6    1.420974 A    
C2    C11   1.430676 S    
C50   O38   1.384774 S    
C21   C26   1.397053 A    
C51   N5    1.437971 S    
N5    O39   1.301557 A    
C51   C52   1.416468 A    
C47   O37   1.380913 S    
O5    C3    1.279876 A    
N2    O28   1.301172 A    
O18   Zn6   2.014471 S    
C44   H10   1.083915 S    
C6    C7    1.388897 A    
O17   C37   1.281716 A    
O22   C39   1.275011 A    
O16   C36   1.277798 A    
O33   H14   0.991796 S    
C33   C46   1.429787 S    
O9    Zn3   2.020167 S    
C4    C26   1.431933 S    
C31   C32   1.394333 A    
O18   C37   1.279484 A    
C10   C11   1.416311 A    
N1    O25   1.300341 A    
O3    Zn1   2.015583 S    
N3    O32   1.301447 A    
N3    O31   1.300510 A    
C17   C38   1.428211 S    
N2    O27   1.301408 A    
C23   C36   1.434235 S    
C15   C20   1.407677 A    
C23   C24   1.397993 A    
O11   C34   1.288126 A    
C39   C49   1.419732 S    
H2    C13   1.083484 S    
Zn6   O22   2.022461 S    
C24   H6    1.084654 S    
C29   C40   1.427371 S    
C7    C8    1.397940 A    
C1    C20   1.432677 S    
C13   C14   1.397444 A    
C28   C29   1.403526 A    
C41   C42   1.389891 A    
O1    C1    1.277951 A    
C21   H5    1.084623 S    
C19   C20   1.398379 A    
O20   Zn6   2.015150 S    
C6    O41   1.378192 S    
C22   C23   1.408472 A    
C30   C31   1.384698 A    
Zn2   O8    2.015581 S    
O12   C34   1.279834 A    
C7    H1    1.083166 S    
C25   O29   1.381878 S    
C41   O33   1.383179 S    
N4    O36   1.301449 A    
C48   H11   1.085447 S    
N1    O26   1.301394 A    
C27   C28   1.390162 A    
O41   H18   0.990177 S    
O10   Zn4   2.016498 S    
C42   C43   1.395111 A    
C31   H8    1.084043 S    
C44   C45   1.387102 A    
C48   C49   1.385553 A    
C27   H7    1.084029 S    
O3    C2    1.281323 A    
C50   C51   1.392469 A    
O10   C33   1.275160 A    
Zn5   O21   2.014597 S    
N8    O46   1.300914 A    
Zn1   O5    2.012905 S    
C29   C30   1.409708 A    
N7    O45   1.301145 A    
C30   N3    1.439211 S    
N4    O35   1.300790 A    
O1    Zn1   2.016500 S    
C18   C19   1.384137 A    
O2    Zn2   2.012906 S    
O8    C4    1.278103 A    
C42   H9    1.083989 S    
C45   N4    1.439681 S    
O6    C3    1.279057 A    
C14   C34   1.457086 S    
O4    Zn2   2.023527 S    
C27   C32   1.394786 A    
Zn3   O15   2.019680 S    
C35   C52   1.451878 S    
O13   C35   1.283937 A    
C12   N1    1.438905 S    
C19   H4    1.084502 S    
C16   C17   1.396512 A    
O2    C1    1.280398 A    
C18   N8    1.438992 S    
O17   Zn5   2.022332 S    
O34   H15   0.985841 S    
Zn5   O23   2.015064 S    
C49   C50   1.408267 A    
O4    C2    1.272716 A    
C9    C14   1.422318 A    
O19   Zn5   2.014457 S    
C47   C52   1.411037 A    
O29   H12   0.988672 S    
O7    C4    1.279197 A    
C12   C13   1.380682 A    
O30   H13   0.991830 S    
O23   C40   1.277852 A    
N5    O40   1.301383 A    
N6    O43   1.301473 A    
C28   O30   1.383140 S    
C3    C32   1.432021 S    
C5    C10   1.425131 A    
C9    C10   1.404233 A    
C37   C43   1.434717 S    
Zn2   O6    2.016503 S    
C43   C44   1.394680 A    
O12   Zn4   2.019591 S    
C15   C16   1.384898 A    
O19   C38   1.277628 A    
O21   C39   1.276526 A    
C11   C12   1.405918 A    
O9    C33   1.277026 A    
C41   C46   1.403354 A    
N8    O47   1.301466 A    
O11   Zn3   2.019251 S    
