data_mof_unit_22163.cif
_audit_creation_date              2012-12-10T18:35:17-0500
_audit_creation_method            fapswitch 2.2
_symmetry_space_group_name_H-M    P1
_symmetry_Int_Tables_number       1
_space_group_crystal_system       triclinic
_cell_length_a                    14.957392
_cell_length_b                    15.47781
_cell_length_c                    16.924289
_cell_angle_alpha                 92.025698
_cell_angle_beta                  100.212265
_cell_angle_gamma                 97.381559
_cell_volume                      3817.28659499

loop_
_atom_site_label
_atom_site_type_symbol
_atom_type_description
_atom_site_fract_x
_atom_site_fract_y
_atom_site_fract_z
_atom_type_partial_charge
C1    C     C_R   0.557215 0.662303 0.509393 0.881453
C2    C     C_R   0.442953 0.337592 0.486607 0.878023
C3    C     C_R   0.591092 0.753794 0.501275 -0.071477
C4    C     C_R   0.409624 0.245037 0.467073 -0.059022
C5    C     C_R   0.711342 0.869554 0.487175 -0.152599
C6    C     C_R   0.287671 0.124952 0.426195 -0.164242
C7    C     C_R   0.684081 0.783162 0.502878 -0.153812
C8    C     C_R   0.315885 0.213551 0.446582 -0.180578
C9    C     C_R   0.526259 0.810581 0.482922 -0.239196
C10   C     C_R   0.474381 0.188255 0.464426 -0.241217
C11   C     C_R   0.551143 0.895360 0.462157 0.099136
C12   C     C_R   0.447920 0.099895 0.441983 0.095737
C13   C     C_R   0.645545 0.926238 0.467935 0.152709
C14   C     C_R   0.353015 0.067589 0.425606 0.157183
C15   C     C_R   0.484447 0.951609 0.441134 0.070221
C16   C     C_R   0.513875 0.042003 0.442059 0.069707
C17   C     C_R   0.608195 0.071235 0.444810 -0.207053
C18   C     C_R   0.389472 0.920694 0.420335 -0.202477
C19   C     C_R   0.672729 0.013520 0.455875 -0.194160
C20   C     C_R   0.324878 0.978264 0.411130 -0.188699
C21   C     C_R   0.171746 0.647326 0.393184 -0.206653
C22   C     C_R   0.832346 0.364686 0.620133 -0.207985
C23   C     C_R   0.509638 0.494406 0.349605 0.870098
C24   C     C_R   0.490197 0.505208 0.650393 0.881705
C25   C     C_R   0.256788 0.618668 0.406621 -0.005234
C26   C     C_R   0.744623 0.386138 0.598527 -0.006755
C27   C     C_R   0.206161 0.510206 0.489982 -0.017098
C28   C     C_R   0.794793 0.491529 0.512204 -0.025924
C29   C     C_R   0.118279 0.536978 0.480295 -0.021304
C30   C     C_R   0.886393 0.474963 0.533311 -0.014471
C31   C     C_R   0.101216 0.607528 0.430274 0.011724
C32   C     C_R   0.904726 0.408380 0.587635 0.028234
C33   C     C_R   0.047753 0.495745 0.518189 0.031622
C34   C     C_R   0.958954 0.521318 0.501201 0.009112
C35   C     C_R   0.945581 0.593763 0.454213 -0.294226
C36   C     C_R   0.063895 0.430706 0.573456 -0.311988
C37   C     C_R   0.014811 0.637006 0.419330 0.456329
C38   C     C_R   0.994550 0.387475 0.608234 0.395927
C39   C     C_R   0.508682 0.478523 0.264575 -0.042799
C40   C     C_R   0.490255 0.519073 0.735506 -0.053636
C41   C     C_R   0.424281 0.459752 0.211596 -0.156503
C42   C     C_R   0.574174 0.535938 0.789341 -0.150368
C43   C     C_R   0.422388 0.445296 0.130186 -0.041556
C44   C     C_R   0.575074 0.548230 0.870814 -0.057621
C45   C     C_R   0.504715 0.451196 0.101622 0.113187
C46   C     C_R   0.492225 0.542099 0.898557 0.136958
C47   C     C_R   0.589068 0.464360 0.154318 -0.115471
C48   C     C_R   0.408392 0.530457 0.845167 -0.051971
C49   C     C_R   0.591130 0.477916 0.236110 -0.144149
C50   C     C_R   0.407324 0.519020 0.763338 -0.149534
C51   C     C_2   0.502599 0.457598 0.016448 0.163960
C52   C     C_2   0.493286 0.535291 0.983537 0.239691
H1    H     H_    0.359870 0.457384 0.232838 0.165010
H2    H     H_    0.638944 0.538566 0.768683 0.167675
H3    H     H_    0.633579 0.138214 0.436685 0.153912
H4    H     H_    0.363503 0.852124 0.409344 0.152330
H5    H     H_    0.773142 0.537319 0.468915 0.132103
H6    H     H_    0.225684 0.457013 0.525229 0.125690
H7    H     H_    0.688964 0.353357 0.624000 0.156268
H8    H     H_    0.311877 0.650546 0.379879 0.145313
H9    H     H_    0.163003 0.700748 0.354499 0.218454
H10   H     H_    0.841941 0.314382 0.662175 0.224472
H11   H     H_    0.881890 0.620220 0.445468 0.196515
H12   H     H_    0.131137 0.413344 0.592671 0.172226
H13   H     H_    0.342016 0.507351 0.722342 0.168648
H14   H     H_    0.656785 0.490825 0.276508 0.163371
H15   H     H_    0.652751 0.468986 0.131632 0.158583
H16   H     H_    0.344307 0.525666 0.867212 0.165797
H17   H     H_    0.639877 0.557648 0.912612 0.158741
H18   H     H_    0.357186 0.434754 0.088954 0.162701
H19   H     H_    0.744438 0.038026 0.458263 0.166043
H20   H     H_    0.252644 0.952500 0.396374 0.184280
H21   H     H_    0.545876 0.213432 0.483342 0.162796
H22   H     H_    0.455993 0.788194 0.486905 0.163115
H23   H     H_    0.264680 0.256980 0.447164 0.161642
H24   H     H_    0.735291 0.739585 0.515771 0.173550
H25   H     H_    0.783598 0.892070 0.490199 0.166486
H26   H     H_    0.214970 0.101013 0.412498 0.158312
N1    N     N_R   0.271750 0.551950 0.454510 -0.105016
N2    N     N_R   0.728250 0.448050 0.545490 -0.107487
O1    O     O_R   0.615140 0.606020 0.522930 -0.617430
O2    O     O_R   0.384860 0.393980 0.477070 -0.622058
O3    O     O_R   0.468580 0.639400 0.493740 -0.619740
O4    O     O_R   0.531420 0.360600 0.506260 -0.621482
O5    O     O_R   0.581950 0.481350 0.400520 -0.623064
O6    O     O_R   0.418050 0.518650 0.599480 -0.617545
O7    O     O_R   0.435380 0.514730 0.371330 -0.615937
O8    O     O_R   0.564620 0.485270 0.628670 -0.613918
Zn1   Zn    Zn3+2 0.597860 0.477710 0.519490 0.958458
Zn2   Zn    Zn3+2 0.402140 0.522290 0.480510 0.958558
S1    S     S_3+6 0.989919 0.728491 0.362873 0.012391
O9    O     O_2   0.057650 0.806875 0.397132 -0.317266
O10   O     O_2   0.997770 0.709331 0.276867 -0.278102
O11   O     O_3   0.883235 0.750499 0.365928 -0.566900
H27   H     H_    0.877002 0.803459 0.335333 0.396377
S2    S     S_3+6 0.023683 0.306812 0.676940 0.040710
O12   O     O_2   0.001522 0.331978 0.757124 -0.230718
O13   O     O_2   0.968573 0.220195 0.646289 -0.305834
O14   O     O_3   0.136031 0.296992 0.689492 -0.507488
H28   H     H_    0.142774 0.262169 0.641171 0.355972
S3    S     S_3+6 0.483046 0.632005 0.038956 0.024352
O15   O     O_2   0.392661 0.621711 0.067107 -0.295138
O16   O     O_2   0.559687 0.649533 0.110501 -0.277491
O17   O     O_3   0.487795 0.716826 0.979690 -0.524885
H29   H     H_    0.477179 0.767123 0.013045 0.398822
S4    S     S_3+6 0.511984 0.360752 0.960765 0.041545
O18   O     O_2   0.434843 0.343748 0.889612 -0.228369
O19   O     O_2   0.601641 0.370173 0.931354 -0.298318
O20   O     O_3   0.506854 0.275215 0.019201 -0.488001
H30   H     H_    0.566514 0.282917 0.056809 0.358038

loop_
_geom_bond_atom_site_label_1
_geom_bond_atom_site_label_2
_ccdc_geom_bond_type
C15   C18   A    
S3    O15   D    
C29   C33   A    
C27   C29   A    
C19   H19   S    
C4    C8    A    
C39   C41   A    
C28   H5    S    
C21   C31   A    
C22   C32   A    
C35   C37   A    
C3    C7    A    
C10   H21   S    
C23   C39   S    
C6    H26   S    
C6    C14   A    
S4    O18   D    
C45   C51   S    
C1    O1    A    
C15   C16   A    
S2    O14   S    
C46   C52   S    
C33   C36   A    
C34   C35   A    
N2    Zn1   S    
N1    Zn2   S    
C24   C40   S    
C11   C15   A    
C2    O4    A    
C12   C16   A    
C16   C17   A    
S2    O13   D    
C25   H8    S    
C32   C38   A    
C26   H7    S    
C17   H3    S    
C21   H9    S    
C18   H4    S    
O1    Zn1   S    
C40   C42   A    
O4    Zn1   S    
S3    O16   D    
C23   O7    A    
C41   C43   A    
C42   C44   A    
C47   H15   S    
O17   H29   S    
C44   C46   A    
C45   C47   A    
C46   C48   A    
C52   S3    S    
C49   H14   S    
C13   C19   A    
C51   C52   D    
C14   C20   A    
C47   C49   A    
O6    Zn2   S    
S1    O9    D    
C5    C7    A    
C30   C34   A    
C6    C8    A    
S1    O10   D    
C8    H23   S    
C26   N2    A    
C31   C37   A    
C1    C3    S    
C2    C4    S    
C3    C9    A    
C22   H10   S    
C9    C11   A    
O14   H28   S    
S2    O12   D    
C33   C34   A    
C44   H17   S    
C48   H16   S    
C43   C45   A    
C41   H1    S    
C10   C12   A    
C39   C49   A    
C12   C14   A    
C43   H18   S    
C23   O5    A    
C2    O2    A    
C1    O3    A    
C9    H22   S    
C5    H25   S    
O3    Zn2   S    
C21   C25   A    
O5    Zn1   S    
C25   N1    A    
C5    C13   A    
C24   O8    A    
C4    C10   A    
C27   H6    S    
C7    H24   S    
S3    O17   S    
C27   N1    A    
O2    Zn2   S    
C36   C38   A    
C28   C30   A    
C29   C31   A    
O20   H30   S    
C42   H2    S    
S1    O11   S    
C30   C32   A    
C11   C13   A    
S4    O19   D    
C51   S4    S    
C40   C50   A    
C48   C50   A    
C17   C19   A    
C18   C20   A    
O11   H27   S    
C28   N2    A    
C50   H13   S    
O8    Zn1   S    
C22   C26   A    
O7    Zn2   S    
C38   S2    S    
C20   H20   S    
C35   H11   S    
C36   H12   S    
C24   O6    A    
C37   S1    S    
S4    O20   S    
