data_mof_unit_31052.cif
_audit_creation_date              2012-12-10T18:21:16-0500
_audit_creation_method            fapswitch 2.2
_symmetry_space_group_name_H-M    P1
_symmetry_Int_Tables_number       1
_space_group_crystal_system       triclinic
_cell_length_a                    14.88563
_cell_length_b                    14.20827
_cell_length_c                    10.685965
_cell_angle_alpha                 90.099333
_cell_angle_beta                  87.168443
_cell_angle_gamma                 89.941917
_cell_volume                      2257.30732281

loop_
_atom_site_label
_atom_site_type_symbol
_atom_type_description
_atom_site_fract_x
_atom_site_fract_y
_atom_site_fract_z
_atom_type_partial_charge
C1    C     C_R   0.327332 0.499993 0.502042 0.894249
C2    C     C_3   0.597502 0.500383 0.913447 -0.382395
C3    C     C_R   0.817983 0.494816 0.387927 -0.255452
C4    C     C_R   0.767631 0.499935 0.500706 -0.037086
C5    C     C_R   0.807355 0.505208 0.615408 -0.261968
C6    C     C_R   0.900260 0.505108 0.618259 0.152099
C7    C     C_R   0.952657 0.500369 0.504561 0.067324
C8    C     C_R   0.910955 0.495284 0.388820 0.056576
C9    C     C_R   0.941214 0.509333 0.732644 -0.232049
C10   C     C_R   0.034226 0.508598 0.735390 -0.208654
C11   C     C_R   0.088103 0.504052 0.623194 0.136167
C12   C     C_R   0.502501 0.499939 0.257580 0.815499
C13   C     C_R   0.046339 0.500179 0.506623 -0.062233
C14   C     C_R   0.097942 0.495678 0.392015 -0.000690
C15   C     C_R   0.056011 0.492080 0.276729 0.549066
C16   C     C_R   0.962410 0.490436 0.276155 -0.320820
C17   C     C_R   0.182471 0.503245 0.624157 0.174306
C18   C     C_R   0.231728 0.499800 0.508286 -0.041989
C19   C     C_R   0.190698 0.495589 0.394673 -0.274796
C20   C     C_R   0.573457 0.799763 0.451250 0.162237
C21   C     C_R   0.573675 0.199947 0.452011 0.161317
C22   C     C_R   0.425887 0.798875 0.547607 0.553905
C23   C     C_R   0.425492 0.201387 0.546401 0.553564
C24   C     C_R   0.422742 0.899395 0.542652 -0.089288
C25   C     C_R   0.422629 0.100854 0.542328 -0.088011
C26   C     C_R   0.672643 0.499964 0.499019 0.867522
C27   C     C_R   0.500574 0.949657 0.504667 0.019977
C28   C     C_R   0.500581 0.050339 0.504761 0.019804
C29   C     C_R   0.577640 0.899497 0.462541 0.019956
C30   C     C_R   0.577734 0.100214 0.462968 0.020573
C31   C     C_R   0.343659 0.950805 0.573484 -0.185206
C32   C     C_R   0.343591 0.049638 0.573279 -0.180457
C33   C     C_R   0.656328 0.048769 0.429496 -0.189398
C34   C     C_R   0.656263 0.950656 0.429187 -0.190315
C35   C     C_R   0.496374 0.500069 0.742118 0.822530
C36   C     C_3   0.450861 0.587524 0.076253 -0.432265
C37   C     C_3   0.450027 0.413057 0.075862 -0.427462
C38   C     C_3   0.450904 0.589064 0.933620 -0.428245
C39   C     C_3   0.451132 0.411100 0.933158 -0.425878
C40   C     C_3   0.603677 0.499272 0.058399 0.424624
C41   C     C_3   0.503786 0.499901 0.120347 0.177382
C42   C     C_3   0.498332 0.500144 0.878261 0.133544
H1    H     H_    0.479180 0.654670 0.110178 0.192951
H2    H     H_    0.477120 0.345535 0.110376 0.193457
H3    H     H_    0.062873 0.511694 0.826302 0.168858
H4    H     H_    0.232068 0.492617 0.308171 0.175627
H5    H     H_    0.930175 0.485310 0.187587 0.163679
H6    H     H_    0.280859 0.914963 0.596199 0.175282
H7    H     H_    0.280738 0.085582 0.595898 0.177029
H8    H     H_    0.719027 0.083663 0.403403 0.155051
H9    H     H_    0.718903 0.915532 0.402846 0.153916
H10   H     H_    0.380080 0.585164 0.115336 0.175522
H11   H     H_    0.379060 0.416816 0.113990 0.184929
H12   H     H_    0.380505 0.592725 0.903881 0.169712
H13   H     H_    0.380985 0.406937 0.902416 0.173044
H14   H     H_    0.487343 0.653223 0.900370 0.183184
H15   H     H_    0.488220 0.347009 0.900350 0.182962
H16   H     H_    0.631620 0.563351 0.871064 0.154699
H17   H     H_    0.632561 0.438594 0.868851 0.155983
H18   H     H_    0.784808 0.490899 0.300159 0.134126
H19   H     H_    0.765816 0.508975 0.701682 0.121452
H20   H     H_    0.901257 0.512910 0.820161 0.143669
N1    N     N_R   0.500070 0.750030 0.500050 -0.147247
N2    N     N_R   0.500070 0.249970 0.500050 -0.147444
O1    O     O_R   0.367860 0.580280 0.500020 -0.555918
O2    O     O_R   0.367860 0.419720 0.500020 -0.551945
O3    O     O_R   0.500000 0.580270 0.314790 -0.640502
O4    O     O_R   0.500000 0.419730 0.314790 -0.639424
O5    O     O_R   0.632160 0.580270 0.499960 -0.623635
O6    O     O_R   0.632160 0.419730 0.499960 -0.623228
O7    O     O_R   0.500030 0.580270 0.685200 -0.616551
O8    O     O_R   0.500030 0.419730 0.685200 -0.620205
Zn1   Zn    Zn3+2 0.500020 0.607200 0.499990 0.964331
Zn2   Zn    Zn3+2 0.500020 0.392800 0.499990 0.965664
C43   C     C_3   0.229310 0.505560 0.747109 -0.957524
H21   H     H_    0.210441 0.570795 0.799069 0.224150
H22   H     H_    0.208591 0.443754 0.804923 0.241864
H23   H     H_    0.303522 0.503978 0.735409 0.228876
O9    O     O_3   0.106494 0.483568 0.165068 -0.607078
C44   C     C_3   0.111104 0.572412 0.106620 -0.381400
H24   H     H_    0.157598 0.567298 0.022611 0.192098
H25   H     H_    0.138605 0.626967 0.169195 0.168561
H26   H     H_    0.044154 0.594318 0.074938 0.169227
C45   C     C_3   0.646003 0.750618 0.373556 -0.826542
H27   H     H_    0.619931 0.685660 0.334975 0.282294
H28   H     H_    0.666524 0.792702 0.289488 0.202121
H29   H     H_    0.705427 0.737096 0.429744 0.240888
C46   C     C_3   0.646301 0.248772 0.374663 -0.823758
H30   H     H_    0.619935 0.313542 0.336170 0.281221
H31   H     H_    0.705564 0.262487 0.431098 0.242418
H32   H     H_    0.667046 0.206555 0.290572 0.203323
O10   O     O_3   0.352726 0.749231 0.596518 -0.575456
C47   C     C_3   0.351415 0.755242 0.728405 -0.307416
H33   H     H_    0.322060 0.822927 0.762375 0.147326
H34   H     H_    0.419337 0.746631 0.765530 0.149303
H35   H     H_    0.307900 0.698577 0.767891 0.185315
O11   O     O_3   0.351061 0.251235 0.591197 -0.575535
C48   C     C_3   0.348010 0.249408 0.723294 -0.295620
H36   H     H_    0.415253 0.259800 0.761742 0.148340
H37   H     H_    0.318839 0.182474 0.759753 0.147501
H38   H     H_    0.303536 0.307048 0.758680 0.191591
C49   C     C_3   0.659338 0.585467 0.098070 -0.940395
H39   H     H_    0.670960 0.582351 0.199306 0.231551
H40   H     H_    0.726714 0.585092 0.048224 0.239319
H41   H     H_    0.626874 0.653179 0.075822 0.234590
C50   C     C_3   0.657771 0.411206 0.095174 -0.934662
H42   H     H_    0.624419 0.344600 0.070121 0.234994
H43   H     H_    0.725369 0.411142 0.045958 0.241489
H44   H     H_    0.668922 0.412239 0.196457 0.230437

loop_
_geom_bond_atom_site_label_1
_geom_bond_atom_site_label_2
_ccdc_geom_bond_type
C47   H33   S    
C27   C29   A    
C24   C27   A    
C6    C9    A    
O11   C48   S    
C19   H4    S    
C7    C8    A    
C25   C28   A    
C12   O4    A    
C34   H9    S    
C45   H28   S    
C38   C42   S    
C5    C6    A    
C50   H42   S    
O4    Zn2   S    
C15   C16   A    
C39   H15   S    
O1    Zn1   S    
C49   H41   S    
C18   C19   A    
C35   C42   S    
C21   N2    A    
C22   N1    A    
C15   O9    S    
O6    Zn2   S    
C1    O1    A    
C45   H29   S    
O5    Zn1   S    
O3    Zn1   S    
C9    C10   A    
C36   H10   S    
C37   H11   S    
C3    H18   S    
C25   C32   A    
C21   C46   S    
C35   O7    A    
C8    C16   A    
C13   C14   A    
C36   C41   S    
C44   H26   S    
C16   H5    S    
C1    O2    A    
C39   C42   S    
C20   C29   A    
C12   O3    A    
C39   H13   S    
C9    H20   S    
C23   N2    A    
C45   H27   S    
O8    Zn2   S    
C3    C8    A    
O7    Zn1   S    
C2    H17   S    
C4    C5    A    
N1    Zn1   S    
C33   H8    S    
C29   C34   A    
C43   H21   S    
C12   C41   S    
C31   C32   A    
C38   H12   S    
C46   H32   S    
C2    C42   S    
C10   H3    S    
C17   C18   A    
C1    C18   S    
C5    H19   S    
C49   H40   S    
C43   H22   S    
C44   H25   S    
C40   C41   S    
C23   O11   S    
C46   H31   S    
C35   O8    A    
C47   H35   S    
C48   H37   S    
C31   H6    S    
C20   C45   S    
C26   O6    A    
C22   C24   A    
C3    C4    A    
C40   C50   S    
C11   C17   A    
C22   O10   S    
C30   C33   A    
C14   C19   A    
C44   H24   S    
C4    C26   S    
C2    H16   S    
C6    C7    A    
C48   H38   S    
C21   C30   A    
C20   N1    A    
C36   C38   S    
C24   C31   A    
C37   C39   S    
C11   C13   A    
C50   H43   S    
C37   H2    S    
C28   C30   A    
O10   C47   S    
C33   C34   A    
C23   C25   A    
C37   C41   S    
C49   H39   S    
C43   H23   S    
C32   H7    S    
C10   C11   A    
C40   C49   S    
O9    C44   S    
C2    C40   S    
C7    C13   A    
C38   H14   S    
C46   H30   S    
C47   H34   S    
C48   H36   S    
C27   C28   A    
C17   C43   S    
C26   O5    A    
N2    Zn2   S    
C14   C15   A    
C36   H1    S    
C50   H44   S    
O2    Zn2   S    
