data_mof_unit_47253.cif
_audit_creation_date              2013-03-05T15:49:47-0500
_audit_creation_method            fapswitch 2.2
_symmetry_space_group_name_H-M    P1
_symmetry_Int_Tables_number       1
_space_group_crystal_system       triclinic
_cell_length_a                    19.987806
_cell_length_b                    20.176535
_cell_length_c                    19.95251
_cell_angle_alpha                 107.045766
_cell_angle_beta                  110.893706
_cell_angle_gamma                 110.723104
_cell_volume                      6168.53555275

loop_
_atom_site_label
_atom_site_type_symbol
_atom_site_description
_atom_site_fract_x
_atom_site_fract_y
_atom_site_fract_z
_atom_type_partial_charge
C1    C     C_R   0.071821 0.341581 0.065784 -0.187028
H1    H     H_    0.136539 0.361511 0.104539 0.124224
N1    N     N_R   0.043550 0.386750 0.043430 -0.060535
C2    C     C_R   0.928587 0.499536 0.771630 -0.140785
H2    H     H_    0.864940 0.481640 0.731341 0.101236
N2    N     N_R   0.956690 0.500260 0.843560 -0.043533
C3    C     C_R   0.808418 0.265870 0.833403 -0.066378
H3    H     H_    0.799266 0.216763 0.847113 0.182778
N3    N     N_R   0.843320 0.343600 0.886740 -0.046595
C4    C     C_R   0.224561 0.559855 0.992832 0.161157
N4    N     N_R   0.156920 0.543410 0.000250 -0.065382
C5    C     C_R   0.807646 0.335855 0.764446 -0.130868
H4    H     H_    0.797475 0.351574 0.715891 0.122693
N5    N     N_R   0.843210 0.386780 0.843560 -0.050513
C6    C     C_R   0.217522 0.483538 0.055205 -0.167379
H5    H     H_    0.236406 0.457861 0.093781 0.121859
N6    N     N_R   0.157030 0.500230 0.043430 -0.049196
C7    C     C_R   0.067169 0.568964 0.839862 -0.129398
H6    H     H_    0.128466 0.614599 0.859275 0.098359
N7    N     N_R   0.043140 0.543420 0.886740 -0.044145
C8    C     C_R   0.932692 0.272788 0.000476 0.441700
N8    N     N_R   0.957090 0.343580 0.000250 -0.089786
C9    C     C_R   0.003270 0.270232 0.039349 -0.016380
C10   C     C_R   0.996811 0.541921 0.768419 0.114738
C11   C     C_R   0.787543 0.260573 0.757433 0.049835
C12   C     C_R   0.259920 0.518894 0.022893 0.064701
C13   C     C_R   0.230080 0.656463 0.227188 0.097148
N9    N     N_R   0.156790 0.613220 0.156440 -0.072339
C14   C     C_R   0.805956 0.541098 0.972290 -0.131103
H7    H     H_    0.798482 0.582173 0.950494 0.131292
N10   N     N_R   0.842970 0.499770 0.956570 -0.052705
C15   C     C_R   0.931338 0.462420 0.167169 -0.069409
H8    H     H_    0.868874 0.428137 0.154205 0.129681
N11   N     N_R   0.956860 0.456580 0.113260 -0.045655
C16   C     C_R   0.067803 0.726712 0.998706 -0.183039
H9    H     H_    0.129971 0.770683 0.019039 0.130964
N12   N     N_R   0.042910 0.656420 0.999750 -0.049642
C17   C     C_R   0.929249 0.655432 0.925606 0.185526
N13   N     N_R   0.956450 0.613250 0.956570 -0.062520
C18   C     C_R   0.070401 0.538638 0.236110 -0.134799
H10   H     H_    0.134112 0.579921 0.285334 0.123712
N14   N     N_R   0.043310 0.499740 0.156440 -0.051432
C19   C     C_R   0.228198 0.728760 0.161618 0.131413
N15   N     N_R   0.156680 0.656400 0.113260 -0.070741
C20   C     C_R   0.799351 0.465960 0.035382 -0.122355
H11   H     H_    0.779175 0.433273 0.064970 0.109735
N16   N     N_R   0.843080 0.456590 0.999750 -0.039707
Ni1   Ni    Ni4+2 0.099270 0.499990 0.099040 0.206266
Ni2   Ni    Ni4+2 0.900730 0.500010 0.900960 0.204208
Ni3   Ni    Ni4+2 0.900990 0.400990 0.000000 0.283847
Ni4   Ni    Ni4+2 0.099010 0.599010 0.000000 0.194662
C21   C     C_R   0.273177 0.730535 0.233693 0.008046
C22   C     C_R   0.780615 0.522150 0.023106 0.087770
C23   C     C_R   0.001038 0.517280 0.243270 0.080767
C24   C     C_R   0.998461 0.727070 0.953334 0.053039
C25   C     C_3   0.539292 0.515408 0.000306 -0.205594
C26   C     C_3   0.501232 0.482379 0.046631 -0.248792
H12   H     H_    0.455693 0.418313 0.023736 0.158645
H13   H     H_    0.527354 0.478704 0.939085 0.163085
C27   C     C_1   0.338456 0.529227 0.040045 -0.027454
C28   C     C_1   0.736398 0.549903 0.052537 -0.029222
C29   C     C_3   0.523032 0.585228 0.022847 0.531322
C30   C     C_3   0.485173 0.552582 0.068599 -0.010167
C31   C     C_3   0.609440 0.639728 0.102028 -0.269280
C32   C     C_3   0.624948 0.568968 0.079976 0.040158
C33   C     C_3   0.570499 0.606291 0.148350 0.075794
C34   C     C_3   0.587435 0.536025 0.126289 0.172120
C35   C     C_1   0.405401 0.539754 0.054990 0.003952
C36   C     C_1   0.691753 0.565350 0.071393 0.008439
H14   H     H_    0.654861 0.703685 0.124485 0.177174
C37   C     C_3   0.917793 0.513980 0.509619 -0.513518
C38   C     C_3   0.074908 0.578711 0.588251 -0.485793
C39   C     C_3   0.067252 0.558664 0.504583 0.352921
H15   H     H_    0.913264 0.456940 0.508430 0.238574
H16   H     H_    0.134387 0.635875 0.637060 0.211715
H17   H     H_    0.076954 0.529851 0.602666 0.181277
H18   H     H_    0.042093 0.492614 0.471139 0.156917
C40   C     C_1   0.001545 0.545793 0.316686 0.024603
C41   C     C_3   0.000236 0.587064 0.586935 0.177651
C42   C     C_3   0.915086 0.516173 0.432282 0.243271
C43   C     C_3   0.004010 0.578668 0.455114 0.026284
C44   C     C_3   0.023229 0.666054 0.508882 -0.128772
C45   C     C_3   0.009038 0.666080 0.582896 -0.051364
C46   C     C_1   0.002607 0.565725 0.379412 0.048650
C47   C     C_1   0.996657 0.581426 0.656220 -0.025675
C48   C     C_1   0.995629 0.566389 0.709169 -0.045586
H19   H     H_    0.946812 0.660059 0.565801 0.123661
H20   H     H_    0.975011 0.675279 0.470099 0.106522
H21   H     H_    0.862813 0.514663 0.511020 0.169154
H22   H     H_    0.870633 0.535600 0.406986 0.091012
C49   C     C_3   0.493787 0.926234 0.494110 -0.587322
C50   C     C_3   0.501654 0.991976 0.404857 -0.456192
C51   C     C_3   0.575850 0.073487 0.481753 0.522950
H23   H     H_    0.547706 0.040670 0.599658 0.105462
H24   H     H_    0.435984 0.926643 0.486681 0.180267
H25   H     H_    0.505327 0.987343 0.349498 0.251317
H26   H     H_    0.440832 0.987978 0.391181 0.139166
C52   C     C_1   0.742231 0.188508 0.683112 0.026326
C53   C     C_3   0.499336 0.918961 0.417042 0.126571
C54   C     C_3   0.569858 0.004426 0.570558 0.275357
C55   C     C_3   0.628096 0.053298 0.545722 -0.025163
C56   C     C_3   0.658213 0.997748 0.506941 -0.134982
C57   C     C_3   0.579981 0.917989 0.428114 0.301022
C58   C     C_1   0.695933 0.127302 0.620150 0.049969
C59   C     C_1   0.423809 0.846427 0.348318 0.048767
C60   C     C_1   0.356297 0.791434 0.295015 -0.054265
H27   H     H_    0.577296 0.865757 0.437924 0.075521
H28   H     H_    0.683457 0.978448 0.551974 0.182586
H29   H     H_    0.489097 0.872432 0.501469 0.234242
C61   C     C_3   0.097866 0.086924 0.048259 -0.427839
C62   C     C_3   0.955690 0.014156 0.919680 0.303659
C63   C     C_3   0.952634 0.932243 0.897926 0.301945
H30   H     H_    0.126886 0.120012 0.021135 0.249481
H31   H     H_    0.890610 0.001666 0.896990 0.102538
H32   H     H_    0.886350 0.885216 0.868202 0.111463
C64   C     C_1   0.999813 0.795602 0.950038 0.007310
C65   C     C_3   0.007022 0.068510 0.014515 -0.046964
C66   C     C_3   0.100212 0.006949 0.029288 0.558687
C67   C     C_3   0.005559 0.932956 0.978780 -0.240594
C68   C     C_3   0.961173 0.941869 0.030200 0.728334
C69   C     C_3   0.967977 0.025350 0.054968 -0.576208
C70   C     C_1   0.002250 0.856932 0.958238 0.170242
C71   C     C_1   0.006518 0.142632 0.033685 0.100065
C72   C     C_1   0.005155 0.202330 0.041214 0.085649
H33   H     H_    0.006687 0.064056 0.122543 0.219954
H34   H     H_    0.905492 0.018720 0.036839 0.242812
H35   H     H_    0.134681 0.131491 0.113832 0.137572
C73   C     C_3   0.846163 0.617253 0.849292 -0.543722
C74   C     C_3   0.801408 0.664518 0.857975 -0.190245
C75   C     C_3   0.709244 0.613642 0.791546 -0.815581
H36   H     H_    0.702180 0.593610 0.730049 0.254261
H37   H     H_    0.677195 0.559879 0.797313 0.248252
H38   H     H_    0.679226 0.650192 0.798020 0.281562
H39   H     H_    0.806853 0.684413 0.918777 0.237126
H40   H     H_    0.830495 0.719087 0.852225 0.234112
H41   H     H_    0.856491 0.614539 0.797603 0.200309
H42   H     H_    0.806534 0.553837 0.833619 0.201182
C76   C     C_3   0.267302 0.784434 0.133385 -0.431908
C77   C     C_3   0.274992 0.866496 0.172600 -0.278319
C78   C     C_3   0.313245 0.921297 0.141601 -0.867522
H43   H     H_    0.375055 0.929010 0.154077 0.278508
H44   H     H_    0.271516 0.895240 0.074820 0.263141
H45   H     H_    0.322303 0.981652 0.173395 0.248458
H46   H     H_    0.212945 0.858751 0.158981 0.208342
H47   H     H_    0.315710 0.896395 0.240099 0.204357
H48   H     H_    0.330997 0.795019 0.151692 0.212835
H49   H     H_    0.232499 0.755519 0.066163 0.176815
C79   C     C_3   0.628339 0.505811 0.181147 -0.418681
C80   C     C_3   0.578946 0.474743 0.219675 -0.287706
C81   C     C_3   0.618019 0.440017 0.269447 -0.818100
H50   H     H_    0.617901 0.388263 0.229527 0.275477
H51   H     H_    0.683216 0.487080 0.319260 0.252307
H52   H     H_    0.581473 0.418455 0.297162 0.245910
H53   H     H_    0.578268 0.524825 0.260940 0.203164
H54   H     H_    0.513520 0.426929 0.171053 0.208371
H55   H     H_    0.632098 0.456070 0.143139 0.202377
H56   H     H_    0.692986 0.555359 0.229651 0.177372
C82   C     C_3   0.579179 0.657268 0.228148 -0.399360
C83   C     C_3   0.669975 0.709289 0.298785 -0.239196
C84   C     C_3   0.675667 0.753236 0.378995 -0.877388
H57   H     H_    0.645422 0.789583 0.373075 0.285287
H58   H     H_    0.644291 0.709005 0.395884 0.258714
H59   H     H_    0.742173 0.794107 0.428509 0.250457
H60   H     H_    0.697736 0.671167 0.305856 0.194113
H61   H     H_    0.706724 0.754462 0.285867 0.214321
H62   H     H_    0.554480 0.697207 0.218369 0.219040
H63   H     H_    0.540119 0.616629 0.243249 0.178147
Cl1   Cl    Cl    0.479223 0.616116 0.952025 -0.633143
Cl2   Cl    Cl    0.872190 0.415153 0.354724 -0.623070
Cl3   Cl    Cl    0.168071 0.604221 0.515033 -0.666985
C85   C     C_3   0.071675 0.744488 0.667470 -0.415734
C86   C     C_3   0.048872 0.810479 0.673150 -0.341025
C87   C     C_3   0.118693 0.891128 0.749009 -0.636355
H64   H     H_    0.131744 0.884830 0.805070 0.285880
H65   H     H_    0.176390 0.912456 0.745924 0.219188
H66   H     H_    0.099690 0.936944 0.752558 0.285053
H67   H     H_    0.035460 0.818644 0.618161 0.198206
H68   H     H_    0.991234 0.791891 0.676509 0.247173
H69   H     H_    0.070602 0.731996 0.717735 0.204578
H70   H     H_    0.136971 0.767261 0.681835 0.199175
C88   C     C_3   0.108752 0.738031 0.535660 -0.300495
C89   C     C_3   0.119441 0.745898 0.465159 -0.269640
C90   C     C_3   0.190326 0.829680 0.494936 -0.882787
H71   H     H_    0.175993 0.876644 0.519010 0.259584
H72   H     H_    0.249740 0.842584 0.543758 0.278744
H73   H     H_    0.198211 0.832278 0.443236 0.250815
H74   H     H_    0.135424 0.701662 0.438384 0.243854
H75   H     H_    0.060829 0.734889 0.416856 0.192253
H76   H     H_    0.114145 0.794967 0.571812 0.191820
H77   H     H_    0.161794 0.736035 0.576620 0.235485
C91   C     C_3   0.540768 0.124406 0.516829 -0.481372
C92   C     C_3   0.502206 0.156933 0.462234 -0.151291
C93   C     C_3   0.453799 0.190052 0.490630 -0.946191
H78   H     H_    0.400624 0.141201 0.485526 0.267813
H79   H     H_    0.495366 0.239149 0.555087 0.273242
H80   H     H_    0.428748 0.214792 0.451583 0.258732
H81   H     H_    0.552315 0.206700 0.464866 0.244994
H82   H     H_    0.459147 0.108800 0.397495 0.198328
H83   H     H_    0.491543 0.086770 0.525090 0.173557
H84   H     H_    0.590961 0.177063 0.577796 0.196708
C94   C     C_3   0.263936 0.625948 0.974527 -0.467649
C95   C     C_3   0.356773 0.687625 0.038293 -0.264369
C96   C     C_3   0.386910 0.763195 0.028534 -0.770756
H85   H     H_    0.379890 0.747041 0.967218 0.277405
H86   H     H_    0.350876 0.793026 0.035709 0.236732
H87   H     H_    0.453833 0.806596 0.075859 0.273817
H88   H     H_    0.367857 0.704780 0.101115 0.194981
H89   H     H_    0.395063 0.661246 0.030269 0.253345
H90   H     H_    0.255817 0.598415 0.913057 0.217078
H91   H     H_    0.230952 0.659574 0.974476 0.181013
Cl4   Cl    Cl    0.640769 0.131694 0.452652 -0.680594
Cl5   Cl    Cl    0.582637 0.898032 0.335097 -0.699949
Cl6   Cl    Cl    0.621691 0.982144 0.647810 -0.606231
C97   C     C_3   0.733263 0.040934 0.497123 -0.232364
C98   C     C_3   0.783387 0.997990 0.497908 -0.350828
C99   C     C_3   0.853850 0.038665 0.484007 -0.778809
H92   H     H_    0.828108 0.036342 0.423428 0.277246
H93   H     H_    0.897381 0.102644 0.532675 0.259033
H94   H     H_    0.889128 0.006670 0.485519 0.247530
H95   H     H_    0.810791 0.999289 0.557872 0.222955
H96   H     H_    0.742014 0.934004 0.449410 0.248104
H97   H     H_    0.712387 0.045194 0.439975 0.290213
H98   H     H_    0.776846 0.103666 0.548391 0.200376
Cl7   Cl    Cl    0.146334 0.999853 0.966077 -0.609885
Cl8   Cl    Cl    0.993704 0.065401 0.869269 -0.530756
Cl9   Cl    Cl    0.970456 0.896302 0.815588 -0.547492
Cl10  Cl    Cl    0.001248 0.929244 0.118670 -0.643563
C100  C     C_3   0.160851 0.007167 0.107126 -0.397934
C101  C     C_3   0.190841 0.070955 0.193234 -0.266876
C102  C     C_3   0.232887 0.051800 0.259399 -0.837057
H99   H     H_    0.189311 0.991396 0.247602 0.286019
H100  H     H_    0.289633 0.053217 0.261574 0.241556
H101  H     H_    0.251756 0.097768 0.319968 0.251417
H102  H     H_    0.237448 0.131150 0.207206 0.193692
H103  H     H_    0.138554 0.075132 0.197294 0.243135
H104  H     H_    0.133731 0.946308 0.101968 0.215429
H105  H     H_    0.219325 0.016882 0.107485 0.220087
Cl11  Cl    Cl    0.852378 0.864486 0.973921 -0.642574
Cl12  Cl    Cl    0.835075 0.211593 0.985624 -0.622842
C103  C     C_3   0.267739 0.619124 0.273103 -0.426141
C104  C     C_3   0.345597 0.624464 0.270763 -0.242320
C105  C     C_3   0.366168 0.565167 0.293073 -0.898277
H106  H     H_    0.377268 0.577610 0.355270 0.279777
H107  H     H_    0.314162 0.502077 0.248256 0.251166
H108  H     H_    0.423419 0.571775 0.292277 0.243974
H109  H     H_    0.336024 0.611630 0.209002 0.200483
H110  H     H_    0.400378 0.686198 0.315175 0.209723
H111  H     H_    0.284392 0.649668 0.337690 0.197212
H112  H     H_    0.220204 0.554346 0.244620 0.200690

loop_
_geom_bond_atom_site_label_1
_geom_bond_atom_site_label_2
_geom_bond_distance
_ccdc_geom_bond_type
C86   H67   1.109154 S    
C45   H19   1.115434 S    
C96   H85   1.110870 S    
C55   C56   1.587001 S    
C42   C43   1.567242 S    
C94   C95   1.537602 S    
C29   Cl1   1.780963 S    
C62   C63   1.553274 S    
N11   N14   1.385560 A    
C99   H94   1.110509 S    
C41   C47   1.444326 S    
C38   H17   1.114742 S    
C79   H56   1.110101 S    
C73   C74   1.535281 S    
C61   C66   1.567591 S    
C37   C41   1.550200 S    
C43   C44   1.589017 S    
C3    H3    1.075339 S    
C87   H64   1.110875 S    
C86   C87   1.525991 S    
C96   H86   1.109665 S    
C44   C88   1.566316 S    
C26   C34   1.544253 S    
C64   C70   1.180409 T    
C102  H101  1.110484 S    
C7    C10   1.370580 A    
C16   N12   1.335944 A    
C99   H93   1.110829 S    
C7    H6    1.073764 S    
C38   C41   1.552225 S    
C90   H72   1.111033 S    
C17   N13   1.340816 A    
N12   Ni4   1.875559 S    
C44   H20   1.114319 S    
C19   C21   1.379296 A    
C67   C70   1.437177 S    
N5    Ni2   1.876383 S    
C24   C64   1.394685 S    
C86   H68   1.111928 S    
C25   C32   1.538913 S    
C88   C89   1.539756 S    
N1    Ni1   1.877032 S    
C50   H25   1.111912 S    
C23   C40   1.402881 S    
C25   C26   1.543061 S    
C19   C76   1.501232 S    
C3    N3    1.340336 A    
C104  C105  1.525914 S    
C88   H77   1.106809 S    
C15   C23   1.373361 A    
C101  H102  1.111828 S    
C65   C69   1.548973 S    
C89   C90   1.527653 S    
C54   C55   1.567976 S    
C29   C31   1.542487 S    
C97   H97   1.106865 S    
C74   H40   1.109968 S    
C22   C28   1.402542 S    
C56   C97   1.559645 S    
C77   H47   1.111088 S    
C17   C24   1.370855 A    
C16   H9    1.070029 S    
C32   C34   1.536042 S    
C81   H52   1.110378 S    
C45   C85   1.563331 S    
C51   Cl4   1.805216 S    
C51   C91   1.573318 S    
C105  H107  1.110737 S    
C13   C21   1.374008 A    
C78   H45   1.107811 S    
C56   H28   1.111026 S    
C31   H14   1.109932 S    
C49   C54   1.537779 S    
C61   H35   1.103239 S    
N8    Ni3   1.875555 S    
N6    Ni1   1.864644 S    
C4    C12   1.394233 A    
C18   N14   1.337870 A    
C33   C34   1.548652 S    
C65   C71   1.435619 S    
C30   C33   1.536371 S    
C20   C22   1.372386 A    
C103  H112  1.111086 S    
N10   N16   1.393328 A    
C8    N8    1.338050 A    
C66   C67   1.607124 S    
C85   H69   1.108852 S    
C102  H99   1.110735 S    
C88   H76   1.105748 S    
C42   Cl2   1.803308 S    
N10   Ni2   1.864641 S    
C38   H16   1.112348 S    
C98   H96   1.108248 S    
C61   C65   1.546712 S    
C94   H90   1.110840 S    
C37   C42   1.538877 S    
C4    C94   1.509619 S    
C101  C102  1.528432 S    
C50   H26   1.113532 S    
C26   C30   1.536102 S    
N16   Ni3   1.875208 S    
C20   N16   1.336590 A    
C53   C59   1.443761 S    
C96   H87   1.110433 S    
C54   Cl6   1.802247 S    
N11   Ni3   1.854579 S    
C105  H108  1.110729 S    
C63   Cl9   1.803750 S    
C95   C96   1.527524 S    
C16   C24   1.362541 A    
C104  H109  1.109903 S    
C62   Cl8   1.804679 S    
C84   H59   1.110388 S    
C71   C72   1.180757 T    
C78   H43   1.111039 S    
C2    N2    1.335063 A    
C53   C57   1.555112 S    
C4    N4    1.346817 A    
C90   H73   1.110625 S    
C51   C55   1.593940 S    
N3    N5    1.393326 A    
C97   C98   1.538122 S    
C2    H2    1.081805 S    
C6    C12   1.369003 A    
C89   H75   1.111591 S    
C66   C100  1.590800 S    
C47   C48   1.186416 T    
C66   Cl7   1.810492 S    
N9    N15   1.393328 A    
C21   C60   1.411030 S    
C83   H61   1.111595 S    
C10   C48   1.404384 S    
C69   H34   1.113419 S    
C1    N1    1.331098 A    
C15   N11   1.338159 A    
C101  H103  1.106630 S    
C75   H37   1.110977 S    
C80   H53   1.108627 S    
C90   H71   1.110909 S    
C69   H33   1.112379 S    
C14   H7    1.072781 S    
C81   H51   1.111232 S    
C40   C46   1.186788 T    
C13   C103  1.512455 S    
C37   H15   1.114432 S    
C77   H46   1.110805 S    
C83   C84   1.525533 S    
C37   H21   1.114026 S    
H23   C54   1.109715 S    
C76   H49   1.100802 S    
C67   C68   1.589343 S    
C93   H80   1.110638 S    
C29   C30   1.527183 S    
C93   H79   1.110884 S    
C105  H106  1.110791 S    
N14   Ni1   1.864366 S    
C92   H81   1.110845 S    
C99   H92   1.110869 S    
C102  H100  1.109226 S    
C61   H30   1.112075 S    
C87   H65   1.110783 S    
C68   Cl10  1.794973 S    
C39   C43   1.561950 S    
C73   H42   1.110789 S    
N15   Ni4   1.854618 S    
C18   H10   1.075969 S    
N13   Ni2   1.877032 S    
C5    N5    1.335912 A    
C1    C9    1.368002 A    
C55   C58   1.450617 S    
C92   H82   1.110159 S    
C95   H88   1.110557 S    
C8    C9    1.374342 A    
C19   N15   1.348808 A    
C82   C83   1.530320 S    
C25   C29   1.532712 S    
C85   H70   1.108229 S    
C75   H38   1.110462 S    
C94   H91   1.100642 S    
C33   C82   1.529583 S    
C43   C46   1.443515 S    
C68   C69   1.549758 S    
C82   H62   1.111839 S    
C57   H27   1.113631 S    
C74   C75   1.525291 S    
C87   H66   1.110452 S    
C28   C36   1.184271 T    
C91   C92   1.545834 S    
C6    N6    1.327584 A    
C30   C35   1.428622 S    
N9    Ni1   1.876383 S    
C103  C104  1.540021 S    
C8    Cl12  1.757124 S    
C104  H110  1.109622 S    
C84   H58   1.110962 S    
N3    Ni3   1.854619 S    
C91   H83   1.110032 S    
C38   C39   1.533622 S    
N4    N6    1.393326 A    
C57   Cl5   1.804622 S    
C63   C67   1.574851 S    
C17   C73   1.507711 S    
C77   C78   1.526307 S    
C9    C72   1.394710 S    
C78   H44   1.110761 S    
N7    Ni4   1.854580 S    
N2    N7    1.385560 A    
C59   C60   1.186619 T    
C18   C23   1.372141 A    
C3    C11   1.380393 A    
C25   H13   1.110936 S    
C5    C11   1.375337 A    
C62   C65   1.561460 S    
C49   C53   1.548946 S    
C15   H8    1.075988 S    
C49   H29   1.113567 S    
C73   H41   1.111747 S    
C75   H36   1.110923 S    
C80   H54   1.111547 S    
C82   H63   1.110061 S    
C91   H84   1.110189 S    
C100  H105  1.111555 S    
C14   N10   1.337837 A    
C98   H95   1.111836 S    
C92   C93   1.526535 S    
C41   C45   1.570397 S    
C26   H12   1.110251 S    
C14   C22   1.373759 A    
C76   H48   1.109080 S    
C2    C10   1.365318 A    
C32   C36   1.429137 S    
C1    H1    1.081234 S    
C31   C32   1.539539 S    
C50   C51   1.558759 S    
C49   H24   1.114526 S    
C62   H31   1.114293 S    
C7    N7    1.341276 A    
C89   H74   1.108181 S    
N2    Ni2   1.864366 S    
C42   H22   1.113736 S    
C56   C57   1.577842 S    
C84   H57   1.109448 S    
C85   C86   1.539902 S    
C100  H104  1.107845 S    
N4    Ni4   1.875206 S    
C76   C77   1.533577 S    
C100  C101  1.546148 S    
C74   H39   1.110904 S    
C20   H11   1.075161 S    
C11   C52   1.406908 S    
C98   C99   1.525834 S    
C5    H4    1.079699 S    
C27   C35   1.183911 T    
C97   H98   1.110093 S    
N12   N13   1.385724 A    
C93   H78   1.110881 S    
C68   Cl11  1.804173 S    
C34   C79   1.530928 S    
C103  H111  1.111098 S    
C39   H18   1.113178 S    
C83   H60   1.108719 S    
N1    N8    1.385724 A    
C95   H89   1.104693 S    
C79   H55   1.111643 S    
C44   C45   1.599905 S    
C39   Cl3   1.796170 S    
C80   C81   1.526123 S    
C12   C27   1.402907 S    
C79   C80   1.531150 S    
C52   C58   1.188315 T    
C63   H32   1.107836 S    
C6    H5    1.080845 S    
C50   C53   1.549595 S    
C31   C33   1.556352 S    
C81   H50   1.110907 S    
C13   N9    1.340993 A    
