data_mof_unit_66232.cif
_audit_creation_date              2012-12-10T18:01:26-0500
_audit_creation_method            fapswitch 2.2
_symmetry_space_group_name_H-M    P1
_symmetry_Int_Tables_number       1
_space_group_crystal_system       triclinic
_cell_length_a                    18.303007
_cell_length_b                    18.388781
_cell_length_c                    25.852065
_cell_angle_alpha                 89.999708
_cell_angle_beta                  89.999704
_cell_angle_gamma                 90.000065
_cell_volume                      8701.02919016

loop_
_atom_site_label
_atom_site_type_symbol
_atom_type_description
_atom_site_fract_x
_atom_site_fract_y
_atom_site_fract_z
_atom_type_partial_charge
Br1   Br    Br    0.908099 0.861054 0.562758 -0.346370
Br2   Br    Br    0.091903 0.861055 0.562758 -0.346382
Br3   Br    Br    0.091900 0.861054 0.437243 -0.346379
Br4   Br    Br    0.908097 0.861055 0.437243 -0.346367
Br5   Br    Br    0.408390 0.360865 0.062762 -0.346446
Br6   Br    Br    0.592194 0.361244 0.062753 -0.346308
Br7   Br    Br    0.592192 0.361243 0.937247 -0.346315
Br8   Br    Br    0.408388 0.360866 0.937240 -0.346445
C1    C     C_R   0.859991 0.140321 0.749537 0.530921
C2    C     C_R   0.196204 0.196716 0.251489 0.076563
C3    C     C_R   0.251143 0.698960 0.208546 0.237925
C4    C     C_R   0.196205 0.196716 0.748511 0.076563
C5    C     C_R   0.803793 0.196714 0.748511 0.076550
C6    C     C_R   0.303794 0.696715 0.751489 0.076557
C7    C     C_R   0.696206 0.696714 0.751489 0.076553
C8    C     C_R   0.696207 0.696713 0.248511 0.076552
C9    C     C_R   0.303794 0.696715 0.248511 0.076557
C10   C     C_R   0.802612 0.248907 0.211916 -0.172761
C11   C     C_R   0.197416 0.248879 0.211897 -0.172776
C12   C     C_R   0.197414 0.248879 0.788102 -0.172775
C13   C     C_R   0.140009 0.140321 0.749536 0.530924
C14   C     C_R   0.802602 0.248896 0.788090 -0.172761
C15   C     C_R   0.302595 0.748889 0.711904 -0.172770
C16   C     C_R   0.697396 0.748899 0.711911 -0.172769
C17   C     C_R   0.697390 0.748903 0.288086 -0.172768
C18   C     C_R   0.302595 0.748889 0.288096 -0.172770
C19   C     C_R   0.249364 0.802426 0.711389 -0.129524
C20   C     C_R   0.750627 0.802435 0.711395 -0.129523
C21   C     C_R   0.750621 0.802440 0.288601 -0.129524
C22   C     C_R   0.249364 0.802426 0.288611 -0.129524
C23   C     C_R   0.749382 0.302443 0.211400 -0.129503
C24   C     C_R   0.140009 0.140321 0.250464 0.530924
C25   C     C_R   0.250647 0.302415 0.211381 -0.129542
C26   C     C_R   0.250645 0.302416 0.788617 -0.129543
C27   C     C_R   0.749372 0.302433 0.788606 -0.129501
C28   C     C_R   0.196456 0.804371 0.750380 0.011985
C29   C     C_R   0.803544 0.804371 0.750380 0.011987
C30   C     C_R   0.803544 0.804371 0.249620 0.011987
C31   C     C_R   0.196456 0.804372 0.249620 0.011985
C32   C     C_R   0.696455 0.304371 0.250380 0.011979
C33   C     C_R   0.303544 0.304372 0.250381 0.011992
C34   C     C_R   0.303543 0.304372 0.749619 0.011992
C35   C     C_R   0.859990 0.140321 0.250463 0.530919
C36   C     C_R   0.696455 0.304371 0.749620 0.011978
C37   C     C_R   1.000000 0.933822 0.973334 -0.133590
C38   C     C_R   1.000000 0.933822 0.026666 -0.133589
C39   C     C_R   0.500000 0.433822 0.473334 -0.133590
C40   C     C_R   0.500000 0.433822 0.526667 -0.133589
C41   C     C_R   0.999999 0.999990 0.053423 0.045601
C42   C     C_R   0.999999 0.999990 0.946577 0.045601
C43   C     C_R   0.500000 0.499990 0.553423 0.045601
C44   C     C_R   0.500000 0.499990 0.446577 0.045601
C45   C     C_R   0.999997 0.066156 0.026665 -0.127161
C46   C     C_R   0.359991 0.640321 0.249536 0.530927
C47   C     C_R   0.999997 0.066156 0.973334 -0.127160
C48   C     C_R   0.500000 0.566157 0.526665 -0.127160
C49   C     C_R   0.500000 0.566156 0.473334 -0.127159
C50   C     C_R   0.140089 0.860034 0.749934 0.524756
C51   C     C_R   0.859912 0.860034 0.749935 0.524760
C52   C     C_R   0.859911 0.860034 0.250065 0.524761
C53   C     C_R   0.140088 0.860034 0.250065 0.524754
C54   C     C_R   0.640088 0.360034 0.249934 0.524765
C55   C     C_R   0.359911 0.360034 0.249934 0.524752
C56   C     C_R   0.359911 0.360034 0.750065 0.524752
C57   C     C_R   0.640010 0.640321 0.249537 0.530910
C58   C     C_R   0.640088 0.360034 0.750065 0.524760
C59   C     C_R   1.000000 0.999996 0.890873 0.509965
C60   C     C_R   1.000000 0.999996 0.109127 0.509966
C61   C     C_R   0.500000 0.499996 0.390873 0.509966
C62   C     C_R   0.500000 0.499996 0.609127 0.509965
C63   C     C_R   0.000000 0.997767 0.608749 0.553985
C64   C     C_R   1.000000 0.997767 0.391251 0.553983
C65   C     C_R   0.500001 0.497767 0.108749 0.553981
C66   C     C_R   0.500001 0.497767 0.891251 0.553982
C67   C     C_3   0.929446 0.955174 0.530134 0.092130
C68   C     C_R   0.640009 0.640321 0.750463 0.530912
C69   C     C_3   0.070554 0.955175 0.530133 0.092130
C70   C     C_3   0.070553 0.955174 0.469866 0.092129
C71   C     C_3   0.929446 0.955174 0.469867 0.092131
C72   C     C_3   0.429537 0.455026 0.030135 0.092093
C73   C     C_3   0.570645 0.455324 0.030133 0.092166
C74   C     C_3   0.570645 0.455323 0.969867 0.092166
C75   C     C_3   0.429536 0.455026 0.969866 0.092093
C76   C     C_3   1.000000 0.072543 0.529863 -0.340949
C77   C     C_3   0.000000 0.072543 0.470137 -0.340950
C78   C     C_3   0.499839 0.572543 0.029863 -0.340948
C79   C     C_R   0.359991 0.640321 0.750463 0.530930
C80   C     C_3   0.499839 0.572543 0.970136 -0.340948
C81   C     C_3   0.000000 0.993511 0.551093 0.012677
C82   C     C_3   1.000000 0.993511 0.448907 0.012678
C83   C     C_3   0.500009 0.493511 0.051093 0.012681
C84   C     C_3   0.500008 0.493511 0.948907 0.012681
C85   C     C_R   0.197517 0.752937 0.790227 -0.123267
C86   C     C_R   0.802493 0.752928 0.790221 -0.123266
C87   C     C_R   0.802500 0.752922 0.209784 -0.123265
C88   C     C_R   0.197517 0.752938 0.209773 -0.123267
C89   C     C_R   0.697496 0.252917 0.290214 -0.123267
C90   C     C_R   0.803792 0.196713 0.251488 0.076547
C91   C     C_R   0.302469 0.252950 0.290235 -0.123265
C92   C     C_R   0.302471 0.252949 0.709766 -0.123264
C93   C     C_R   0.697508 0.252929 0.709779 -0.123267
C94   C     C_R   0.751120 0.198938 0.291440 0.237924
C95   C     C_R   0.248842 0.198973 0.291462 0.237925
C96   C     C_R   0.248845 0.198972 0.708539 0.237924
C97   C     C_R   0.751133 0.198951 0.708552 0.237925
C98   C     C_R   0.251142 0.698960 0.791454 0.237925
C99   C     C_R   0.748868 0.698949 0.791447 0.237923
C100  C     C_R   0.748876 0.698943 0.208557 0.237921
H1    H     H_    0.881837 0.988786 0.542366 0.123379
H2    H     H_    0.048879 0.102497 0.544131 0.144682
H3    H     H_    0.048880 0.102497 0.455868 0.144683
H4    H     H_    0.951121 0.102497 0.455868 0.144672
H5    H     H_    0.450895 0.602394 0.044131 0.144750
H6    H     H_    0.548654 0.602601 0.044131 0.144599
H7    H     H_    0.548654 0.602601 0.955868 0.144602
H8    H     H_    0.450895 0.602394 0.955869 0.144750
H9    H     H_    0.157001 0.755055 0.820749 0.126715
H10   H     H_    0.843016 0.755037 0.820738 0.126722
H11   H     H_    0.843029 0.755027 0.179269 0.126726
H12   H     H_    0.118163 0.988788 0.542365 0.123379
H13   H     H_    0.157001 0.755055 0.179251 0.126715
H14   H     H_    0.656965 0.255019 0.320727 0.126728
H15   H     H_    0.342975 0.255076 0.320763 0.126709
H16   H     H_    0.342979 0.255075 0.679238 0.126711
H17   H     H_    0.656986 0.255040 0.679261 0.126723
H18   H     H_    0.842526 0.248055 0.180984 0.153682
H19   H     H_    0.157528 0.248002 0.180948 0.153645
H20   H     H_    0.157524 0.248003 0.819050 0.153646
H21   H     H_    0.842507 0.248036 0.819028 0.153681
H22   H     H_    0.342494 0.748022 0.680962 0.153663
H23   H     H_    0.118163 0.988787 0.457634 0.123381
H24   H     H_    0.657490 0.748039 0.680974 0.153666
H25   H     H_    0.657479 0.748048 0.319020 0.153668
H26   H     H_    0.342493 0.748022 0.319038 0.153663
H27   H     H_    0.249234 0.841798 0.680218 0.171776
H28   H     H_    0.750750 0.841816 0.680229 0.171775
H29   H     H_    0.750737 0.841825 0.319764 0.171772
H30   H     H_    0.249234 0.841798 0.319782 0.171776
H31   H     H_    0.749268 0.341831 0.180239 0.171832
H32   H     H_    0.250787 0.341778 0.180204 0.171721
H33   H     H_    0.250783 0.341780 0.819794 0.171719
H34   H     H_    0.881837 0.988788 0.457635 0.123376
H35   H     H_    0.749248 0.341812 0.819772 0.171837
H36   H     H_    0.000001 0.882159 0.953198 0.141034
H37   H     H_    0.000001 0.882159 0.046803 0.141035
H38   H     H_    0.500000 0.382159 0.453198 0.141034
H39   H     H_    0.500000 0.382159 0.546803 0.141035
H40   H     H_    0.999996 0.117821 0.046799 0.147314
H41   H     H_    0.999996 0.117820 0.953200 0.147315
H42   H     H_    0.500000 0.617821 0.546799 0.147315
H43   H     H_    0.500000 0.617821 0.453200 0.147315
H44   H     H_    0.712661 0.158706 0.355823 0.318307
H45   H     H_    0.381856 0.488538 0.042367 0.123380
H46   H     H_    0.287245 0.158791 0.355877 0.318307
H47   H     H_    0.287252 0.158788 0.644127 0.318308
H48   H     H_    0.712695 0.158738 0.644158 0.318307
H49   H     H_    0.212716 0.658757 0.855855 0.318300
H50   H     H_    0.787309 0.658732 0.855839 0.318313
H51   H     H_    0.787330 0.658716 0.144172 0.318314
H52   H     H_    0.212717 0.658758 0.144146 0.318300
H53   H     H_    0.618183 0.489037 0.042364 0.123375
H54   H     H_    0.618183 0.489036 0.957635 0.123377
H55   H     H_    0.381856 0.488538 0.957635 0.123379
H56   H     H_    0.951120 0.102496 0.544131 0.144676
O1    O     O_3   0.000000 1.000000 0.749970 -0.462924
O2    O     O_R   0.646190 0.585480 0.219360 -0.475377
O3    O     O_R   0.646190 0.585480 0.780640 -0.475377
O4    O     O_R   0.353810 0.585480 0.780640 -0.475387
O5    O     O_R   0.146170 0.914530 0.719320 -0.526429
O6    O     O_R   0.853830 0.914530 0.719320 -0.526423
O7    O     O_R   0.853830 0.914530 0.280680 -0.526420
O8    O     O_R   0.146170 0.914530 0.280680 -0.526430
O9    O     O_R   0.646170 0.414530 0.219320 -0.526380
O10   O     O_R   0.353830 0.414530 0.219320 -0.526465
O11   O     O_R   0.353830 0.414530 0.780680 -0.526466
O12   O     O_3   0.000000 1.000000 0.250030 -0.462924
O13   O     O_R   0.646170 0.414530 0.780680 -0.526382
O14   O     O_R   0.085450 0.146180 0.780600 -0.565602
O15   O     O_R   0.914550 0.146180 0.780600 -0.565598
O16   O     O_R   0.914550 0.146180 0.219400 -0.565600
O17   O     O_R   0.085450 0.146180 0.219400 -0.565604
O18   O     O_R   0.585450 0.646180 0.280600 -0.565605
O19   O     O_R   0.414550 0.646180 0.280600 -0.565600
O20   O     O_R   0.414550 0.646180 0.719400 -0.565600
O21   O     O_R   0.585450 0.646180 0.719400 -0.565605
O22   O     O_R   0.914560 0.853830 0.780620 -0.547467
O23   O     O_3   0.500000 0.500000 0.249970 -0.462925
O24   O     O_R   0.085440 0.853830 0.780620 -0.547466
O25   O     O_R   0.085440 0.853830 0.219380 -0.547467
O26   O     O_R   0.914560 0.853830 0.219380 -0.547469
O27   O     O_R   0.414560 0.353830 0.280620 -0.547457
O28   O     O_R   0.585440 0.353830 0.280620 -0.547476
O29   O     O_R   0.585440 0.353830 0.719380 -0.547473
O30   O     O_R   0.414560 0.353830 0.719380 -0.547456
O31   O     O_R   0.000000 0.060730 0.866830 -0.548828
O32   O     O_R   0.000000 0.060730 0.133170 -0.548828
O33   O     O_R   0.500000 0.560730 0.366830 -0.548826
O34   O     O_3   0.500000 0.500000 0.750030 -0.462925
O35   O     O_R   0.500000 0.560730 0.633170 -0.548827
O36   O     O_R   0.939250 0.000010 0.633130 -0.520895
O37   O     O_R   0.060750 0.000010 0.633130 -0.520888
O38   O     O_R   0.060750 0.000010 0.366870 -0.520888
O39   O     O_R   0.939250 0.000010 0.366870 -0.520898
O40   O     O_R   0.439250 0.500010 0.133130 -0.520995
O41   O     O_R   0.560750 0.500010 0.133130 -0.520794
O42   O     O_R   0.560750 0.500010 0.866870 -0.520792
O43   O     O_R   0.439250 0.500010 0.866870 -0.520995
O44   O     O_R   0.000000 0.939270 0.866820 -0.554713
O45   O     O_R   0.853810 0.085480 0.719360 -0.475382
O46   O     O_R   0.000000 0.939270 0.133180 -0.554712
O47   O     O_R   0.500000 0.439270 0.366820 -0.554712
O48   O     O_R   0.500000 0.439270 0.633180 -0.554712
O49   O     O_3   0.753314 0.149009 0.331413 -0.667388
O50   O     O_3   0.246610 0.149079 0.331456 -0.667408
O51   O     O_3   0.246616 0.149077 0.668547 -0.667408
O52   O     O_3   0.753340 0.149035 0.668573 -0.667393
O53   O     O_3   0.253360 0.649052 0.831439 -0.667414
O54   O     O_3   0.746661 0.649031 0.831426 -0.667377
O55   O     O_3   0.746678 0.649018 0.168583 -0.667375
O56   O     O_R   0.146190 0.085480 0.719360 -0.475392
O57   O     O_3   0.253360 0.649053 0.168561 -0.667415
O58   O     O_R   0.146190 0.085480 0.280640 -0.475391
O59   O     O_R   0.853810 0.085480 0.280640 -0.475377
O60   O     O_R   0.353810 0.585480 0.219360 -0.475387
Zn1   Zn    Zn3+2 0.086750 0.999990 0.706190 1.003937
Zn2   Zn    Zn3+2 1.000000 0.086770 0.206250 0.929834
Zn3   Zn    Zn3+2 0.500000 0.586770 0.293750 0.929832
Zn4   Zn    Zn3+2 0.500000 0.586770 0.706250 0.929833
Zn5   Zn    Zn3+2 0.000000 0.913230 0.793740 0.944485
Zn6   Zn    Zn3+2 0.000000 0.913230 0.206260 0.944484
Zn7   Zn    Zn3+2 0.500000 0.413230 0.293740 0.944486
Zn8   Zn    Zn3+2 0.500000 0.413230 0.706260 0.944486
Zn9   Zn    Zn3+2 0.913250 0.999990 0.706190 1.003944
Zn10  Zn    Zn3+2 0.913250 0.999990 0.293810 1.003947
Zn11  Zn    Zn3+2 0.086750 0.999990 0.293810 1.003935
Zn12  Zn    Zn3+2 0.586750 0.499990 0.206190 1.004015
Zn13  Zn    Zn3+2 0.413250 0.499990 0.206190 1.003866
Zn14  Zn    Zn3+2 0.413250 0.499990 0.793810 1.003868
Zn15  Zn    Zn3+2 0.586750 0.499990 0.793810 1.004014
Zn16  Zn    Zn3+2 0.000000 0.086770 0.793750 0.929835

loop_
_geom_bond_atom_site_label_1
_geom_bond_atom_site_label_2
_ccdc_geom_bond_type
C3    C88   A    
O28   Zn7   S    
C61   O33   A    
C26   H33   S    
O1    Zn9   S    
C62   O35   A    
C22   H30   S    
C41   C60   S    
Br8   C75   S    
C62   O48   A    
C36   C58   S    
C26   C34   A    
C35   C90   S    
H46   O50   S    
C77   H4    S    
C60   O46   A    
C3    O57   S    
O14   Zn16  S    
C73   C74   S    
C74   C84   S    
C63   O36   A    
O22   Zn5   S    
C69   C70   S    
C70   C82   S    
O37   Zn1   S    
C14   C27   A    
C38   C41   A    
C69   C81   S    
C89   H14   S    
O47   Zn7   S    
C88   H13   S    
C51   O22   A    
C78   H5    S    
C9    C18   A    
C20   C29   A    
C64   O38   A    
C2    C95   A    
C6    C79   S    
C4    C96   A    
C28   C50   S    
C78   C83   S    
C66   O42   A    
O48   Zn8   S    
C78   C80   S    
O18   Zn3   S    
C38   H37   S    
C25   H32   S    
C66   C84   S    
O1    Zn5   S    
C40   H39   S    
C49   H43   S    
C92   C96   A    
C32   C54   S    
C23   C32   A    
C68   O3    A    
C43   C48   A    
C7    C99   A    
C55   O27   A    
C1    C5    S    
C71   C82   S    
C75   H55   S    
C44   C61   S    
O34   Zn14  S    
O43   Zn14  S    
O23   Zn13  S    
O38   Zn11  S    
C100  O55   S    
C28   C85   A    
C40   C43   A    
O12   Zn10  S    
C79   O4    A    
C1    O45   A    
C13   O56   A    
C56   O30   A    
C21   C30   A    
C5    C14   A    
C37   H36   S    
C93   H17   S    
C33   C91   A    
O42   Zn15  S    
C61   O47   A    
C43   C62   S    
C15   C19   A    
C51   O6    A    
C17   H25   S    
O35   Zn4   S    
O23   Zn12  S    
C76   H56   S    
O9    Zn12  S    
O44   Zn5   S    
O13   Zn15  S    
C12   C26   A    
C69   H12   S    
O3    Zn15  S    
H52   O57   S    
C39   H38   S    
C97   O52   S    
C86   H10   S    
C53   O25   A    
C71   H34   S    
C85   H9    S    
C72   C75   S    
C59   O31   A    
O1    Zn1   S    
O6    Zn9   S    
O34   Zn4   S    
C47   H41   S    
O2    Zn12  S    
C57   O18   A    
C45   C47   A    
C17   C21   A    
O58   Zn11  S    
C65   O40   A    
O32   Zn2   S    
C35   O16   A    
C67   H1    S    
C93   C97   A    
C80   H8    S    
C50   O24   A    
Br1   C67   S    
O30   Zn8   S    
C24   O17   A    
C72   H45   S    
C50   O5    A    
C76   C77   S    
C65   C83   S    
Br4   C71   S    
C5    C97   A    
C91   C95   A    
C66   O43   A    
O10   Zn13  S    
O19   Zn3   S    
C32   C89   A    
C9    C46   S    
C8    C100  A    
O4    Zn14  S    
C74   H54   S    
Br7   C74   S    
C87   H11   S    
C37   C38   A    
O21   Zn4   S    
C57   O2    A    
C45   H40   S    
C76   H2    S    
C15   H22   S    
O26   Zn6   S    
C73   C83   S    
C6    C15   A    
C30   C87   A    
C35   O59   A    
C70   H23   S    
H48   O52   S    
O15   Zn16  S    
C18   H26   S    
O59   Zn10  S    
C34   C92   A    
C85   C98   A    
C99   O54   S    
O23   Zn3   S    
C8    C17   A    
O31   Zn16  S    
C94   O49   S    
C46   O60   A    
C39   C40   A    
C63   C81   S    
C2    C11   A    
H50   O54   S    
O12   Zn6   S    
C24   O58   A    
C4    C12   A    
H49   O53   S    
O46   Zn6   S    
C60   O32   A    
C53   O8    A    
C80   C84   S    
O36   Zn9   S    
C56   O11   A    
H47   O51   S    
C27   C36   A    
C1    O15   A    
C95   O50   S    
C29   C51   S    
C87   C100  A    
O39   Zn10  S    
C64   O39   A    
C30   C52   S    
O33   Zn3   S    
C29   C86   A    
C52   O26   A    
C13   O14   A    
C18   C22   A    
C25   C33   A    
H51   O55   S    
C86   C99   A    
C14   H21   S    
C11   C25   A    
O17   Zn2   S    
O5    Zn1   S    
O16   Zn2   S    
C48   C49   A    
O20   Zn4   S    
C48   H42   S    
O24   Zn5   S    
Br5   C72   S    
C34   C56   S    
C79   O20   A    
C58   O29   A    
C21   H29   S    
C44   C49   A    
C55   O10   A    
C91   H15   S    
C64   C82   S    
O60   Zn13  S    
O8    Zn11  S    
C22   C31   A    
C63   O37   A    
C65   O41   A    
C7    C16   A    
O1    Zn16  S    
C20   H28   S    
C52   O7    A    
C73   H53   S    
C68   O21   A    
O41   Zn12  S    
C16   C20   A    
C96   O51   S    
C36   C93   A    
O40   Zn13  S    
C77   H3    S    
C3    C9    A    
C54   O28   A    
C77   C82   S    
C12   H20   S    
C39   C44   A    
C8    C57   S    
C31   C53   S    
C19   C28   A    
O11   Zn14  S    
O12   Zn2   S    
H44   O49   S    
O27   Zn7   S    
C42   C59   S    
C42   C47   A    
C78   H6    S    
C19   H27   S    
C80   H7    S    
O25   Zn6   S    
O23   Zn7   S    
Br2   C69   S    
C90   C94   A    
C10   H18   S    
C16   H24   S    
C54   O9    A    
C67   C71   S    
C37   C42   A    
C72   C83   S    
C41   C45   A    
C4    C13   S    
C11   H19   S    
O56   Zn1   S    
C7    C68   S    
O34   Zn8   S    
O45   Zn9   S    
C31   C88   A    
O34   Zn15  S    
C67   C81   S    
O12   Zn11  S    
C2    C24   S    
C6    C98   A    
C98   O53   S    
C75   C84   S    
C76   C81   S    
Br6   C73   S    
C33   C55   S    
C46   O19   A    
C10   C23   A    
C10   C90   A    
O29   Zn8   S    
C58   O13   A    
Br3   C70   S    
C92   H16   S    
C89   C94   A    
C59   O44   A    
C23   H31   S    
C27   H35   S    
O7    Zn10  S    
