data_mof_unit_23835.cif
_audit_creation_date              2012-10-26T18:51:38-0400
_audit_creation_method            fapswitch 2.2
_symmetry_space_group_name_H-M    P1
_symmetry_Int_Tables_number       1
_space_group_crystal_system       triclinic
_cell_length_a                    11.7003
_cell_length_b                    14.733004
_cell_length_c                    14.703961
_cell_angle_alpha                 64.836029
_cell_angle_beta                  103.474103
_cell_angle_gamma                 103.012894
_cell_volume                      2207.96570701

loop_
_atom_site_label
_atom_site_type_symbol
_atom_type_description
_atom_site_fract_x
_atom_site_fract_y
_atom_site_fract_z
_atom_type_partial_charge
C1    C     C_R   0.481727 0.119842 0.312025 0.549056
C2    C     C_R   0.495525 0.608177 0.096516 0.280399
C3    C     C_R   0.720807 0.300425 0.642340 -0.107776
C4    C     C_R   0.283151 0.703206 0.351437 -0.114483
C5    C     C_R   0.677286 0.210460 0.627924 0.273591
C6    C     C_R   0.324776 0.791459 0.369627 0.280685
C7    C     C_R   0.510106 0.282262 0.514648 0.020992
C8    C     C_R   0.488079 0.716722 0.486568 0.020306
C9    C     C_R   0.545280 0.372758 0.533416 -0.018777
C10   C     C_R   0.452295 0.626498 0.467428 -0.016085
C11   C     C_R   0.657098 0.382758 0.593922 0.070418
C12   C     C_R   0.518406 0.880104 0.687984 0.550423
C13   C     C_R   0.341744 0.617734 0.404831 0.048928
C14   C     C_R   0.475175 0.453716 0.492968 0.018301
C15   C     C_R   0.521378 0.545199 0.508876 0.019112
C16   C     C_R   0.284099 0.000138 0.499841 0.550573
C17   C     C_R   0.715895 0.999910 0.500076 0.550734
C18   C     C_R   0.636902 0.554091 0.562866 -0.052858
C19   C     C_R   0.358713 0.444163 0.440654 -0.032723
C20   C     C_R   0.703865 0.474510 0.605707 0.197072
C21   C     C_R   0.291045 0.524415 0.396404 0.202888
C22   C     C_1   0.162399 0.000242 0.499747 -0.027582
C23   C     C_R   0.478456 0.323392 0.999572 0.035580
C24   C     C_1   0.837572 0.999913 0.499953 -0.022299
C25   C     C_1   0.059881 0.000174 0.499725 -0.047129
C26   C     C_1   0.940063 0.000019 0.499825 -0.043181
C27   C     C_R   0.474178 0.187821 0.203751 -0.027575
C28   C     C_R   0.527494 0.812197 0.796377 -0.027494
C29   C     C_R   0.447194 0.217041 0.024914 0.162802
C30   C     C_R   0.553341 0.784476 0.974669 0.161269
C31   C     C_R   0.444851 0.150641 0.127019 -0.132296
C32   C     C_R   0.551179 0.850062 0.872162 -0.135008
C33   C     C_R   0.496556 0.292100 0.177223 -0.083260
C34   C     C_R   0.528635 0.677701 0.001637 0.035207
C35   C     C_R   0.512542 0.707860 0.824041 -0.082582
C36   C     C_R   0.485142 0.360581 0.075545 -0.023087
C37   C     C_R   0.524501 0.640129 0.926260 -0.022066
C38   C     C_3   0.295092 0.189058 0.893812 -0.265145
C39   C     C_3   0.705360 0.822832 0.100110 -0.267586
C40   C     C_3   0.913827 0.518943 0.599285 -0.334296
C41   C     C_3   0.115101 0.416205 0.340390 -0.276318
C42   C     C_3   0.140861 0.862305 0.323730 -0.301349
C43   C     C_3   0.761999 0.090138 0.789289 -0.305588
C44   C     C_R   0.491301 0.465956 0.049513 -0.046471
C45   C     C_R   0.520628 0.534790 0.953248 -0.045183
C46   C     C_R   0.547254 0.495923 0.888054 0.242769
C47   C     C_R   0.465487 0.504608 0.115216 0.244040
C48   C     C_R   0.515045 0.392546 0.905916 0.277445
Cl1   Cl    Cl    0.542200 0.351268 0.816802 -0.551807
Cl2   Cl    Cl    0.469869 0.648482 0.187012 -0.540682
Cl3   Cl    Cl    0.643408 0.569693 0.796879 -0.624214
Cl4   Cl    Cl    0.372677 0.430041 0.208867 -0.625034
Cu1   Cu    Cu3+1 0.469550 0.918260 0.475690 0.982970
Cu2   Cu    Cu3+1 0.530450 0.081740 0.524310 0.982939
H1    H     H_    0.679546 0.623442 0.571484 0.121081
H2    H     H_    0.205438 0.702621 0.294841 0.126596
H3    H     H_    0.430217 0.102286 0.974355 0.244373
H4    H     H_    0.278653 0.159997 0.832844 0.154379
H5    H     H_    0.284394 0.270584 0.857752 0.177668
H6    H     H_    0.228526 0.146448 0.945876 0.120938
H7    H     H_    0.560433 0.898645 0.023731 0.244500
H8    H     H_    0.720074 0.852439 0.160508 0.154309
H9    H     H_    0.767609 0.869727 0.045034 0.116144
H10   H     H_    0.724147 0.743327 0.136330 0.177148
H11   H     H_    0.828186 0.533281 0.699571 0.304169
H12   H     H_    0.318002 0.372991 0.436215 0.109989
H13   H     H_    0.001330 0.522284 0.648247 0.157492
H14   H     H_    0.905593 0.595193 0.537559 0.138999
H15   H     H_    0.910335 0.463671 0.565368 0.146241
H16   H     H_    0.112962 0.545061 0.363644 0.227760
H17   H     H_    0.024181 0.423732 0.296435 0.149231
H18   H     H_    0.108034 0.355996 0.417501 0.119028
H19   H     H_    0.166016 0.394863 0.299447 0.224873
H20   H     H_    0.279144 0.913651 0.239859 0.233203
H21   H     H_    0.086178 0.818146 0.279533 0.106215
H22   H     H_    0.109589 0.937044 0.293226 0.149713
H23   H     H_    0.485420 0.679061 0.764732 0.187280
H24   H     H_    0.128225 0.822047 0.404782 0.163354
H25   H     H_    0.819087 0.138846 0.651036 0.237767
H26   H     H_    0.836255 0.139767 0.815405 0.122518
H27   H     H_    0.785940 0.012480 0.822047 0.146415
H28   H     H_    0.680875 0.087732 0.817730 0.164554
H29   H     H_    0.528088 0.320259 0.236862 0.187748
H30   H     H_    0.565188 0.930863 0.851839 0.123684
H31   H     H_    0.422638 0.069835 0.146285 0.121146
H32   H     H_    0.564531 0.725133 0.541056 0.149681
H33   H     H_    0.432681 0.272899 0.461367 0.150007
H34   H     H_    0.804412 0.305128 0.691829 0.143177
N1    N     N_R   0.576230 0.204580 0.560790 -0.217381
N2    N     N_R   0.423770 0.795420 0.439210 -0.218392
N3    N     N_2   0.413881 0.175760 0.949255 -0.453140
N4    N     N_2   0.583851 0.827407 0.048974 -0.451133
N5    N     N_2   0.820011 0.488215 0.659925 -0.501140
N6    N     N_2   0.170200 0.511890 0.347505 -0.498542
N7    N     N_2   0.265072 0.877664 0.314505 -0.448716
N8    N     N_2   0.741817 0.126964 0.679365 -0.452762
O1    O     O_R   0.459870 0.022090 0.338120 -0.480917
O2    O     O_R   0.540130 0.977910 0.661880 -0.469806
O3    O     O_R   0.511290 0.160150 0.379180 -0.503896
O4    O     O_R   0.488710 0.839850 0.620820 -0.506480
O5    O     O_R   0.311490 0.930960 0.479480 -0.470481
O6    O     O_R   0.688510 0.069040 0.520520 -0.484081
O7    O     O_R   0.362910 0.069020 0.520540 -0.502986
O8    O     O_R   0.637090 0.930980 0.479460 -0.500090

loop_
_geom_bond_atom_site_label_1
_geom_bond_atom_site_label_2
_ccdc_geom_bond_type
C15   C18   A    
C20   N5    S    
C31   H31   S    
C34   C37   A    
C40   N5    S    
C17   O6    A    
C1    O3    A    
Cu1   Cu2   S    
C27   C33   A    
C39   H10   S    
C42   H21   S    
C12   C28   S    
C23   C29   A    
H16   N6    S    
C17   O8    A    
C24   C26   T    
C10   C15   A    
C21   N6    S    
Cu1   O8    S    
C7    N1    A    
C33   C36   A    
C19   H12   S    
C4    C13   A    
C2    Cl2   S    
C38   H4    S    
C7    H33   S    
C28   C35   A    
Cu1   O5    S    
C22   C25   T    
C12   O2    A    
C44   C47   A    
C41   H17   S    
C2    C34   A    
H11   N5    S    
C4    H2    S    
C14   C19   A    
Cu1   O4    S    
C32   H30   S    
C46   C48   A    
C11   C20   A    
C17   C24   S    
C40   H15   S    
C30   C34   A    
C27   C31   A    
C42   N7    S    
Cu2   O7    S    
C28   C32   A    
Cu2   N1    S    
C30   N4    S    
C1    O1    A    
Cu1   O1    S    
C43   H26   S    
C6    N2    A    
C38   N3    S    
C40   H13   S    
C9    C14   A    
C9    C11   A    
C16   O7    A    
C41   N6    S    
C43   N8    S    
C13   C21   A    
C33   H29   S    
C18   H1    S    
C41   H18   S    
C38   H6    S    
C4    C6    A    
C48   Cl1   S    
C42   H24   S    
C43   H27   S    
Cu2   O3    S    
C36   C44   A    
C8    N2    A    
C37   C45   A    
C39   N4    S    
C29   N3    S    
C5    N8    S    
C44   C45   A    
C35   C37   A    
C7    C9    A    
C39   H8    S    
C16   C22   S    
C23   C48   A    
H3    N3    S    
C19   C21   A    
C3    H34   S    
H20   N7    S    
Cu2   O6    S    
C3    C5    A    
C10   C13   A    
C18   C20   A    
H7    N4    S    
C47   Cl4   S    
C23   C36   A    
C2    C47   A    
C39   H9    S    
C42   H22   S    
C25   C26   S    
H25   N8    S    
C29   C31   A    
C30   C32   A    
C46   Cl3   S    
C35   H23   S    
C8    H32   S    
C12   O4    A    
C3    C11   A    
C41   H19   S    
C38   H5    S    
C45   C46   A    
C16   O5    A    
C8    C10   A    
C6    N7    S    
C40   H14   S    
Cu1   N2    S    
C1    C27   S    
C43   H28   S    
C14   C15   A    
Cu2   O2    S    
C5    N1    A    
