data_mof_unit_65689.cif
_audit_creation_date              2012-12-10T19:37:37-0500
_audit_creation_method            fapswitch 2.2
_symmetry_space_group_name_H-M    P1
_symmetry_Int_Tables_number       1
_space_group_crystal_system       triclinic
_cell_length_a                    13.909134
_cell_length_b                    15.882599
_cell_length_c                    17.129042
_cell_angle_alpha                 96.245533
_cell_angle_beta                  89.496702
_cell_angle_gamma                 82.416553
_cell_volume                      3727.64436278

loop_
_atom_site_label
_atom_site_type_symbol
_atom_type_description
_atom_site_fract_x
_atom_site_fract_y
_atom_site_fract_z
_atom_type_partial_charge
C1    C     C_R   0.499618 0.510419 0.651262 0.887606
C2    C     C_R   0.500382 0.489581 0.348738 0.887607
C3    C     C_R   0.557636 0.578452 0.861884 0.560391
C4    C     C_R   0.442363 0.421548 0.138116 0.560391
C5    C     C_R   0.553947 0.575369 0.779972 -0.043240
C6    C     C_R   0.446053 0.424631 0.220028 -0.043241
C7    C     C_R   0.449542 0.253482 0.536973 0.685978
C8    C     C_R   0.550457 0.746518 0.463026 0.685977
C9    C     C_R   0.450653 0.164223 0.535732 -0.052983
C10   C     C_R   0.549346 0.835777 0.464267 -0.052983
C11   C     C_R   0.517496 0.108025 0.484819 0.297790
C12   C     C_R   0.482504 0.891975 0.515181 0.297790
C13   C     C_R   0.579329 0.144779 0.437353 -0.412260
C14   C     C_R   0.420672 0.855221 0.562648 -0.412260
C15   C     C_R   0.575740 0.234127 0.440543 0.255853
C16   C     C_R   0.424261 0.765873 0.559458 0.255853
C17   C     C_R   0.316355 0.513644 0.500718 0.824708
C18   C     C_R   0.683645 0.486356 0.499282 0.824708
C19   C     C_1   0.786897 0.478185 0.498837 -0.135462
C20   C     C_1   0.213103 0.521814 0.501163 -0.135462
C21   C     C_2   0.978113 0.464552 0.498140 0.160634
C22   C     C_2   0.021887 0.535447 0.501859 0.160637
C23   C     C_1   0.126137 0.528592 0.501518 0.000168
C24   C     C_1   0.873863 0.471408 0.498482 0.000167
C25   C     C_R   0.501426 0.516115 0.737356 -0.104212
C26   C     C_R   0.498574 0.483885 0.262644 -0.104211
C27   C     C_R   0.451779 0.461516 0.777654 0.051454
C28   C     C_R   0.548222 0.538483 0.222346 0.051454
C29   C     C_R   0.456477 0.465166 0.859222 -0.306103
C30   C     C_R   0.543524 0.534833 0.140778 -0.306103
C31   C     C_R   0.510255 0.523110 0.901797 0.238960
C32   C     C_R   0.489744 0.476890 0.098203 0.238960
Cu1   Cu    Cu3+1 0.495370 0.585120 0.503830 1.038969
Cu2   Cu    Cu3+1 0.504630 0.414880 0.496170 1.038969
H1    H     H_    0.582384 0.577447 0.111209 0.209863
H2    H     H_    0.417617 0.422552 0.888791 0.209863
H3    H     H_    0.630716 0.103751 0.397448 0.185378
H4    H     H_    0.369285 0.896249 0.602553 0.185378
N1    N     N_2   0.518638 0.527935 0.984578 -0.180662
N2    N     N_2   0.481361 0.472065 0.015422 -0.180662
N3    N     N_R   0.511590 0.287020 0.490400 -0.217924
N4    N     N_R   0.488410 0.712980 0.509600 -0.217924
N5    N     N_2   0.526090 0.016031 0.477307 -0.148956
N6    N     N_2   0.473910 0.983969 0.522693 -0.148956
O1    O     O_R   0.495670 0.579790 0.617520 -0.554182
O2    O     O_R   0.504330 0.420210 0.382480 -0.554183
O3    O     O_R   0.503490 0.436020 0.611040 -0.532424
O4    O     O_R   0.496510 0.563980 0.388960 -0.532424
O5    O     O_R   0.357690 0.582040 0.503680 -0.578896
O6    O     O_R   0.642310 0.417960 0.496320 -0.578896
O7    O     O_R   0.365510 0.438280 0.497200 -0.515547
O8    O     O_R   0.634490 0.561720 0.502800 -0.515548
N7    N     N_3   0.965818 0.618522 0.506190 -0.577648
H5    H     H_    0.984566 0.654238 0.557367 0.221687
H6    H     H_    0.986495 0.648355 0.458415 0.225057
N8    N     N_3   0.034182 0.381478 0.493810 -0.577647
H7    H     H_    0.015432 0.345760 0.442635 0.221687
H8    H     H_    0.013506 0.351648 0.541588 0.225056
N9    N     N_3   0.605449 0.596548 0.263910 -0.485007
H9    H     H_    0.579136 0.658411 0.251760 0.247727
H10   H     H_    0.676828 0.582147 0.242034 0.231821
N10   N     N_3   0.394552 0.403452 0.736089 -0.485007
H11   H     H_    0.323173 0.417852 0.757965 0.231821
H12   H     H_    0.420866 0.341588 0.748240 0.247725
F1    F     F_    0.609100 0.634744 0.902859 -0.654038
F2    F     F_    0.390899 0.365256 0.097142 -0.654038
N11   N     N_3   0.606064 0.630612 0.739927 -0.547424
H13   H     H_    0.679328 0.618839 0.753775 0.252175
H14   H     H_    0.580219 0.693824 0.761255 0.259168
N12   N     N_3   0.393935 0.369389 0.260073 -0.547424
H15   H     H_    0.419779 0.306176 0.238746 0.259169
H16   H     H_    0.320671 0.381162 0.246226 0.252175
F3    F     F_    0.615205 0.693285 0.415109 -0.650279
F4    F     F_    0.384793 0.306715 0.584890 -0.650279
N13   N     N_3   0.616311 0.867618 0.414541 -0.539411
H17   H     H_    0.604547 0.844506 0.356373 0.244548
H18   H     H_    0.686662 0.842967 0.428695 0.250604
N14   N     N_3   0.383688 0.132382 0.585458 -0.539411
H19   H     H_    0.395451 0.155494 0.643626 0.244548
H20   H     H_    0.313336 0.157032 0.571303 0.250604
N15   N     N_3   0.639167 0.269650 0.390907 -0.507116
H21   H     H_    0.626144 0.247923 0.332624 0.210292
H22   H     H_    0.710572 0.245938 0.403018 0.202942
N16   N     N_3   0.360834 0.730350 0.609094 -0.507116
H23   H     H_    0.373858 0.752076 0.667377 0.210292
H24   H     H_    0.289429 0.754062 0.596983 0.202942

loop_
_geom_bond_atom_site_label_1
_geom_bond_atom_site_label_2
_ccdc_geom_bond_type
C4    F2    S    
C27   C29   A    
Cu1   O1    S    
C5    N11   S    
C17   O7    A    
N15   H21   S    
C18   O8    A    
C15   N15   S    
N7    H5    S    
C2    O2    A    
Cu1   O8    S    
C29   H2    S    
Cu2   O7    S    
C30   H1    S    
Cu1   N4    S    
N16   H24   S    
N14   H20   S    
Cu1   O5    S    
C16   N16   S    
C17   C20   S    
N8    H7    S    
C7    C9    A    
C18   C19   S    
N10   H12   S    
C31   N1    S    
C11   N5    S    
N12   H15   S    
Cu2   O2    S    
C7    F4    S    
C13   H3    S    
C32   N2    S    
N9    H9    S    
C21   C22   D    
C1    C25   S    
C3    F1    S    
Cu2   N3    S    
N15   H22   S    
C22   N7    S    
N7    H6    S    
Cu2   O6    S    
N9    H10   S    
N11   H13   S    
N16   H23   S    
C15   N3    A    
C4    C6    A    
C17   O5    A    
N1    N2    D    
N14   H19   S    
C1    O3    A    
C2    O4    A    
N11   H14   S    
N13   H17   S    
N10   H11   S    
C27   N10   S    
C14   H4    S    
C9    C11   A    
C10   N13   S    
C20   C23   T    
Cu1   Cu2   S    
C2    C26   S    
C3    C31   A    
N13   H18   S    
C4    C32   A    
C10   C12   A    
C5    C25   A    
C12   C14   A    
C13   C15   A    
N5    N6    D    
C14   C16   A    
C16   N4    A    
C18   O6    A    
C28   N9    S    
C6    N12   S    
C8    N4    A    
C3    C5    A    
C21   N8    S    
C25   C27   A    
C26   C28   A    
C28   C30   A    
C19   C24   T    
C29   C31   A    
C30   C32   A    
C11   C13   A    
C1    O1    A    
C6    C26   A    
C8    F3    S    
N8    H8    S    
C9    N14   S    
C7    N3    A    
C8    C10   A    
C21   C24   S    
Cu1   O4    S    
C22   C23   S    
C12   N6    S    
N12   H16   S    
Cu2   O3    S    
