data_mof_unit_29334.cif
_audit_creation_date              2013-03-05T16:05:09-0500
_audit_creation_method            fapswitch 2.2
_symmetry_space_group_name_H-M    P1
_symmetry_Int_Tables_number       1
_space_group_crystal_system       triclinic
_cell_length_a                    10.883733
_cell_length_b                    9.568581
_cell_length_c                    10.796155
_cell_angle_alpha                 89.972342
_cell_angle_beta                  91.992746
_cell_angle_gamma                 90.267803
_cell_volume                      1123.63960158

loop_
_atom_site_label
_atom_site_type_symbol
_atom_site_description
_atom_site_fract_x
_atom_site_fract_y
_atom_site_fract_z
_atom_type_partial_charge
O1    O     O_R   0.319660 0.618740 0.499990 -0.532902
O2    O     O_R   0.319660 0.381260 0.499990 -0.526497
C1    C     C_R   0.263642 0.499117 0.514093 0.914905
O3    O     O_R   0.499990 0.618790 0.317690 -0.538256
O4    O     O_R   0.499990 0.381210 0.317690 -0.550397
C2    C     C_R   0.503605 0.500009 0.259634 0.852936
Cu1   Cu    Cu3+1 0.500020 0.640660 0.500000 1.102758
Cu2   Cu    Cu3+1 0.500020 0.359340 0.500000 1.089061
O5    O     O_R   0.680370 0.618830 0.500010 -0.541750
O6    O     O_R   0.680370 0.381170 0.500010 -0.548796
O7    O     O_R   0.500030 0.618780 0.682310 -0.587994
O8    O     O_R   0.500030 0.381220 0.682310 -0.604010
C3    C     C_R   0.738399 0.499896 0.505489 0.909799
C4    C     C_R   0.502839 0.499659 0.739823 0.779141
C5    C     C_3   0.401492 0.587922 0.064933 -0.373903
C6    C     C_3   0.489886 0.349395 0.069181 -0.315289
H1    H     H_    0.312666 0.555426 0.104537 0.215562
H2    H     H_    0.395101 0.314724 0.089531 0.250445
C7    C     C_3   0.392729 0.575992 0.923299 -0.342905
C8    C     C_3   0.503516 0.347120 0.928305 -0.359749
H3    H     H_    0.617871 0.686566 0.903861 0.211563
H4    H     H_    0.705964 0.537081 0.879946 0.201159
C9    C     C_3   0.637979 0.555956 0.074103 0.519075
C10   C     C_3   0.509837 0.499938 0.120837 -0.119476
C11   C     C_3   0.506345 0.498789 0.877165 -0.001834
C12   C     C_3   0.624326 0.574048 0.929035 -0.407274
C13   C     C_R   0.065502 0.367795 0.529123 0.232072
C14   C     C_R   0.068047 0.618959 0.567938 0.253219
C15   C     C_R   0.937793 0.369646 0.514850 0.241509
C16   C     C_R   0.939261 0.621303 0.554303 0.240490
C17   C     C_R   0.873735 0.498041 0.520444 -0.332342
C18   C     C_R   0.131117 0.495379 0.538233 -0.345353
C19   C     C_R   0.430779 0.072854 0.413849 0.408507
C20   C     C_R   0.423502 0.925181 0.420967 0.401016
N1    N     N_R   0.500030 0.852070 0.500030 -0.256575
N2    N     N_R   0.500030 0.147930 0.500030 -0.250488
C21   C     C_R   0.571716 0.926245 0.583563 0.011616
C22   C     C_R   0.569179 0.074638 0.585744 -0.004078
H5    H     H_    0.628708 0.871040 0.651073 0.197327
H6    H     H_    0.624255 0.130483 0.654936 0.182161
H7    H     H_    0.416016 0.698509 0.086079 0.286412
H8    H     H_    0.555940 0.274238 0.112767 0.260217
H9    H     H_    0.307318 0.518491 0.894310 0.219213
H10   H     H_    0.425052 0.287179 0.885442 0.221340
H11   H     H_    0.387025 0.682789 0.882717 0.243476
H12   H     H_    0.589454 0.291757 0.905228 0.224159
N3    N     N_R   0.672413 0.692174 0.131213 0.121535
O9    O     O_R   0.609951 0.804834 0.105681 -0.326672
O10   O     O_R   0.772099 0.704541 0.200681 -0.231753
N4    N     N_R   0.735138 0.452604 0.107626 0.126576
O11   O     O_R   0.758809 0.422533 0.223525 -0.316440
O12   O     O_R   0.797566 0.388403 0.024292 -0.313089
N5    N     N_R   0.126501 0.235496 0.545268 0.191724
O13   O     O_R   0.191686 0.211740 0.646396 -0.309272
O14   O     O_R   0.101599 0.132114 0.470164 -0.169199
N6    N     N_R   0.132955 0.734575 0.626609 0.186276
O15   O     O_R   0.218346 0.709985 0.710882 -0.375234
O16   O     O_R   0.096093 0.862702 0.611031 -0.161555
N7    N     N_R   0.874142 0.238587 0.502242 0.180799
O17   O     O_R   0.864828 0.157300 0.598117 -0.279536
O18   O     O_R   0.841757 0.191993 0.392660 -0.203891
N8    N     N_R   0.875040 0.745731 0.585985 0.166537
O19   O     O_R   0.849379 0.769336 0.700860 -0.335571
O20   O     O_R   0.853862 0.841622 0.502548 -0.205059
N9    N     N_R   0.376076 0.138821 0.306674 0.140092
O21   O     O_R   0.279246 0.216311 0.315297 -0.286306
O22   O     O_R   0.404407 0.093218 0.197952 -0.329627
N10   N     N_R   0.326244 0.855267 0.353624 0.155763
O23   O     O_R   0.337244 0.831392 0.236651 -0.312102
O24   O     O_R   0.215966 0.862042 0.395285 -0.243259

loop_
_geom_bond_atom_site_label_1
_geom_bond_atom_site_label_2
_geom_bond_distance
_ccdc_geom_bond_type
O4    Cu2   1.979230 S    
N4    O12   1.302088 A    
H3    C12   1.112226 S    
C13   N5    1.439887 S    
C14   C16   1.404568 A    
C21   C22   1.420531 A    
C13   C15   1.393331 A    
N3    O9    1.301429 A    
N9    O22   1.300070 A    
Cu2   O8    1.979446 S    
C16   C17   1.416948 A    
C6    C8    1.533433 S    
C11   C12   1.556513 S    
C2    C10   1.502372 S    
Cu1   O5    1.974931 S    
C16   N8    1.431032 S    
C19   C20   1.417068 A    
C14   N6    1.444429 S    
C19   N9    1.430592 S    
N7    O17   1.300935 A    
C6    C10   1.556463 S    
C6    H2    1.111329 S    
O1    Cu1   1.973185 S    
N5    O13   1.301700 A    
N9    O21   1.297416 A    
Cu1   O7    1.979245 S    
N8    O19   1.300803 A    
O3    Cu1   1.979430 S    
O4    C2    1.298912 A    
C14   C18   1.412642 A    
N3    O10   1.302275 A    
C5    C10   1.556549 S    
C22   H6    1.081259 S    
N6    O16   1.300769 A    
N4    O11   1.301059 A    
O2    C1    1.296030 A    
N5    O14   1.300933 A    
C4    C11   1.481954 S    
Cu2   N2    2.022895 S    
C1    C18   1.474887 S    
C7    C11   1.540981 S    
O7    C4    1.297684 A    
C8    H12   1.112889 S    
C8    H10   1.113817 S    
N7    O18   1.301036 A    
O3    C2    1.299618 A    
Cu1   Cu2   2.691833 S    
C8    C11   1.553034 S    
C9    C10   1.590174 S    
N2    C22   1.367638 A    
C6    H8    1.111942 S    
C21   H5    1.079932 S    
C19   N2    1.377187 A    
C9    N3    1.483110 S    
N6    O15   1.299968 A    
C5    H7    1.092227 S    
C15   C17   1.417776 A    
C20   N1    1.366438 A    
H4    C12   1.109663 S    
C9    C12   1.577577 S    
C20   N10   1.427215 S    
C5    H1    1.113522 S    
N10   O24   1.298220 A    
O5    C3    1.304438 A    
C9    N4    1.486604 S    
N8    O20   1.301226 A    
N1    C21   1.368316 A    
C13   C18   1.413185 A    
C5    C7    1.533038 S    
Cu1   N1    2.022893 S    
C3    C17   1.476374 S    
Cu2   O6    1.972989 S    
O2    Cu2   1.975134 S    
C7    H11   1.112815 S    
C15   N7    1.434077 S    
O8    C4    1.292232 A    
N10   O23   1.293213 A    
O1    C1    1.305691 A    
O6    C3    1.297588 A    
C7    H9    1.113540 S    
