data_mof_unit_58884.cif
_audit_creation_date              2012-12-10T17:30:20-0500
_audit_creation_method            fapswitch 2.2
_symmetry_space_group_name_H-M    P1
_symmetry_Int_Tables_number       1
_space_group_crystal_system       triclinic
_cell_length_a                    12.089424
_cell_length_b                    12.772613
_cell_length_c                    14.862175
_cell_angle_alpha                 91.125093
_cell_angle_beta                  87.577855
_cell_angle_gamma                 95.184649
_cell_volume                      2283.20117198

loop_
_atom_site_label
_atom_site_type_symbol
_atom_type_description
_atom_site_fract_x
_atom_site_fract_y
_atom_site_fract_z
_atom_type_partial_charge
C1    C     C_R   0.523391 0.700079 0.497544 0.854324
C2    C     C_R   0.382171 0.137078 0.449014 -0.345297
C3    C     C_R   0.467919 0.869059 0.450488 0.391857
C4    C     C_R   0.535553 0.133298 0.550400 0.376770
C5    C     C_R   0.463071 0.974911 0.471550 0.089172
C6    C     C_R   0.537528 0.025402 0.533767 -0.010399
C7    C     C_R   0.947610 0.399893 0.416438 -0.257984
C8    C     C_R   0.052390 0.600088 0.583578 -0.254217
C9    C     C_R   0.833280 0.409807 0.424396 -0.077966
C10   C     C_R   0.166717 0.590163 0.575630 -0.065435
C11   C     C_R   0.862818 0.544196 0.536368 0.540308
C12   C     C_R   0.476642 0.299919 0.503704 0.931208
C13   C     C_R   0.137186 0.455817 0.463619 0.536186
C14   C     C_R   0.978587 0.536460 0.530321 -0.005327
C15   C     C_R   0.021416 0.463541 0.469677 -0.003642
C16   C     C_R   0.501243 0.499839 0.672523 0.887936
C17   C     C_R   0.498677 0.499804 0.327366 0.859696
C18   C     C_R   0.509750 0.406173 0.185057 -0.248331
C19   C     C_R   0.483765 0.591105 0.814808 -0.250708
C20   C     C_R   0.495380 0.499130 0.232106 -0.027079
C21   C     C_R   0.503523 0.499622 0.767614 -0.036638
C22   C     C_R   0.478708 0.591619 0.189066 -0.249946
C23   C     C_R   0.465005 0.684194 0.955494 -0.269077
C24   C     C_R   0.519372 0.406760 0.810406 -0.249456
C25   C     C_R   0.476490 0.592969 0.095539 0.072871
C26   C     C_R   0.511679 0.402903 0.904124 0.064724
C27   C     C_R   0.492496 0.498291 0.046791 0.039719
C28   C     C_R   0.494790 0.497311 0.953007 0.044463
C29   C     C_R   0.508091 0.404816 0.092031 0.122181
C30   C     C_R   0.481196 0.591289 0.907783 0.120457
C31   C     C_R   0.462023 0.686373 0.049297 -0.002962
C32   C     C_R   0.522079 0.308495 0.950293 -0.003757
C33   C     C_R   0.444151 0.787659 0.095782 0.105859
C34   C     C_R   0.521714 0.311292 0.044219 -0.267598
C35   C     C_R   0.348322 0.797871 0.150916 -0.150280
C36   C     C_R   0.330096 0.894684 0.191861 -0.071064
C37   C     C_R   0.407007 0.981894 0.177861 -0.108446
C38   C     C_R   0.501973 0.972604 0.122404 -0.125618
C39   C     C_R   0.520402 0.876026 0.081164 -0.144862
C40   C     C_R   0.530261 0.205345 0.903526 0.125268
C41   C     C_R   0.445963 0.163721 0.847202 -0.147213
C42   C     C_R   0.452551 0.065365 0.805239 -0.082492
C43   C     C_R   0.542177 0.007024 0.820273 -0.106561
C44   C     C_R   0.625585 0.047108 0.877036 -0.142158
C45   C     C_R   0.460056 0.187910 0.505194 -0.082618
C46   C     C_R   0.619738 0.145746 0.918665 -0.150346
C47   C     C_R   0.540064 0.812051 0.497860 -0.145529
C48   C     C_R   0.611703 0.967034 0.577355 -0.217798
C49   C     C_R   0.384046 0.030911 0.431692 -0.157093
C50   C     C_R   0.612990 0.860861 0.559128 -0.259577
H1    H     H_    0.522107 0.335347 0.221180 0.125304
H2    H     H_    0.666263 0.815536 0.596894 0.180775
H3    H     H_    0.666220 0.001108 0.628035 0.172127
H4    H     H_    0.325021 0.993643 0.385579 0.199384
H5    H     H_    0.222961 0.639253 0.616668 0.160482
H6    H     H_    0.777034 0.360689 0.383382 0.158026
H7    H     H_    0.287709 0.731083 0.161744 0.143429
H8    H     H_    0.256238 0.902102 0.234386 0.140817
H9    H     H_    0.392828 0.056726 0.209702 0.122490
H10   H     H_    0.561182 0.040280 0.111158 0.124694
H11   H     H_    0.594042 0.870002 0.037946 0.130252
H12   H     H_    0.471514 0.662034 0.778763 0.125950
H13   H     H_    0.375142 0.207353 0.836014 0.131865
H14   H     H_    0.387862 0.034123 0.761418 0.130802
H15   H     H_    0.546836 0.930652 0.788145 0.120941
H16   H     H_    0.694703 0.001621 0.888957 0.129141
H17   H     H_    0.684904 0.175712 0.962614 0.128473
H18   H     H_    0.682091 0.165520 0.596939 0.333408
H19   H     H_    0.431208 0.759184 0.361071 0.329844
H20   H     H_    0.256871 0.385281 0.407056 0.381627
H21   H     H_    0.743132 0.614721 0.592939 0.380766
H22   H     H_    0.977523 0.342618 0.368828 0.207930
H23   H     H_    0.022475 0.657349 0.631201 0.208232
H24   H     H_    0.470392 0.662182 0.229184 0.139753
H25   H     H_    0.536076 0.338285 0.769682 0.182933
H26   H     H_    0.454174 0.755466 0.919494 0.152106
H27   H     H_    0.530526 0.239694 0.080334 0.141885
H28   H     H_    0.324883 0.180777 0.413905 0.189853
N1    N     N_R   0.207800 0.519350 0.516680 -0.152309
N2    N     N_R   0.792200 0.480650 0.483320 -0.151309
O1    O     O_R   0.421700 0.658830 0.504450 -0.597712
O2    O     O_3   0.399254 0.822814 0.385892 -0.783247
O3    O     O_3   0.176189 0.383251 0.403332 -0.804967
O4    O     O_3   0.823820 0.616788 0.596632 -0.803460
O5    O     O_R   0.578300 0.341170 0.495550 -0.588069
O6    O     O_R   0.609310 0.646410 0.493750 -0.639250
O7    O     O_R   0.390690 0.353590 0.506250 -0.652739
O8    O     O_R   0.406180 0.506230 0.637500 -0.620663
O9    O     O_R   0.593820 0.493770 0.362500 -0.618990
O10   O     O_R   0.593800 0.493820 0.626800 -0.620316
O11   O     O_R   0.406200 0.506180 0.373200 -0.633091
O12   O     O_3   0.606555 0.188103 0.608877 -0.767663
Zn1   Zn    Zn3+2 0.374730 0.508290 0.507150 0.953210
Zn2   Zn    Zn3+2 0.625270 0.491710 0.492850 0.961757

loop_
_geom_bond_atom_site_label_1
_geom_bond_atom_site_label_2
_ccdc_geom_bond_type
C25   C31   A    
C13   N1    A    
C26   C32   A    
C16   C21   S    
C27   C29   A    
C41   C42   A    
C44   H16   S    
C35   C36   A    
C17   O11   A    
C23   H26   S    
C16   O10   A    
C33   C39   A    
C6    C48   A    
C12   O5    A    
C36   C37   A    
C19   C21   A    
C24   C26   A    
N1    Zn1   S    
C36   H8    S    
C34   H27   S    
C38   C39   A    
C11   C14   A    
C19   H12   S    
C1    O1    A    
C49   H4    S    
C17   C20   S    
C3    C47   A    
O9    Zn2   S    
H19   O2    S    
O6    Zn2   S    
H18   O12   S    
C22   C25   A    
C50   H2    S    
C31   C33   S    
C7    C15   A    
C5    C49   A    
C44   C46   A    
C18   H1    S    
O10   Zn2   S    
C47   C50   A    
C4    C45   A    
C2    C45   A    
C48   H3    S    
C39   H11   S    
C23   C30   A    
C17   O9    A    
C4    C6    A    
C7    H22   S    
C18   C29   A    
C1    C47   S    
C29   C34   A    
C9    N2    A    
C23   C31   A    
C40   C46   A    
C43   C44   A    
C37   C38   A    
C2    H28   S    
C2    C49   A    
O11   Zn1   S    
O1    Zn1   S    
O5    Zn2   S    
C43   H15   S    
C3    O2    S    
C9    H6    S    
H20   O3    S    
C37   H9    S    
C38   H10   S    
C40   C41   A    
C20   C22   A    
C13   C15   A    
C42   C43   A    
C22   H24   S    
N2    Zn2   S    
C42   H14   S    
H21   O4    S    
C1    O6    A    
C7    C9    A    
O8    Zn1   S    
C8    C14   A    
C12   O7    A    
C12   C45   S    
C3    C5    A    
C10   N1    A    
C24   H25   S    
C11   O4    S    
C25   C27   A    
C13   O3    S    
C26   C28   A    
C35   H7    S    
C28   C30   A    
C46   H17   S    
C5    C6    A    
O7    Zn1   S    
C48   C50   A    
C8    H23   S    
C33   C35   A    
C18   C20   A    
C32   C40   S    
C10   H5    S    
C11   N2    A    
C8    C10   A    
C21   C24   A    
C27   C28   A    
C16   O8    A    
C41   H13   S    
C14   C15   A    
C19   C30   A    
C32   C34   A    
C4    O12   S    
