data_mof_unit_33643.cif
_audit_creation_date              2012-12-11T20:46:39-0500
_audit_creation_method            fapswitch 2.2
_symmetry_space_group_name_H-M    P1
_symmetry_Int_Tables_number       1
_space_group_crystal_system       triclinic
_cell_length_a                    8.366836
_cell_length_b                    18.744497
_cell_length_c                    18.696264
_cell_angle_alpha                 100.785831
_cell_angle_beta                  93.618111
_cell_angle_gamma                 91.471177
_cell_volume                      2872.53089573

loop_
_atom_site_label
_atom_site_type_symbol
_atom_type_description
_atom_site_fract_x
_atom_site_fract_y
_atom_site_fract_z
_atom_type_partial_charge
Ba1   Ba    Ba6+2 0.153490 0.533960 0.468530 1.645145
Ba2   Ba    Ba6+2 0.656680 0.466030 0.531410 1.661847
C1    C     C_3   0.356284 0.721586 0.209364 -0.331520
C2    C     C_R   0.085047 0.903826 0.564721 -0.086864
C3    C     C_R   0.223917 0.045041 0.550109 -0.095987
C4    C     C_3   0.932321 0.724842 0.315891 0.310022
C5    C     C_R   0.067460 0.020680 0.521391 0.016582
C6    C     C_R   0.279829 0.115925 0.551975 -0.080354
C7    C     C_R   0.182804 0.166122 0.525177 -0.032820
C8    C     C_R   0.029120 0.142032 0.491327 0.002443
C9    C     C_R   0.972105 0.068734 0.488354 0.020508
C10   C     C_R   0.234478 0.239752 0.531421 -0.005673
C11   C     C_R   0.131973 0.288410 0.505652 -0.296841
C12   C     C_3   0.400463 0.700376 0.282493 0.324085
C13   C     C_R   0.983125 0.265429 0.469513 0.013732
C14   C     C_R   0.932617 0.191119 0.460286 -0.051427
C15   C     C_R   0.855297 0.924316 0.486762 0.024118
C16   C     C_3   0.946495 0.795004 0.286081 -0.237336
C17   C     C_R   0.797867 0.851252 0.485713 -0.011683
C18   C     C_R   0.890067 0.803976 0.521468 -0.054860
C19   C     C_R   0.026643 0.833798 0.564451 -0.015878
C20   C     C_R   0.789373 0.164126 0.420442 -0.033883
C21   C     C_R   0.733981 0.092922 0.417028 -0.086157
C22   C     C_R   0.820024 0.044264 0.452747 0.006627
C23   C     C_3   0.484386 0.702165 0.651563 0.426842
C24   C     C_R   0.760728 0.971907 0.452502 0.019716
C25   C     C_R   0.606949 0.945993 0.421358 -0.066375
C26   C     C_R   0.644927 0.826806 0.452266 -0.035336
C27   C     C_R   0.550662 0.875603 0.421644 -0.067035
C28   C     C_3   0.792556 0.379485 0.311630 0.311146
C29   C     C_R   0.589384 0.754737 0.451797 -0.028111
C30   C     C_R   0.690507 0.706306 0.479493 -0.278228
C31   C     C_R   0.839129 0.729624 0.516070 0.098202
C32   C     C_2   0.594874 0.530197 0.305561 -0.247707
C33   C     C_3   0.679842 0.578010 0.262417 -0.052969
C34   C     C_3   0.379940 0.768977 0.665696 -0.407757
C35   C     C_2   0.636054 0.559557 0.181574 -0.130199
C36   C     C_2   0.506970 0.515468 0.154769 -0.066837
C37   C     C_2   0.417566 0.479608 0.206130 -0.141154
C38   C     C_1   0.468870 0.488286 0.275940 0.058313
C39   C     C_R   0.347033 0.493639 0.933387 0.461822
C40   C     C_3   0.737293 0.360096 0.230910 -0.391630
C41   C     C_R   0.451860 0.505584 0.076216 0.460548
C42   C     C_R   0.385418 0.521280 0.809585 -0.121382
C43   C     C_R   0.335046 0.517906 0.736478 0.053744
C44   C     C_R   0.090628 0.451277 0.753524 0.032739
C45   C     C_3   0.929860 0.271655 0.670118 0.291740
C46   C     C_R   0.141756 0.454557 0.827074 -0.111999
C47   C     C_R   0.290525 0.489122 0.855666 -0.072963
C48   C     C_R   0.189539 0.481597 0.708400 -0.262377
C49   C     C_3   0.990883 0.672482 0.722205 0.319543
C50   C     C_3   0.955874 0.726138 0.794090 -0.025793
C51   C     C_3   0.222096 0.307869 0.312132 0.453551
C52   C     C_3   0.247882 0.230627 0.327549 -0.116435
C53   C     C_2   0.903428 0.602316 0.719158 0.531326
C54   C     C_2   0.826547 0.793737 0.222727 0.489356
C55   C     C_2   0.772180 0.159038 0.678937 0.576883
C56   C     C_3   0.935710 0.195465 0.688076 -0.240709
C57   C     C_3   0.428989 0.314084 0.714194 0.350052
C58   C     C_3   0.441529 0.291991 0.788449 -0.311808
C59   C     C_R   0.005530 0.949547 0.523466 0.012524
H1    H     H_    0.372914 0.641259 0.277266 0.052831
H2    H     H_    0.311441 0.235194 0.382267 0.090826
H3    H     H_    0.530841 0.712598 0.295379 -0.030148
H4    H     H_    0.431668 0.692477 0.167313 0.080004
H5    H     H_    0.448435 0.669930 0.596472 0.061387
H6    H     H_    0.413058 0.802496 0.720461 0.114447
H7    H     H_    0.394923 0.803068 0.623753 0.090229
H8    H     H_    0.253067 0.753451 0.663057 0.129301
H9    H     H_    0.376801 0.781040 0.213537 0.149951
H10   H     H_    0.856649 0.269690 0.617966 0.057085
H11   H     H_    0.054232 0.289480 0.662928 -0.060627
H12   H     H_    0.622187 0.327927 0.223521 0.117342
H13   H     H_    0.014011 0.161731 0.650811 0.009116
H14   H     H_    0.988620 0.198851 0.744757 0.130811
H15   H     H_    0.303823 0.328966 0.702818 -0.073069
H16   H     H_    0.510157 0.362253 0.716467 0.092861
H17   H     H_    0.406753 0.337550 0.830898 0.060612
H18   H     H_    0.566675 0.278165 0.802088 0.172301
H19   H     H_    0.009090 0.730935 0.367479 0.103231
H20   H     H_    0.360303 0.244063 0.787945 0.124064
H21   H     H_    0.171218 0.344801 0.511626 0.080379
H22   H     H_    0.400276 0.130699 0.575244 0.111899
H23   H     H_    0.721131 0.410200 0.208361 0.078947
H24   H     H_    0.090245 0.803711 0.599142 0.105479
H25   H     H_    0.717088 0.197424 0.390994 0.111945
H26   H     H_    0.431332 0.860428 0.397379 0.110099
H27   H     H_    0.646854 0.651253 0.478326 0.076149
H28   H     H_    0.308262 0.009854 0.570468 0.076120
H29   H     H_    0.190929 0.921460 0.600153 0.064658
H30   H     H_    0.622786 0.077727 0.384964 0.080895
H31   H     H_    0.805761 0.717927 0.329219 -0.089802
H32   H     H_    0.524176 0.979242 0.397307 0.074305
H33   H     H_    0.702000 0.587940 0.146492 0.100050
H34   H     H_    0.827438 0.327962 0.199416 0.141522
H35   H     H_    0.312183 0.445035 0.185533 0.105752
H36   H     H_    0.497820 0.549859 0.830343 0.131317
H37   H     H_    0.065571 0.430531 0.861604 0.103320
H38   H     H_    0.625217 0.539459 0.363909 0.069290
H39   H     H_    0.149968 0.479432 0.651786 0.055092
H40   H     H_    0.925613 0.841764 0.330308 0.084300
H41   H     H_    0.068906 0.802321 0.268327 0.098338
H42   H     H_    0.692859 0.404371 0.342335 0.025016
H43   H     H_    0.895305 0.419174 0.318626 0.088842
H44   H     H_    0.228558 0.697712 0.755570 0.194052
H45   H     H_    0.017361 0.708637 0.842095 0.110035
H46   H     H_    0.188392 0.641567 0.671243 0.164517
H47   H     H_    0.903760 0.561046 0.670221 0.023264
H48   H     H_    0.126215 0.805331 0.783293 0.183781
H49   H     H_    0.937739 0.821335 0.753860 0.207410
H50   H     H_    0.216296 0.292154 0.199759 0.168605
H51   H     H_    0.046122 0.265230 0.232222 0.156243
H52   H     H_    0.449744 0.214531 0.269291 0.212661
H53   H     H_    0.278288 0.176491 0.222960 0.184049
H54   H     H_    0.680917 0.757462 0.705924 0.193919
H55   H     H_    0.654220 0.768091 0.620066 0.115042
H56   H     H_    0.825594 0.724757 0.802605 0.117618
H57   H     H_    0.832409 0.753067 0.173422 0.022641
H58   H     H_    0.708313 0.147222 0.625448 -0.002341
H59   H     H_    0.149524 0.335816 0.355728 0.018024
H60   H     H_    0.228524 0.706725 0.192194 0.139235
H61   H     H_    0.130105 0.202299 0.329020 0.063977
N1    N     N_R   0.488392 0.528914 0.959706 -0.233617
N2    N     N_R   0.539493 0.534839 0.029450 -0.239311
N3    N     N_R   0.310812 0.469679 0.049962 -0.236730
N4    N     N_R   0.259438 0.463797 0.979958 -0.238415
N5    N     N_3   0.157185 0.655066 0.724897 -0.556384
N6    N     N_3   0.005877 0.801754 0.794331 -0.492096
N7    N     N_3   0.137004 0.305846 0.240791 -0.491211
N8    N     N_3   0.342401 0.186441 0.273853 -0.487601
N9    N     N_3   0.648441 0.729137 0.653162 -0.481459
O1    O     O_2   0.117290 0.676350 0.548250 -0.481390
O2    O     O_2   0.752477 0.448896 0.750598 -0.439406
O3    O     O_3   0.863903 0.319044 0.727256 -0.596906
O4    O     O_3   0.869060 0.586940 0.542720 -0.498142
O5    O     O_3   0.438990 0.460930 0.412890 -0.465660
O6    O     O_2   0.623700 0.539890 0.674570 -0.432335
O7    O     O_3   0.473017 0.661997 0.708209 -0.628776
O8    O     O_2   0.570015 0.243085 0.529913 -0.495251
O9    O     O_3   0.474129 0.256105 0.661104 -0.597987
O10   O     O_3   0.356990 0.628630 0.417250 -0.473977
O11   O     O_2   0.263118 0.758501 0.475073 -0.494260
O12   O     O_3   0.372051 0.343730 0.314823 -0.642203
O13   O     O_3   0.949282 0.707532 0.662761 -0.660414
O14   O     O_3   0.310957 0.739949 0.336329 -0.598819
O15   O     O_2   0.186600 0.460070 0.325400 -0.469004
O16   O     O_3   0.942970 0.591450 0.378940 -0.481017
O17   O     O_2   0.993853 0.522763 0.244367 -0.469036
O18   O     O_2   0.847900 0.587617 0.773838 -0.591365
O19   O     O_2   0.721829 0.838169 0.226200 -0.576762
O20   O     O_2   0.710725 0.141873 0.731052 -0.561863
O21   O     O_3   0.983185 0.665685 0.264997 -0.598254
O22   O     O_2   0.693010 0.323600 0.451730 -0.438868
O23   O     O_3   0.941240 0.413050 0.457220 -0.497459
O24   O     O_3   0.453310 0.371360 0.582690 -0.476710
O25   O     O_3   0.839022 0.316359 0.335924 -0.648830
O26   O     O_3   0.371310 0.539060 0.587050 -0.489267
O27   O     O_3   0.867330 0.408540 0.621000 -0.491775
P1    P     P_3+3 0.945300 0.665790 0.568510 0.962723
P2    P     P_3+3 0.360080 0.438780 0.334620 0.998332
P3    P     P_3+3 0.900544 0.586073 0.285831 0.965431
P4    P     P_3+3 0.865000 0.334200 0.431430 0.971687
P5    P     P_3+3 0.894217 0.408474 0.714399 0.986896
P6    P     P_3+3 0.381274 0.721571 0.420872 0.936527
P7    P     P_3+3 0.448560 0.566796 0.677763 0.977692
P8    P     P_3+3 0.432541 0.277140 0.574611 0.949005

loop_
_geom_bond_atom_site_label_1
_geom_bond_atom_site_label_2
_ccdc_geom_bond_type
C42   C47   A    
C58   H18   S    
Ba2   O24   S    
C25   C27   A    
C6    H22   S    
C13   P4    S    
C17   C18   A    
Ba1   O1    S    
Ba2   P4    S    
O6    P7    D    
C50   N6    S    
C51   H59   S    
N1    N2    A    
H54   N9    S    
C51   C52   S    
C42   C43   A    
C5    C9    A    
C12   O14   S    
C58   H17   S    
C24   C25   A    
C33   P3    S    
O7    P7    S    
C32   C38   D    
O17   P3    D    
C57   O9    S    
C26   C27   A    
C33   C35   S    
C22   C24   A    
C32   C33   S    
C10   P8    S    
C36   C37   S    
O15   P2    D    
C52   H2    S    
O24   P8    S    
C13   C14   A    
C12   H1    S    
C9    C22   A    
O3    P5    S    
C42   H36   S    
Ba1   Ba2   S    
C16   H41   S    
C5    C59   A    
C15   C59   A    
H50   N7    S    
Ba1   O10   S    
C6    C7    A    
C28   H42   S    
C21   C22   A    
H51   N7    S    
Ba1   O5    S    
C7    C8    A    
C49   C53   S    
O21   P3    S    
C16   C54   S    
C55   H58   S    
C4    O21   S    
C50   H56   S    
C28   O25   S    
C52   H61   S    
O25   P4    S    
C57   C58   S    
Ba2   O23   S    
H53   N8    S    
C57   H16   S    
Ba1   O15   S    
C1    H4    S    
C52   N8    S    
O2    P5    D    
C39   C47   S    
C53   H47   S    
O23   P4    S    
C56   H14   S    
C53   O18   D    
C2    H29   S    
C26   C29   A    
O9    P8    S    
C4    C16   S    
C19   H24   S    
C34   H6    S    
O1    P1    D    
O4    P1    S    
H52   N8    S    
H44   N5    S    
C40   H34   S    
O12   P2    S    
C1    H9    S    
C40   H23   S    
O16   P3    S    
O26   P7    S    
C37   C38   D    
C3    C5    A    
C49   O13   S    
C2    C59   A    
Ba2   O5    S    
C49   C50   S    
C51   O12   S    
C16   H40   S    
O8    P8    D    
C35   C36   D    
C58   H20   S    
H48   N6    S    
C4    H19   S    
C29   C30   A    
Ba1   P1    S    
Ba2   O27   S    
C12   H3    S    
C32   H38   S    
C10   C11   A    
O13   P1    S    
C17   C26   A    
C45   H10   S    
C1    C12   S    
O27   P5    S    
C18   C31   A    
C46   C47   A    
C57   H15   S    
Ba2   O22   S    
C44   P5    S    
C11   C13   A    
C45   O3    S    
N3    N4    A    
C21   H30   S    
C25   H32   S    
C51   N7    S    
C15   C24   A    
C54   O19   D    
C23   N9    S    
C34   H8    S    
C56   H13   S    
C29   P6    S    
C40   H12   S    
C14   C20   A    
Ba2   O6    S    
C54   H57   S    
C39   N4    A    
C38   P2    S    
Ba1   P2    S    
C23   H5    S    
C3    C6    A    
C34   H7    S    
O14   P6    S    
C46   H37   S    
C44   C48   A    
C48   H39   S    
Ba2   O4    S    
O22   P4    D    
C49   N5    S    
C30   C31   A    
C39   N1    A    
Ba1   O26   S    
C23   O7    S    
H46   N5    S    
C36   C41   S    
C11   H21   S    
C8    C14   A    
C45   C56   S    
O11   P6    D    
C2    C19   A    
C55   C56   S    
H55   N9    S    
C43   C48   A    
Ba2   O26   S    
C4    H31   S    
C45   H11   S    
C55   O20   D    
C15   C17   A    
C35   H33   S    
C41   N3    A    
C20   H25   S    
Ba1   O23   S    
C7    C10   A    
C37   H35   S    
C27   H26   S    
Ba1   O16   S    
C8    C9    A    
C23   C34   S    
C50   H45   S    
O5    P2    S    
C44   C46   A    
C1    H60   S    
C18   C19   A    
O10   P6    S    
C28   H43   S    
C20   C21   A    
C28   C40   S    
Ba1   O4    S    
C43   P7    S    
C41   N2    A    
C3    H28   S    
C31   P1    S    
H49   N6    S    
C30   H27   S    
