data_mof_unit_26073.cif
_audit_creation_date              2012-12-10T20:45:35-0500
_audit_creation_method            fapswitch 2.2
_symmetry_space_group_name_H-M    P1
_symmetry_Int_Tables_number       1
_space_group_crystal_system       triclinic
_cell_length_a                    10.642845
_cell_length_b                    10.668548
_cell_length_c                    9.846275
_cell_angle_alpha                 89.285394
_cell_angle_beta                  89.891508
_cell_angle_gamma                 89.70765
_cell_volume                      1117.87914384

loop_
_atom_site_label
_atom_site_type_symbol
_atom_type_description
_atom_site_fract_x
_atom_site_fract_y
_atom_site_fract_z
_atom_type_partial_charge
C1    C     C_R   0.505666 0.260217 0.500826 0.925680
C2    C     C_R   0.221958 0.894580 0.188463 0.056257
C3    C     C_R   0.932133 0.577543 0.411296 -0.206102
C4    C     C_R   0.872215 0.494481 0.500207 -0.080708
C5    C     C_R   0.939028 0.416387 0.590872 -0.040056
C6    C     C_R   0.067970 0.421918 0.589093 -0.223370
C7    C     C_R   0.127845 0.505599 0.500842 -0.091139
C8    C     C_R   0.061102 0.586449 0.412809 0.001928
C9    C     C_R   0.845446 0.367858 0.816434 -0.075394
C10   C     C_R   0.788624 0.286470 0.909758 -0.129420
C11   C     C_R   0.765892 0.162406 0.874821 -0.162906
C12   C     C_R   0.260277 0.503293 0.500097 0.899961
C13   C     C_R   0.799657 0.119321 0.746377 -0.088142
C14   C     C_R   0.854675 0.200683 0.649782 0.006904
C15   C     C_R   0.877606 0.326657 0.685840 0.025964
C16   C     C_R   0.522608 0.061879 0.622934 -0.129347
C17   C     C_R   0.530727 0.129888 0.502618 -0.069291
C18   C     C_R   0.567175 0.070176 0.383191 -0.186041
C19   C     C_R   0.564966 0.940200 0.377364 0.025439
C20   C     C_R   0.528976 0.872164 0.496695 -0.117705
C21   C     C_R   0.523035 0.934545 0.620395 -0.125273
C22   C     C_3   0.433526 0.925530 0.737970 0.502418
C23   C     C_R   0.506077 0.740316 0.498618 0.903100
C24   C     C_3   0.432464 0.067910 0.738975 0.509857
C25   C     C_R   0.430135 0.414474 0.072541 0.206080
C26   C     C_R   0.579774 0.574276 0.070823 -0.151975
C27   C     C_R   0.579245 0.574887 0.926695 -0.124654
C28   C     C_R   0.430068 0.414532 0.929915 0.223622
C29   C     C_3   0.290907 0.399716 0.924844 -0.478587
C30   C     C_3   0.291160 0.399255 0.079049 -0.498431
C31   C     C_R   0.739748 0.495912 0.500104 0.864586
C32   C     C_R   0.239015 0.883650 0.329231 -0.221823
C33   C     C_R   0.189572 0.781474 0.401043 -0.067205
C34   C     C_R   0.121264 0.689102 0.333609 0.108445
C35   C     C_R   0.102647 0.700596 0.192907 -0.212942
C36   C     C_R   0.153685 0.801946 0.120515 -0.069154
H1    H     H_    0.722226 0.099281 0.947509 0.171644
H2    H     H_    0.781805 0.022268 0.722319 0.173194
H3    H     H_    0.585714 0.124107 0.291227 0.173535
H4    H     H_    0.476062 0.881593 0.830087 0.020020
H5    H     H_    0.473531 0.109340 0.831808 0.015695
H6    H     H_    0.643046 0.635261 0.124285 0.164451
H7    H     H_    0.289111 0.955163 0.383967 0.168651
H8    H     H_    0.641221 0.637253 0.871223 0.151345
H9    H     H_    0.242357 0.482861 0.879836 0.218852
H10   H     H_    0.263137 0.308247 0.881601 0.260878
H11   H     H_    0.242861 0.481921 0.122849 0.223809
H12   H     H_    0.263844 0.307536 0.124635 0.214220
H13   H     H_    0.201870 0.775591 0.509907 0.196516
H14   H     H_    0.048600 0.631114 0.139374 0.136829
H15   H     H_    0.138797 0.808435 0.011876 0.193577
H16   H     H_    0.877763 0.640235 0.346231 0.171362
H17   H     H_    0.121873 0.360038 0.655470 0.189045
H18   H     H_    0.863475 0.463743 0.845394 0.130388
H19   H     H_    0.762644 0.319537 0.009507 0.138413
N1    N     N_R   0.499160 0.499140 0.142800 -0.109481
N2    N     N_R   0.499160 0.499180 0.857150 -0.106664
O1    O     O_R   0.500020 0.316790 0.614690 -0.597773
O2    O     O_R   0.500000 0.316760 0.385350 -0.642504
O3    O     O_R   0.316770 0.500030 0.614670 -0.605990
O4    O     O_R   0.316750 0.499990 0.385330 -0.616271
O5    O     O_R   0.500000 0.683240 0.614650 -0.591097
O6    O     O_R   0.499980 0.683210 0.385310 -0.652548
O7    O     O_R   0.683250 0.500010 0.614670 -0.622957
O8    O     O_R   0.683230 0.499970 0.385330 -0.631542
Zn1   Zn    Zn3+2 0.500010 0.500020 0.653130 0.981685
Zn2   Zn    Zn3+2 0.499990 0.499980 0.346870 0.940455
C37   C     C_2   0.274309 0.003970 0.114799 0.341378
H20   H     H_    0.332289 0.070799 0.168053 0.044450
O9    O     O_2   0.252625 0.021473 0.994357 -0.527840
C38   C     C_2   0.887712 0.153538 0.512909 0.404244
H21   H     H_    0.927734 0.215798 0.436615 0.074064
O10   O     O_2   0.870545 0.044108 0.483371 -0.539371
C39   C     C_2   0.588182 0.884292 0.242611 0.352507
H22   H     H_    0.522499 0.818881 0.199275 0.092093
O11   O     O_2   0.679045 0.916524 0.175074 -0.579413
F1    F     F_    0.318627 0.875632 0.702252 -0.620405
F2    F     F_    0.317616 0.118901 0.700784 -0.610017

loop_
_geom_bond_atom_site_label_1
_geom_bond_atom_site_label_2
_ccdc_geom_bond_type
C16   C21   A    
C14   C38   S    
C35   C36   A    
C25   N1    A    
N2    Zn1   S    
C7    C8    A    
C28   N2    A    
C25   C28   A    
C26   C27   A    
C39   O11   D    
C30   H12   S    
C28   C29   S    
C18   C19   A    
C2    C37   S    
C1    O2    A    
C5    C6    A    
C33   H13   S    
C2    C32   A    
C34   C35   A    
C11   H1    S    
O2    Zn2   S    
C27   H8    S    
O1    Zn1   S    
C23   O5    A    
C19   C20   A    
C37   H20   S    
O8    Zn2   S    
C9    C10   A    
C23   O6    A    
O3    Zn1   S    
C16   C24   S    
C13   C14   A    
C24   H5    S    
C33   C34   A    
C7    C12   S    
O6    Zn2   S    
C39   H22   S    
O5    Zn1   S    
C30   H11   S    
C3    C8    A    
C27   N2    A    
C38   O10   D    
C16   C17   A    
C29   H9    S    
O7    Zn1   S    
C18   H3    S    
C29   C30   S    
O4    Zn2   S    
C20   C23   S    
C22   H4    S    
C35   H14   S    
C17   C18   A    
C8    C34   S    
C10   H19   S    
C13   H2    S    
C36   H15   S    
C24   F2    S    
C22   C24   S    
C6    H17   S    
C3    C4    A    
C26   H6    S    
C2    C36   A    
C25   C30   S    
C31   O8    A    
C31   O7    A    
C19   C39   S    
C22   F1    S    
C4    C5    A    
C26   N1    A    
C3    H16   S    
C6    C7    A    
N1    Zn2   S    
C1    C17   S    
C29   H10   S    
C32   C33   A    
C9    C15   A    
C38   H21   S    
C1    O1    A    
C12   O4    A    
C11   C13   A    
C32   H7    S    
C5    C15   S    
C4    C31   S    
C10   C11   A    
C12   O3    A    
C20   C21   A    
C37   O9    D    
C14   C15   A    
C9    H18   S    
C21   C22   S    
