data_mof_unit_36324.cif
_audit_creation_date              2012-12-10T18:46:18-0500
_audit_creation_method            fapswitch 2.2
_symmetry_space_group_name_H-M    P1
_symmetry_Int_Tables_number       1
_space_group_crystal_system       triclinic
_cell_length_a                    9.972056
_cell_length_b                    10.711519
_cell_length_c                    13.085131
_cell_angle_alpha                 93.04518
_cell_angle_beta                  68.913761
_cell_angle_gamma                 90.264277
_cell_volume                      1302.1104403

loop_
_atom_site_label
_atom_site_type_symbol
_atom_type_description
_atom_site_fract_x
_atom_site_fract_y
_atom_site_fract_z
_atom_type_partial_charge
C1    C     C_R   0.500142 0.739743 0.500204 0.859021
C2    C     C_R   0.434753 0.464215 0.985281 0.118269
C3    C     C_R   0.459617 0.434515 0.873893 0.048450
C4    C     C_R   0.546469 0.444203 0.025493 0.049984
C5    C     C_R   0.668714 0.369896 0.963511 0.099199
C6    C     C_R   0.681031 0.325031 0.857466 -0.236655
C7    C     C_R   0.578817 0.356968 0.813566 -0.184808
C8    C     C_R   0.538690 0.499511 0.125723 -0.317829
C9    C     C_R   0.759988 0.396267 0.114743 0.182266
C10   C     C_R   0.364904 0.483490 0.826134 -0.151944
C11   C     C_R   0.607543 0.938194 0.524089 -0.196905
C12   C     C_R   0.418569 0.495518 0.705372 0.854789
C13   C     C_R   0.607060 0.066159 0.524451 -0.200300
C14   C     C_R   0.499409 0.127677 0.500584 -0.007714
C15   C     C_R   0.392011 0.061911 0.476806 -0.195296
C16   C     C_R   0.392577 0.933979 0.476356 -0.196186
C17   C     C_R   0.500246 0.872414 0.500143 -0.008572
C18   C     C_R   0.957572 0.417405 0.433944 -0.174768
C19   C     C_R   0.100292 0.416271 0.433163 0.232342
C20   C     C_R   0.041434 0.585167 0.565633 0.204222
C21   C     C_R   0.897108 0.583897 0.567395 0.270304
C22   C     C_R   0.499787 0.260279 0.499967 0.847664
C23   C     C_R   0.581903 0.494988 0.294694 0.892116
C24   C     C_R   0.774120 0.341685 0.009388 0.202649
C25   C     C_R   0.634939 0.469022 0.174856 -0.136371
C26   C     C_R   0.228506 0.532611 0.896823 0.209526
C27   C     C_R   0.196043 0.541251 0.009921 -0.149076
C28   C     C_R   0.298021 0.510778 0.053538 -0.266431
H1    H     H_    0.771641 0.268348 0.805327 0.160367
H2    H     H_    0.265415 0.520897 0.141727 0.152299
H3    H     H_    0.592771 0.317396 0.732537 0.171846
N1    N     N_R   0.142790 0.500030 0.500030 -0.097896
N2    N     N_R   0.857180 0.499940 0.500010 -0.111283
O1    O     O_R   0.385370 0.683250 0.500010 -0.626278
O2    O     O_R   0.614700 0.683220 0.500010 -0.626878
O3    O     O_R   0.328400 0.499990 0.653620 -0.609228
O4    O     O_R   0.557730 0.499960 0.653620 -0.615020
O5    O     O_R   0.385300 0.316780 0.499990 -0.625051
O6    O     O_R   0.614630 0.316750 0.499990 -0.629166
O7    O     O_R   0.442270 0.500040 0.346380 -0.612839
O8    O     O_R   0.671600 0.500010 0.346380 -0.600533
Zn1   Zn    Zn3+2 0.346870 0.500020 0.500000 0.926696
Zn2   Zn    Zn3+2 0.653130 0.499980 0.500000 0.924903
C29   C     C_3   0.875846 0.379099 0.162630 -0.892475
H4    H     H_    0.896682 0.469227 0.199506 0.245834
H5    H     H_    0.842328 0.308149 0.225474 0.240916
H6    H     H_    0.981933 0.352471 0.100396 0.244517
H7    H     H_    0.690121 0.116517 0.543881 0.152863
H8    H     H_    0.308665 0.108779 0.457722 0.156648
H9    H     H_    0.309817 0.883685 0.456543 0.157451
H10   H     H_    0.926752 0.351174 0.381273 0.159153
C30   C     C_3   0.199753 0.320504 0.354452 -0.861648
H11   H     H_    0.309691 0.321210 0.353296 0.290162
H12   H     H_    0.156771 0.225646 0.375521 0.205796
H13   H     H_    0.205476 0.336507 0.269825 0.217928
C31   C     C_3   0.082659 0.686157 0.632630 -0.882307
H14   H     H_    0.181944 0.663486 0.643958 0.297742
H15   H     H_    0.094155 0.776156 0.592230 0.227110
H16   H     H_    0.002047 0.697986 0.716843 0.224240
C32   C     C_3   0.790259 0.675473 0.647703 -0.837484
H17   H     H_    0.683536 0.677296 0.644182 0.286167
H18   H     H_    0.774939 0.652348 0.732860 0.220975
H19   H     H_    0.830043 0.772363 0.633761 0.204688
C33   C     C_3   0.892800 0.246645 0.949389 -0.925799
H20   H     H_    0.848185 0.164982 0.917294 0.231056
H21   H     H_    0.976967 0.290418 0.880568 0.247540
H22   H     H_    0.942344 0.204293 0.002785 0.251951
H23   H     H_    0.454475 0.566778 0.169347 0.175066
C34   C     C_3   0.118387 0.583871 0.856320 -0.914705
H24   H     H_    0.092959 0.513907 0.800630 0.267420
H25   H     H_    0.015211 0.607950 0.924250 0.236067
H26   H     H_    0.160491 0.671580 0.816332 0.236348
H27   H     H_    0.093162 0.578420 0.065121 0.151935
H28   H     H_    0.690979 0.891302 0.543039 0.154962

loop_
_geom_bond_atom_site_label_1
_geom_bond_atom_site_label_2
_ccdc_geom_bond_type
O4    Zn2   S    
C13   H7    S    
C2    C4    A    
C31   H16   S    
C9    C24   A    
O5    Zn1   S    
C6    C7    A    
C21   N2    A    
C18   H10   S    
C34   H26   S    
C29   H6    S    
C11   C13   A    
O3    Zn1   S    
O1    Zn1   S    
C30   H13   S    
C4    C8    A    
C20   C31   S    
C33   H20   S    
C10   C26   A    
C28   H2    S    
C2    C3    A    
C23   O8    A    
C9    C25   A    
C24   C33   S    
C3    C10   A    
C13   C14   A    
C29   H4    S    
C15   H8    S    
C8    C25   A    
O8    Zn2   S    
C14   C22   S    
C26   C27   A    
C5    C6    A    
C5    C24   A    
C10   C12   S    
C32   H19   S    
C22   O6    A    
O7    Zn1   S    
C30   H12   S    
C1    O1    A    
C8    H23   S    
C3    C7    A    
C23   C25   S    
O6    Zn2   S    
C34   H24   S    
C16   H9    S    
C18   N2    A    
C4    C5    A    
C12   O3    A    
C31   H14   S    
C19   N1    A    
C23   O7    A    
C22   O5    A    
C33   H22   S    
O2    Zn2   S    
C12   O4    A    
C6    H1    S    
C7    H3    S    
C30   H11   S    
C1    O2    A    
C21   C32   S    
C32   H18   S    
C18   C19   A    
C20   N1    A    
C27   C28   A    
C34   H25   S    
C26   C34   S    
N1    Zn1   S    
C14   C15   A    
C32   H17   S    
C9    C29   S    
C2    C28   A    
C29   H5    S    
C20   C21   A    
C27   H27   S    
N2    Zn2   S    
C1    C17   S    
C19   C30   S    
C11   C17   A    
C15   C16   A    
C31   H15   S    
C16   C17   A    
C11   H28   S    
C33   H21   S    
