data_mof_unit_14060.cif
_audit_creation_date              2012-12-11T15:15:35-0500
_audit_creation_method            fapswitch 2.2
_symmetry_space_group_name_H-M    P1
_symmetry_Int_Tables_number       1
_space_group_crystal_system       triclinic
_cell_length_a                    14.038128
_cell_length_b                    14.024662
_cell_length_c                    28.100498
_cell_angle_alpha                 89.811451
_cell_angle_beta                  89.89445
_cell_angle_gamma                 120.891172
_cell_volume                      4747.55242568

loop_
_atom_site_label
_atom_site_type_symbol
_atom_type_description
_atom_site_fract_x
_atom_site_fract_y
_atom_site_fract_z
_atom_type_partial_charge
C1    C     C_R   0.596123 0.430434 0.574153 0.516722
C2    C     C_3   0.519192 0.018933 0.198801 0.002380
C3    C     C_3   0.162372 0.789789 0.319326 0.010326
C4    C     C_3   0.152116 0.756677 0.371928 -0.277908
C5    C     C_3   0.239475 0.851686 0.402069 -0.469764
C6    C     C_3   0.163144 0.651914 0.663667 0.000311
C7    C     C_3   0.220444 0.583859 0.662013 -0.246190
C8    C     C_3   0.260545 0.581377 0.611776 -0.467085
C9    C     C_3   0.258005 0.307792 0.684325 0.012648
C10   C     C_3   0.180032 0.277466 0.641856 -0.264930
C11   C     C_3   0.137530 0.158534 0.625598 -0.483983
C12   C     C_3   0.592413 0.884243 0.682211 0.011718
C13   C     C_3   0.479101 0.502356 0.205388 0.010412
C14   C     C_3   0.562126 0.801423 0.641632 -0.267348
C15   C     C_3   0.665560 0.813028 0.617989 -0.476954
C16   C     C_3   0.765726 0.198235 0.173541 -0.002676
C17   C     C_3   0.816171 0.174022 0.130372 -0.252778
C18   C     C_3   0.858074 0.266858 0.093319 -0.473234
C19   C     C_3   0.499444 0.314119 0.151104 -0.013759
C20   C     C_3   0.435598 0.227171 0.112670 -0.243582
C21   C     C_3   0.511825 0.229736 0.073324 -0.482321
C22   C     C_3   0.868930 0.514800 0.173962 0.004541
C23   C     C_3   0.823653 0.566611 0.139627 -0.241227
C24   C     C_3   0.095155 0.549162 0.213713 0.006254
C25   C     C_3   0.776933 0.496636 0.094904 -0.494558
C26   C     C_3   0.883076 0.405622 0.780792 -0.172231
C27   C     C_3   0.582324 0.541781 0.775994 -0.152042
C28   C     C_3   0.537354 0.131152 0.782542 -0.163039
C29   C     C_3   0.426900 0.000951 0.263467 -0.156794
C30   C     C_3   0.535829 0.562972 0.276374 -0.160561
C31   C     C_3   0.125292 0.506176 0.284199 -0.168537
C32   C     C_3   0.871240 0.490878 0.749558 -0.148912
C33   C     C_R   0.571169 0.170006 0.573169 0.520097
C34   C     C_3   0.521220 0.424079 0.753559 -0.170253
C35   C     C_3   0.627870 0.136533 0.748853 -0.166904
C36   C     C_3   0.465508 0.928713 0.237787 -0.149443
C37   C     C_3   0.420178 0.499816 0.252082 -0.153964
C38   C     C_3   0.168835 0.616734 0.255836 -0.143252
C39   C     C_1   0.024148 0.514065 0.850519 -0.036613
C40   C     C_1   0.452395 0.551605 0.839975 -0.012977
C41   C     C_1   0.496624 0.983536 0.851279 -0.028775
C42   C     C_1   0.538753 0.072871 0.342373 -0.034875
C43   C     C_1   0.554834 0.438380 0.337794 -0.042593
C44   C     C_R   0.831421 0.401477 0.573467 0.519254
C45   C     C_1   0.985829 0.493861 0.351661 -0.048493
C46   C     C_1   0.901075 0.451198 0.661095 -0.079877
C47   C     C_1   0.538647 0.457306 0.659610 -0.057984
C48   C     C_1   0.549305 0.104941 0.661609 -0.054547
C49   C     C_1   0.499353 0.986136 0.149079 -0.052238
C50   C     C_1   0.458671 0.534658 0.158982 -0.047572
C51   C     C_1   0.127392 0.561046 0.163794 -0.057526
C52   C     C_R   0.599756 0.428222 0.427833 0.570581
C53   C     C_R   0.547470 0.116080 0.433171 0.550991
C54   C     C_R   0.887547 0.433940 0.434437 0.556759
C55   C     C_R   0.430829 0.595633 0.074262 0.533820
C56   C     C_R   0.429651 0.598569 0.927620 0.565689
C57   C     C_R   0.111933 0.545467 0.934779 0.554671
C58   C     C_R   0.434422 0.888128 0.934607 0.544339
C59   C     C_3   0.047976 0.570152 0.730613 0.330909
C60   C     C_3   0.398358 0.459934 0.723753 0.309238
C61   C     C_3   0.515960 0.961176 0.730883 0.319885
C62   C     C_3   0.628332 0.078304 0.226510 0.330240
C63   C     C_3   0.470799 0.392215 0.218192 0.326543
C64   C     C_3   0.998278 0.558232 0.233441 0.328547
C65   C     C_3   0.981789 0.584516 0.770540 0.342183
C66   C     C_R   0.174132 0.573051 0.072750 0.544949
C67   C     C_3   0.408898 0.409266 0.770415 0.291556
C68   C     C_3   0.604628 0.023150 0.768890 0.290941
C69   C     C_3   0.575497 0.989530 0.265584 0.342726
C70   C     C_3   0.413209 0.389270 0.265201 0.344076
C71   C     C_3   0.070184 0.624487 0.275812 0.350123
C72   C     C_1   0.058436 0.526647 0.890244 -0.007840
C73   C     C_1   0.440930 0.573018 0.879936 0.003288
C74   C     C_1   0.472446 0.945384 0.890579 -0.008449
C75   C     C_1   0.539804 0.085780 0.384532 -0.022263
C76   C     C_1   0.576554 0.433743 0.378764 -0.022301
C77   C     C_R   0.434744 0.888256 0.066421 0.535833
C78   C     C_1   0.945259 0.470794 0.390535 -0.023479
C79   C     C_1   0.869423 0.428575 0.620974 -0.031988
C80   C     C_1   0.564599 0.444275 0.620604 -0.021551
C81   C     C_1   0.559401 0.133995 0.621029 -0.023804
C82   C     C_1   0.473710 0.947188 0.110009 -0.021082
C83   C     C_1   0.445212 0.562715 0.120431 -0.013562
C84   C     C_1   0.149200 0.566928 0.122212 -0.028406
C85   C     C_3   0.060499 0.486429 0.761556 -0.115333
C86   C     C_3   0.458340 0.576987 0.745863 -0.107543
C87   C     C_3   0.425654 0.955341 0.764007 -0.090716
C88   C     C_3   0.938624 0.476193 0.709911 -0.002584
C89   C     C_3   0.591406 0.151163 0.252425 -0.134321
C90   C     C_3   0.585678 0.453570 0.242454 -0.136886
C91   C     C_3   0.953994 0.448651 0.261122 -0.136184
C92   C     C_3   0.992725 0.500780 0.800939 0.021066
C93   C     C_3   0.469981 0.525256 0.792185 0.043598
C94   C     C_3   0.515736 0.018769 0.801908 0.030882
C95   C     C_3   0.537026 0.060014 0.291016 0.029703
C96   C     C_3   0.526993 0.451636 0.289183 0.030041
C97   C     C_3   0.027541 0.515982 0.303243 0.026420
C98   C     C_3   0.949984 0.390740 0.740541 -0.165760
C99   C     C_3   0.510146 0.476813 0.706896 0.009328
C100  C     C_3   0.571274 0.593513 0.729031 -0.148595
C101  C     C_3   0.447742 0.068044 0.743936 -0.151810
C102  C     C_3   0.480333 0.090590 0.224066 -0.155751
C103  C     C_3   0.594230 0.565728 0.229245 -0.151549
C104  C     C_3   0.052399 0.439019 0.241311 -0.161384
C105  C     C_3   0.922556 0.694812 0.807261 0.015179
C106  C     C_3   0.901498 0.777250 0.780318 -0.253929
C107  C     C_3   0.879558 0.749322 0.727457 -0.399809
C108  C     C_3   0.327352 0.227196 0.796717 -0.003754
C109  C     C_3   0.231268 0.137146 0.826109 -0.260877
C110  C     C_3   0.537320 0.072271 0.711086 0.012980
C111  C     C_3   0.229785 0.027588 0.825022 -0.472676
C112  C     C_3   0.787348 0.067032 0.765412 -0.004195
C113  C     C_3   0.860457 0.016305 0.769987 -0.257379
C114  C     C_3   0.973309 0.090574 0.746497 -0.500747
C115  C     C_3   0.569641 0.835666 0.301143 0.009573
C116  C     C_3   0.486444 0.814056 0.341421 -0.283665
C117  C     C_3   0.422613 0.692120 0.356453 -0.489878
C118  C     C_3   0.244694 0.300595 0.307011 0.008307
C119  C     C_3   0.284506 0.348696 0.356961 -0.281640
C120  C     C_3   0.188918 0.333937 0.388356 -0.470310
Cr1   Cr    Cr6+3 0.504830 0.254570 0.500510 1.006548
Cr2   Cr    Cr6+3 0.745430 0.250260 0.500510 1.010875
Cr3   Cr    Cr6+3 0.749740 0.495170 0.500510 1.010063
Cr4   Cr    Cr6+3 0.254570 0.504830 0.000510 1.022535
Cr5   Cr    Cr6+3 0.250260 0.745430 0.000510 1.016779
Cr6   Cr    Cr6+3 0.495170 0.749740 0.000510 1.015984
H1    H     H_    0.792813 0.490594 0.744116 0.099411
H2    H     H_    0.344777 0.975653 0.278800 0.123883
H3    H     H_    0.462144 0.164159 0.046860 0.161315
H4    H     H_    0.575327 0.213478 0.088315 0.137729
H5    H     H_    0.798253 0.441471 0.191640 0.096283
H6    H     H_    0.916629 0.486214 0.153031 0.132884
H7    H     H_    0.757282 0.573986 0.157640 0.155197
H8    H     H_    0.891113 0.651221 0.129039 0.199016
H9    H     H_    0.845176 0.500652 0.073222 0.166305
H10   H     H_    0.732874 0.528354 0.073251 0.161616
H11   H     H_    0.718145 0.408957 0.104773 0.129467
H12   H     H_    0.565407 0.631747 0.301953 0.114201
H13   H     H_    0.178488 0.486636 0.306091 0.103959
H14   H     H_    0.936846 0.310215 0.727524 0.108860
H15   H     H_    0.638303 0.669768 0.711704 0.115413
H16   H     H_    0.382902 0.084843 0.731612 0.108026
H17   H     H_    0.436102 0.128269 0.207640 0.186852
H18   H     H_    0.668253 0.640801 0.214514 0.141578
H19   H     H_    0.046207 0.362559 0.226726 0.137489
H20   H     H_    0.137796 0.484243 0.766641 0.136182
H21   H     H_    0.548570 0.362632 0.755436 0.090620
H22   H     H_    0.432558 0.639579 0.743694 0.139466
H23   H     H_    0.342723 0.880666 0.770716 0.159362
H24   H     H_    0.643096 0.242024 0.258523 0.096388
H25   H     H_    0.652036 0.433368 0.238989 0.102703
H26   H     H_    0.865981 0.380603 0.263977 0.105937
H27   H     H_    0.946108 0.725004 0.844318 0.133352
H28   H     H_    0.844144 0.612931 0.810161 0.098051
H29   H     H_    0.828847 0.776678 0.796420 0.113604
H30   H     H_    0.974951 0.862307 0.784011 0.160496
H31   H     H_    0.953917 0.756517 0.709878 0.203263
H32   H     H_    0.709081 0.211295 0.740339 0.101353
H33   H     H_    0.860195 0.808174 0.709749 0.108351
H34   H     H_    0.808252 0.663716 0.722720 0.142218
H35   H     H_    0.406262 0.246254 0.814161 0.134764
H36   H     H_    0.323406 0.196262 0.760011 0.110582
H37   H     H_    0.239182 0.165377 0.863578 0.178703
H38   H     H_    0.151382 0.123304 0.812042 0.169068
H39   H     H_    0.216859 0.995278 0.788111 0.161636
H40   H     H_    0.160617 0.965158 0.847597 0.159344
H41   H     H_    0.309078 0.039316 0.838951 0.161835
H42   H     H_    0.825849 0.146458 0.785497 0.145982
H43   H     H_    0.414332 0.838687 0.230417 0.093237
H44   H     H_    0.783083 0.084014 0.726907 0.105022
H45   H     H_    0.872247 0.004324 0.808178 0.173401
H46   H     H_    0.818804 0.933975 0.752362 0.160001
H47   H     H_    0.962603 0.106877 0.708774 0.143988
H48   H     H_    0.022160 0.048628 0.747325 0.136237
H49   H     H_    0.019749 0.170975 0.765574 0.164659
H50   H     H_    0.627232 0.809416 0.314105 0.165213
H51   H     H_    0.527548 0.784731 0.269190 0.123413
H52   H     H_    0.531500 0.865797 0.372705 0.180914
H53   H     H_    0.425198 0.836367 0.329472 0.146010
H54   H     H_    0.354910 0.521748 0.255166 0.092231
H55   H     H_    0.377361 0.638810 0.325637 0.137605
H56   H     H_    0.361150 0.679269 0.384458 0.152320
H57   H     H_    0.480181 0.667226 0.371039 0.157048
H58   H     H_    0.169528 0.216649 0.310813 0.173445
H59   H     H_    0.218186 0.350151 0.286072 0.118008
H60   H     H_    0.323362 0.305706 0.374300 0.197171
H61   H     H_    0.347460 0.438653 0.354157 0.151506
H62   H     H_    0.146760 0.374510 0.372052 0.151572
H63   H     H_    0.221617 0.372231 0.423617 0.158354
H64   H     H_    0.127479 0.244233 0.393756 0.159589
H65   H     H_    0.257435 0.682067 0.253035 0.087048
H66   H     H_    0.171400 0.873111 0.317001 0.167882
H67   H     H_    0.239191 0.798226 0.304044 0.100846
H68   H     H_    0.068232 0.732707 0.385467 0.192700
H69   H     H_    0.164606 0.685084 0.375749 0.151336
H70   H     H_    0.324039 0.875858 0.389663 0.144844
H71   H     H_    0.230414 0.824544 0.439806 0.156674
H72   H     H_    0.229056 0.924926 0.399950 0.164847
H73   H     H_    0.221764 0.735784 0.648898 0.174100
H74   H     H_    0.089675 0.617006 0.640202 0.136075
H75   H     H_    0.292680 0.621432 0.686424 0.209170
H76   H     H_    0.816597 0.338271 0.802722 0.118850
H77   H     H_    0.161785 0.497158 0.673655 0.181548
H78   H     H_    0.188552 0.536615 0.587518 0.154568
H79   H     H_    0.308027 0.537988 0.612159 0.181181
H80   H     H_    0.315869 0.667092 0.598128 0.143690
H81   H     H_    0.209231 0.256086 0.715245 0.170200
H82   H     H_    0.323388 0.288246 0.675179 0.128591
H83   H     H_    0.108429 0.286587 0.651823 0.160677
H84   H     H_    0.224935 0.334860 0.611733 0.180110
H85   H     H_    0.207590 0.150202 0.612450 0.160154
H86   H     H_    0.077246 0.137410 0.596208 0.152433
H87   H     H_    0.657435 0.576672 0.798568 0.112044
H88   H     H_    0.095597 0.098965 0.655342 0.141923
H89   H     H_    0.640645 0.868361 0.709079 0.167172
H90   H     H_    0.644389 0.969684 0.667282 0.126634
H91   H     H_    0.509862 0.715361 0.655563 0.177701
H92   H     H_    0.513498 0.816242 0.614549 0.177598
H93   H     H_    0.716550 0.897097 0.601965 0.151887
H94   H     H_    0.640534 0.750112 0.589437 0.175185
H95   H     H_    0.716377 0.799616 0.644369 0.136569
H96   H     H_    0.829520 0.277672 0.189684 0.129438
H97   H     H_    0.696327 0.209034 0.161089 0.102818
H98   H     H_    0.547269 0.200796 0.804802 0.103981
H99   H     H_    0.886563 0.164611 0.142026 0.186782
H100  H     H_    0.752293 0.094761 0.113884 0.175511
H101  H     H_    0.789303 0.278218 0.081170 0.138834
H102  H     H_    0.891704 0.245159 0.062106 0.170082
H103  H     H_    0.925425 0.345837 0.108449 0.161100
H104  H     H_    0.566997 0.302856 0.165294 0.112589
H105  H     H_    0.536802 0.398052 0.134508 0.142504
H106  H     H_    0.391456 0.142753 0.128805 0.178291
H107  H     H_    0.372374 0.242826 0.096797 0.183978
H108  H     H_    0.553105 0.311527 0.054876 0.156467
O1    O     O_R   0.479630 0.139450 0.552170 -0.502257
O2    O     O_R   0.360080 0.516200 0.048600 -0.494613
O3    O     O_R   0.156120 0.639920 0.048600 -0.485262
O4    O     O_R   0.483800 0.843880 0.048600 -0.516321
O5    O     O_R   0.478560 0.139320 0.448720 -0.515173
O6    O     O_R   0.860680 0.339240 0.448720 -0.498783
O7    O     O_R   0.660760 0.521440 0.448720 -0.492270
O8    O     O_R   0.139320 0.478560 0.948720 -0.512702
O9    O     O_R   0.339240 0.860680 0.948720 -0.509022
O10   O     O_R   0.521440 0.660760 0.948720 -0.497375
O11   O     O_R   0.515210 0.359960 0.452710 -0.488183
O12   O     O_R   0.860550 0.340180 0.552170 -0.505691
O13   O     O_R   0.640040 0.155250 0.452710 -0.482949
O14   O     O_R   0.844750 0.484790 0.452710 -0.508540
O15   O     O_R   0.359960 0.515210 0.952710 -0.479095
O16   O     O_R   0.155250 0.640040 0.952710 -0.490260
O17   O     O_R   0.484790 0.844750 0.952710 -0.508665
O18   O     O_3   0.666667 0.333333 0.499990 -0.326421
O19   O     O_3   0.333333 0.666667 0.999990 -0.310848
O20   O     O_3   0.012594 0.692258 0.786141 -0.537867
O21   O     O_3   0.317862 0.322185 0.795197 -0.573331
O22   O     O_3   0.681173 0.992734 0.784412 -0.571175
O23   O     O_R   0.659820 0.520370 0.552170 -0.496235
O24   O     O_3   0.636470 0.949513 0.289601 -0.537582
O25   O     O_3   0.324818 0.286955 0.282575 -0.543718
O26   O     O_3   0.065844 0.716491 0.293485 -0.533287
O27   O     O_3   0.138469 0.667615 0.710647 -0.552137
O28   O     O_3   0.303070 0.421243 0.695108 -0.594448
O29   O     O_3   0.493973 0.868013 0.703324 -0.573891
O30   O     O_3   0.734247 0.112416 0.207542 -0.537809
O31   O     O_3   0.424828 0.298704 0.188166 -0.553863
O32   O     O_3   0.935757 0.594549 0.208183 -0.533155
O33   O     O_R   0.139450 0.479630 0.052170 -0.518025
O34   O     O_R   0.340180 0.860550 0.052170 -0.512108
O35   O     O_R   0.520370 0.659820 0.052170 -0.492431
O36   O     O_R   0.516200 0.360080 0.548600 -0.493802
O37   O     O_R   0.639920 0.156120 0.548600 -0.499390
O38   O     O_R   0.843880 0.483800 0.548600 -0.503727

loop_
_geom_bond_atom_site_label_1
_geom_bond_atom_site_label_2
_ccdc_geom_bond_type
Cr3   O38   S    
C65   C92   S    
C48   C110  S    
C8    H79   S    
C62   C89   S    
C26   C32   S    
C6    H73   S    
C30   H12   S    
C116  H52   S    
C22   H5    S    
C4    H69   S    
C108  C109  S    
C6    C7    S    
Cr6   O35   S    
C16   H96   S    
C19   C20   S    
C61   C68   S    
Cr3   O7    S    
C40   C93   S    
C60   C99   S    
C103  H18   S    
C53   O5    A    
C53   O13   A    
C107  H34   S    
C116  H53   S    
C7    C8    S    
C113  H45   S    
C41   C94   S    
C48   C81   T    
C4    H68   S    
C71   C97   S    
C29   C36   S    
C42   C75   T    
C3    H67   S    
C18   H103  S    
C77   O34   A    
C20   H106  S    
C105  O20   S    
C32   H1    S    
C59   C88   S    
Cr5   O16   S    
C26   H76   S    
Cr6   O19   S    
C100  H15   S    
C109  C111  S    
C46   C79   T    
C89   C102  S    
C117  H55   S    
C112  O22   S    
C106  C107  S    
C2    C102  S    
C26   C92   S    
C115  C116  S    
C112  H42   S    
C87   C94   S    
C46   C88   S    
C47   C99   S    
C40   C73   T    
C28   C94   S    
C17   H100  S    
C64   C71   S    
C1    C80   S    
C25   H10   S    
C68   O22   S    
C118  C119  S    
C7    H77   S    
C85   C98   S    
C61   C87   S    
C11   H85   S    
C41   C74   T    
C87   C101  S    
C17   H99   S    
C28   C101  S    
C10   H84   S    
C114  H47   S    
Cr2   O6    S    
C99   C100  S    
C60   C67   S    
C16   C17   S    
Cr1   O1    S    
C30   C103  S    
C24   C38   S    
C39   C72   T    
C14   H91   S    
C45   C78   T    
C111  H39   S    
C54   O14   A    
Cr4   O8    S    
C13   C103  S    
C86   C100  S    
C9    C10   S    
C91   C104  S    
C13   C37   S    
C33   O1    A    
C44   O12   A    
Cr2   O12   S    
C15   H93   S    
C24   C51   S    
Cr1   O11   S    
C105  H28   S    
C56   O10   A    
C77   C82   S    
C24   C64   S    
C55   O2    A    
C37   C70   S    
C52   O11   A    
C58   O17   A    
C53   C75   S    
C47   C80   T    
C61   C110  S    
C120  H62   S    
C112  C113  S    
C107  H31   S    
C85   C92   S    
C50   C83   T    
C34   C99   S    
C113  H46   S    
C1    O23   A    
C44   C79   S    
C27   C34   S    
C67   O21   S    
C21   H4    S    
C86   C93   S    
C112  H44   S    
C27   C100  S    
C69   O24   S    
Cr2   O18   S    
C23   H7    S    
C32   C65   S    
C42   C95   S    
C60   O28   S    
C8    H78   S    
C85   H20   S    
C61   O29   S    
C109  H37   S    
C62   O30   S    
C29   C95   S    
C60   C86   S    
C117  H56   S    
C90   H25   S    
C30   C96   S    
C5    H71   S    
C1    O36   A    
C52   C76   S    
C105  H27   S    
Cr1   O5    S    
C108  H36   S    
C18   H101  S    
C9    H82   S    
Cr3   O23   S    
C25   H11   S    
C62   C69   S    
C98   H14   S    
Cr6   O17   S    
C24   C104  S    
C12   O29   S    
C16   O30   S    
C49   C82   T    
C89   C95   S    
C70   C96   S    
C108  O21   S    
C59   C85   S    
C57   O8    A    
C2    C49   S    
C120  H64   S    
C11   H86   S    
C43   C96   S    
C34   H21   S    
C22   O32   S    
C10   H83   S    
C21   H108  S    
C13   C63   S    
C63   C70   S    
C114  H48   S    
C28   H98   S    
C56   O15   A    
C20   C21   S    
C17   C18   S    
C36   H43   S    
C15   H94   S    
C111  H40   S    
C119  H61   S    
C91   C97   S    
Cr5   O19   S    
C63   O31   S    
Cr4   O15   S    
C21   H3    S    
C115  H51   S    
C35   C110  S    
C18   H102  S    
Cr2   O37   S    
C26   C98   S    
C5    H70   S    
C55   O35   A    
C114  H49   S    
C12   C14   S    
C106  H29   S    
C106  H30   S    
Cr5   O34   S    
Cr6   O10   S    
C77   O4    A    
C27   H87   S    
C27   C93   S    
C111  H41   S    
C102  H17   S    
C12   H90   S    
C55   C83   S    
C3    C4    S    
Cr6   O4    S    
C89   H24   S    
C39   C92   S    
Cr1   O18   S    
Cr5   O3    S    
C36   C69   S    
C58   C74   S    
C67   C93   S    
C113  C114  S    
C105  C106  S    
C2    C36   S    
C43   C76   T    
C28   C35   S    
C37   H54   S    
C38   C71   S    
C70   O25   S    
C56   C73   S    
C3    H66   S    
C23   H8    S    
C22   H6    S    
C14   C15   S    
C3    O26   S    
C104  H19   S    
C59   O27   S    
C65   O20   S    
C8    H80   S    
C101  C110  S    
Cr4   O19   S    
C69   C95   S    
C109  H38   S    
C86   H22   S    
C34   C67   S    
C107  H33   S    
C119  C120  S    
C117  H57   S    
C90   C96   S    
C5    H72   S    
C118  O25   S    
C118  H58   S    
C108  H35   S    
Cr4   O33   S    
C31   H13   S    
C12   H89   S    
C31   C38   S    
C44   O38   A    
C19   O31   S    
C31   C104  S    
C118  H59   S    
C71   O26   S    
C35   H32   S    
C54   O6    A    
Cr3   O18   S    
C66   O3    A    
C9    O28   S    
C64   O32   S    
C52   O7    A    
C59   C65   S    
C6    H74   S    
C115  H50   S    
Cr3   O14   S    
C19   H105  S    
C35   C68   S    
C116  C117  S    
Cr1   O36   S    
C63   C90   S    
C29   C102  S    
Cr5   O9    S    
C6    O27   S    
C31   C97   S    
C57   C72   S    
C58   O9    A    
C25   H9    S    
C19   H104  S    
C68   C94   S    
C90   C103  S    
C119  H60   S    
C10   C11   S    
C11   H88   S    
C66   C84   S    
C13   C50   S    
Cr4   O2    S    
C88   C98   S    
C4    C5    S    
C23   C25   S    
C15   H95   S    
C30   C37   S    
C7    H75   S    
C20   H107  S    
C87   H23   S    
C29   H2    S    
C115  O24   S    
C9    H81   S    
C22   C23   S    
C14   H92   S    
C16   H97   S    
C45   C97   S    
C64   C91   S    
C57   O16   A    
C120  H63   S    
C33   C81   S    
C51   C84   T    
C38   H65   S    
C33   O37   A    
C66   O33   A    
C2    C62   S    
C91   H26   S    
Cr2   O13   S    
C54   C78   S    
C101  H16   S    
C32   C88   S    
