data_mof_unit_21820.cif
_audit_creation_date              2012-10-26T20:22:04-0400
_audit_creation_method            fapswitch 2.2
_symmetry_space_group_name_H-M    P1
_symmetry_Int_Tables_number       1
_space_group_crystal_system       triclinic
_cell_length_a                    10.8892
_cell_length_b                    9.611224
_cell_length_c                    10.640672
_cell_angle_alpha                 90.000098
_cell_angle_beta                  92.886721
_cell_angle_gamma                 90.0
_cell_volume                      1112.22405683

loop_
_atom_site_label
_atom_site_type_symbol
_atom_type_description
_atom_site_fract_x
_atom_site_fract_y
_atom_site_fract_z
_atom_type_partial_charge
C1    C     C_R   0.871469 0.501886 0.493757 -0.102977
C2    C     C_3   0.383861 0.496572 0.036790 -0.128654
C3    C     C_3   0.441148 0.610916 0.956143 -0.133900
C4    C     C_3   0.558686 0.382477 0.044092 -0.118687
C5    C     C_3   0.498774 0.497282 0.877550 0.049949
C6    C     C_3   0.501227 0.497282 0.122450 0.049949
C7    C     C_R   0.428632 0.075019 0.412712 0.242450
C8    C     C_R   0.570907 0.925419 0.587632 0.245670
C9    C     C_R   0.571369 0.075019 0.587287 0.242451
C10   C     C_R   0.429092 0.925419 0.412368 0.245667
C11   C     C_R   0.063241 0.376309 0.508551 0.309860
C12   C     C_R   0.128531 0.501886 0.506245 -0.102977
C13   C     C_R   0.936316 0.628623 0.498056 0.333653
C14   C     C_R   0.936759 0.376309 0.491451 0.309862
C15   C     C_R   0.063684 0.628623 0.501948 0.333653
C16   C     C_3   0.228896 0.139643 0.308340 -0.215307
C17   C     C_3   0.612994 0.857497 0.806554 -0.296880
C18   C     C_3   0.771107 0.139635 0.691660 -0.215307
C19   C     C_3   0.386994 0.857493 0.193448 -0.296880
C20   C     C_R   0.262496 0.500341 0.503381 0.576375
C21   C     C_R   0.737504 0.500341 0.496619 0.576377
C22   C     C_R   0.500739 0.499562 0.259475 0.534608
C23   C     C_R   0.499261 0.499562 0.740525 0.534609
C24   C     C_3   0.558842 0.610924 0.043857 -0.133900
C25   C     C_3   0.441327 0.382469 0.955908 -0.118686
C26   C     C_3   0.616141 0.496587 0.963210 -0.128656
Cu1   Cu    Cu3+1 0.500000 0.640660 0.500000 1.062192
Cu2   Cu    Cu3+1 0.500000 0.359340 0.500000 1.051157
F1    F     F_    0.120598 0.253070 0.530657 -0.597602
F2    F     F_    0.877605 0.753292 0.495999 -0.581481
F3    F     F_    0.879403 0.253070 0.469345 -0.597601
F4    F     F_    0.122395 0.753292 0.504007 -0.581481
H1    H     H_    0.390549 0.703134 0.918180 0.113960
H2    H     H_    0.193891 0.081712 0.389362 0.247449
H3    H     H_    0.739397 0.858326 0.665362 0.288240
H4    H     H_    0.654840 0.948532 0.855472 0.108095
H5    H     H_    0.649514 0.764134 0.856129 0.157026
H6    H     H_    0.511630 0.861984 0.812875 0.154234
H7    H     H_    0.597023 0.156641 0.767976 0.235000
H8    H     H_    0.802609 0.085811 0.779628 0.101856
H9    H     H_    0.811143 0.245679 0.695216 0.191330
H10   H     H_    0.806111 0.081704 0.610637 0.247451
H11   H     H_    0.260598 0.858329 0.334647 0.288245
H12   H     H_    0.606788 0.288845 0.082863 0.122245
H13   H     H_    0.345138 0.948520 0.144528 0.108096
H14   H     H_    0.350479 0.764124 0.143879 0.157031
H15   H     H_    0.488356 0.861991 0.187121 0.154226
H16   H     H_    0.609434 0.703146 0.081820 0.113960
H17   H     H_    0.393235 0.288832 0.917137 0.122243
H18   H     H_    0.711178 0.496528 0.930007 0.109296
H19   H     H_    0.288824 0.496500 0.069993 0.109296
H20   H     H_    0.402979 0.156629 0.232020 0.234997
H21   H     H_    0.197388 0.085824 0.220370 0.101856
H22   H     H_    0.188866 0.245691 0.304788 0.191328
N1    N     N_R   0.500000 0.852070 0.500000 -0.211362
N2    N     N_R   0.500000 0.147930 0.500000 -0.209513
N3    N     N_2   0.361658 0.150601 0.316884 -0.480023
N4    N     N_2   0.646387 0.850297 0.676810 -0.445592
N5    N     N_2   0.638346 0.150602 0.683113 -0.480022
N6    N     N_2   0.353607 0.850296 0.323194 -0.445591
O1    O     O_R   0.319640 0.618740 0.499990 -0.435849
O2    O     O_R   0.680360 0.381260 0.500010 -0.436196
O3    O     O_R   0.680360 0.618740 0.500010 -0.435850
O4    O     O_R   0.319640 0.381260 0.499990 -0.436200
O5    O     O_R   0.499970 0.618770 0.316850 -0.491460
O6    O     O_R   0.500030 0.381230 0.683150 -0.502926
O7    O     O_R   0.500030 0.618770 0.683150 -0.491459
O8    O     O_R   0.499970 0.381230 0.316850 -0.502921

loop_
_geom_bond_atom_site_label_1
_geom_bond_atom_site_label_2
_ccdc_geom_bond_type
C20   O4    A    
C7    C10   A    
Cu2   O6    S    
C11   C12   A    
C19   H13   S    
C22   O5    A    
C1    C21   S    
Cu1   O5    S    
C17   H4    S    
C19   N6    S    
Cu1   O1    S    
C17   N4    S    
C10   N6    S    
C5    C23   S    
C12   C15   A    
C14   F3    S    
C17   H6    S    
H7    N5    S    
C12   C20   S    
C6    C22   S    
C26   H18   S    
C4    C25   S    
Cu2   N2    S    
C19   H14   S    
C6    C24   S    
C15   F4    S    
C9    N2    A    
C17   H5    S    
C11   F1    S    
C10   N1    A    
C22   O8    A    
C21   O2    A    
C2    C6    S    
Cu1   O3    S    
H11   N6    S    
H3    N4    S    
C5    C25   S    
C7    N2    A    
C8    N1    A    
Cu2   O8    S    
C24   C26   S    
C2    C3    S    
C2    C25   S    
C16   H22   S    
C16   N3    S    
C18   H10   S    
C13   C15   A    
C11   C14   A    
Cu1   N1    S    
C4    C26   S    
C21   O3    A    
C1    C13   A    
C2    H19   S    
C3    H1    S    
C5    C26   S    
C24   H16   S    
Cu2   O4    S    
C18   N5    S    
C20   O1    A    
Cu1   O7    S    
C13   F2    S    
C23   O6    A    
C4    C6    S    
H20   N3    S    
C19   H15   S    
C23   O7    A    
Cu1   Cu2   S    
C18   H8    S    
C16   H21   S    
C8    N4    S    
C1    C14   A    
C4    H12   S    
C16   H2    S    
C9    N5    S    
C7    N3    S    
C18   H9    S    
C3    C24   S    
C8    C9    A    
C3    C5    S    
C25   H17   S    
Cu2   O2    S    
