data_mof_unit_33206.cif
_audit_creation_date              2012-12-10T17:05:57-0500
_audit_creation_method            fapswitch 2.2
_symmetry_space_group_name_H-M    P1
_symmetry_Int_Tables_number       1
_space_group_crystal_system       triclinic
_cell_length_a                    11.52736
_cell_length_b                    10.659519
_cell_length_c                    10.067381
_cell_angle_alpha                 89.631677
_cell_angle_beta                  89.476678
_cell_angle_gamma                 90.080864
_cell_volume                      1236.96214956

loop_
_atom_site_label
_atom_site_type_symbol
_atom_type_description
_atom_site_fract_x
_atom_site_fract_y
_atom_site_fract_z
_atom_type_partial_charge
C1    C     C_R   0.503151 0.262455 0.500064 0.967775
C2    C     C_1   0.161545 0.501992 0.501046 -0.190036
C3    C     C_1   0.059318 0.503596 0.500624 -0.012238
C4    C     C_1   0.940642 0.504460 0.499799 -0.026781
C5    C     C_1   0.838405 0.503532 0.499167 -0.206190
C6    C     C_2   0.550674 0.938452 0.385997 -0.132417
C7    C     C_R   0.510637 0.900185 0.252236 0.205463
C8    C     C_R   0.404158 0.945175 0.204809 -0.145183
C9    C     C_R   0.368260 0.916266 0.076320 -0.141191
C10   C     C_R   0.439127 0.844016 0.993603 -0.091174
C11   C     C_R   0.545683 0.799985 0.039533 -0.150373
C12   C     C_2   0.543319 0.866689 0.496629 -0.460260
C13   C     C_R   0.581210 0.826897 0.168729 -0.120350
C14   C     C_3   0.739448 0.071523 0.266664 0.111110
C15   C     C_3   0.843854 0.156856 0.239940 -0.353494
C16   C     C_3   0.901008 0.197710 0.368723 -0.807631
C17   C     C_3   0.787452 0.515366 0.055704 0.015424
C18   C     C_3   0.887680 0.549257 0.147030 -0.290741
C19   C     C_3   0.985134 0.615629 0.070687 -0.983499
C20   C     C_3   0.349376 0.375767 0.109351 0.175914
C21   C     C_3   0.219155 0.378647 0.083215 -0.351312
C22   C     C_3   0.164897 0.248603 0.097952 -1.009198
C23   C     C_2   0.574675 0.071872 0.405219 0.479202
C24   C     C_2   0.509556 0.129417 0.497692 -0.453904
C25   C     C_2   0.578513 0.448932 0.925042 -0.278286
C26   C     C_2   0.590296 0.476179 0.071690 0.578517
C27   C     C_R   0.282063 0.500191 0.500430 0.882623
C28   C     C_R   0.507297 0.737723 0.498898 0.946679
C29   C     C_R   0.717924 0.501029 0.499572 0.896994
H1    H     H_    0.569088 0.905061 0.591892 0.154683
H2    H     H_    0.711953 0.033413 0.169639 0.115024
H3    H     H_    0.767820 0.992861 0.332383 0.120284
H4    H     H_    0.908774 0.105462 0.178844 0.165091
H5    H     H_    0.816007 0.240910 0.182819 0.257597
H6    H     H_    0.936349 0.114983 0.422314 0.235459
H7    H     H_    0.837057 0.245688 0.433823 0.280915
H8    H     H_    0.973492 0.263235 0.345683 0.240546
H9    H     H_    0.759135 0.602962 0.004224 0.127543
H10   H     H_    0.819035 0.446924 0.980744 0.146071
H11   H     H_    0.855430 0.612534 0.226485 0.227449
H12   H     H_    0.452661 0.078673 0.566028 0.115481
H13   H     H_    0.922303 0.462632 0.194101 0.229468
H14   H     H_    0.019363 0.554271 0.990718 0.269425
H15   H     H_    0.056667 0.638463 0.139624 0.271986
H16   H     H_    0.952970 0.704418 0.026014 0.262741
H17   H     H_    0.362652 0.338800 0.210970 0.182005
H18   H     H_    0.391776 0.311096 0.037568 0.123733
H19   H     H_    0.176768 0.442893 0.155241 0.242661
H20   H     H_    0.203688 0.414604 0.981016 0.231041
H21   H     H_    0.204620 0.182833 0.025575 0.266756
H22   H     H_    0.070395 0.254629 0.078539 0.271330
H23   H     H_    0.641203 0.387516 0.877817 0.164866
H24   H     H_    0.177460 0.211799 0.200312 0.264283
H25   H     H_    0.455429 0.574569 0.892623 0.223496
H26   H     H_    0.349316 0.003070 0.267188 0.118369
H27   H     H_    0.285975 0.950819 0.040467 0.129174
H28   H     H_    0.411786 0.822699 0.893664 0.130570
H29   H     H_    0.600883 0.745550 0.974537 0.110107
H30   H     H_    0.664229 0.792634 0.203005 0.110402
N1    N     N_2   0.501210 0.501330 0.852150 -0.195289
N2    N     N_2   0.501250 0.501360 0.147810 0.050084
O1    O     O_R   0.499980 0.319060 0.613040 -0.616409
O2    O     O_3   0.697034 0.460506 0.132396 -0.633100
O3    O     O_3   0.394870 0.498045 0.092700 -0.608468
O4    O     O_R   0.500020 0.319100 0.386900 -0.592203
O5    O     O_R   0.334430 0.499990 0.613070 -0.606410
O6    O     O_R   0.334470 0.500030 0.386930 -0.608760
O7    O     O_R   0.499980 0.680900 0.613100 -0.630488
O8    O     O_R   0.500020 0.680940 0.386960 -0.590943
O9    O     O_R   0.665530 0.499970 0.613070 -0.622338
O10   O     O_R   0.665570 0.500010 0.386930 -0.557647
O11   O     O_3   0.647238 0.142595 0.321290 -0.591318
Zn1   Zn    Zn3+2 0.499980 0.499970 0.650990 0.930815
Zn2   Zn    Zn3+2 0.500020 0.500030 0.349010 1.028475

loop_
_geom_bond_atom_site_label_1
_geom_bond_atom_site_label_2
_ccdc_geom_bond_type
C20   O3    S    
O10   Zn2   S    
C1    O4    A    
C26   O2    S    
C19   H16   S    
O1    Zn1   S    
C6    C7    S    
C13   H30   S    
C25   N1    D    
N2    Zn2   S    
N2    O3    S    
C11   H29   S    
C9    C10   A    
C16   H8    S    
C15   H5    S    
C28   O8    A    
C22   H21   S    
C14   H2    S    
C23   C24   D    
C21   H19   S    
C1    O1    A    
C20   C21   S    
O9    Zn1   S    
C21   H20   S    
C2    C3    T    
C25   C26   S    
C25   H23   S    
C7    C8    A    
C27   O5    A    
H25   N1    S    
C21   C22   S    
C17   O2    S    
C24   H12   S    
C11   C13   A    
C2    C27   S    
C12   C28   S    
C6    C23   S    
C8    H26   S    
C28   O7    A    
C26   N2    D    
C19   H14   S    
C17   C18   S    
C22   H24   S    
C5    C29   S    
C17   H9    S    
C18   H13   S    
C16   H6    S    
C6    C12   D    
C20   H17   S    
C22   H22   S    
C20   H18   S    
C27   O6    A    
C10   C11   A    
C9    H27   S    
C3    C4    S    
N1    Zn1   S    
O8    Zn2   S    
C10   H28   S    
C19   H15   S    
C1    C24   S    
C18   C19   S    
C17   H10   S    
O6    Zn2   S    
C18   H11   S    
C14   C15   S    
C4    C5    T    
C7    C13   A    
C12   H1    S    
O7    Zn1   S    
C29   O9    A    
O5    Zn1   S    
C14   O11   S    
C23   O11   S    
C15   H4    S    
C16   H7    S    
O4    Zn2   S    
C15   C16   S    
C14   H3    S    
C8    C9    A    
C29   O10   A    
