data_mof_unit_31690.cif
_audit_creation_date              2013-03-05T15:50:12-0500
_audit_creation_method            fapswitch 2.2
_symmetry_space_group_name_H-M    P1
_symmetry_Int_Tables_number       1
_space_group_crystal_system       triclinic
_cell_length_a                    15.03051
_cell_length_b                    15.701415
_cell_length_c                    9.577627
_cell_angle_alpha                 89.16193
_cell_angle_beta                  89.979298
_cell_angle_gamma                 90.053307
_cell_volume                      2260.07967504

loop_
_atom_site_label
_atom_site_type_symbol
_atom_site_description
_atom_site_fract_x
_atom_site_fract_y
_atom_site_fract_z
_atom_type_partial_charge
O1    O     O_R   0.409820 0.909830 0.618810 -0.594654
O2    O     O_R   0.409820 0.090170 0.618810 -0.599044
O3    O     O_R   0.909820 0.409830 0.618810 -0.602205
O4    O     O_R   0.909820 0.590170 0.618810 -0.586699
O5    O     O_R   0.409840 0.909830 0.381240 -0.582685
O6    O     O_R   0.409840 0.090170 0.381240 -0.566479
O7    O     O_R   0.909840 0.409830 0.381240 -0.575274
O8    O     O_R   0.909840 0.590170 0.381240 -0.568903
C1    C     C_R   0.386197 0.876748 0.501972 0.809182
C2    C     C_R   0.384353 0.121991 0.501210 0.807871
C3    C     C_R   0.883904 0.378302 0.502231 0.801481
C4    C     C_R   0.884606 0.621698 0.498872 0.796989
Cu1   Cu    Cu3+1 0.499990 0.000000 0.640660 0.934019
Cu2   Cu    Cu3+1 0.999990 0.500000 0.640660 0.937987
Cu3   Cu    Cu3+1 0.500010 0.000000 0.359340 0.971948
Cu4   Cu    Cu3+1 0.000010 0.500000 0.359340 0.981715
O9    O     O_R   0.590170 0.090170 0.618760 -0.606960
O10   O     O_R   0.590170 0.909830 0.618760 -0.618901
O11   O     O_R   0.090170 0.590170 0.618760 -0.616076
O12   O     O_R   0.090170 0.409830 0.618760 -0.611182
O13   O     O_R   0.590190 0.090180 0.381190 -0.592355
O14   O     O_R   0.590190 0.909820 0.381190 -0.584247
O15   O     O_R   0.090190 0.590180 0.381190 -0.582169
O16   O     O_R   0.090190 0.409820 0.381190 -0.590186
C5    C     C_R   0.613752 0.123102 0.499728 0.805141
C6    C     C_R   0.616330 0.878480 0.502546 0.802129
C7    C     C_R   0.115639 0.621899 0.500350 0.795290
C8    C     C_R   0.114408 0.377375 0.500851 0.800837
H1    H     H_    0.322429 0.212631 0.283569 0.178522
H2    H     H_    0.326907 0.787351 0.284134 0.168611
H3    H     H_    0.766040 0.659120 0.296730 0.179094
H4    H     H_    0.825075 0.289039 0.285584 0.176699
C9    C     C_R   0.314233 0.199112 0.771377 -0.176530
C10   C     C_R   0.324775 0.790076 0.770207 -0.183055
C11   C     C_R   0.880649 0.750034 0.716618 -0.187140
C12   C     C_R   0.806993 0.302223 0.772219 -0.168029
H5    H     H_    0.382548 0.181253 0.789054 0.191679
H6    H     H_    0.393538 0.807895 0.783708 0.180723
H7    H     H_    0.946786 0.727058 0.697339 0.154792
H8    H     H_    0.874683 0.320844 0.792709 0.189874
C13   C     C_R   0.262587 0.209345 0.891008 -0.164733
C14   C     C_R   0.274988 0.778662 0.891815 -0.168493
C15   C     C_R   0.861207 0.780254 0.848263 -0.098677
C16   C     C_R   0.753065 0.291157 0.889661 -0.167415
H9    H     H_    0.290040 0.193647 0.992684 0.165020
H10   H     H_    0.303893 0.793248 0.992221 0.153562
H11   H     H_    0.910878 0.776951 0.929988 0.204700
H12   H     H_    0.778434 0.306636 0.992034 0.160349
C17   C     C_R   0.775579 0.807615 0.876879 0.296192
C18   C     C_R   0.666396 0.262013 0.874671 0.303977
C19   C     C_R   0.175499 0.238001 0.879077 0.309527
C20   C     C_R   0.187499 0.751003 0.882985 0.301415
C21   C     C_R   0.713480 0.816872 0.769012 -0.207916
C22   C     C_R   0.636899 0.236039 0.744274 -0.176039
C23   C     C_R   0.143448 0.264523 0.749300 -0.168628
C24   C     C_R   0.153596 0.725956 0.754886 -0.187754
H13   H     H_    0.647360 0.835448 0.799027 0.188499
H14   H     H_    0.568555 0.215226 0.736166 0.176562
H15   H     H_    0.074881 0.284906 0.743792 0.182609
H16   H     H_    0.085475 0.705748 0.754423 0.171512
C25   C     C_R   0.735132 0.792622 0.630980 0.071415
C26   C     C_R   0.694376 0.238337 0.626884 0.063891
C27   C     C_R   0.198544 0.262740 0.629302 0.053110
C28   C     C_R   0.205965 0.730000 0.631811 0.065783
C29   C     C_R   0.279069 0.217051 0.636229 0.107041
C30   C     C_R   0.286829 0.775124 0.636899 0.111176
C31   C     C_R   0.814016 0.745821 0.613435 0.091360
C32   C     C_R   0.774807 0.284068 0.636235 0.115287
C33   C     C_R   0.319883 0.192073 0.507831 -0.112263
C34   C     C_R   0.325084 0.803991 0.508563 -0.115461
C35   C     C_R   0.822114 0.692797 0.496903 -0.105059
C36   C     C_R   0.818520 0.308837 0.509210 -0.107722
C37   C     C_R   0.291189 0.228609 0.381731 -0.168641
C38   C     C_R   0.296289 0.769293 0.382640 -0.177744
C39   C     C_R   0.761354 0.699893 0.386732 -0.136912
C40   C     C_R   0.791848 0.272957 0.382886 -0.170625
H17   H     H_    0.647987 0.764886 0.304536 0.198960
H18   H     H_    0.709109 0.183061 0.282520 0.189420
H19   H     H_    0.207699 0.319911 0.282671 0.196313
H20   H     H_    0.212282 0.679589 0.284454 0.200025
C41   C     C_R   0.693154 0.759110 0.392106 -0.139314
C42   C     C_R   0.723595 0.214105 0.380116 -0.154178
C43   C     C_R   0.223470 0.288022 0.380534 -0.146924
C44   C     C_R   0.228329 0.710027 0.381816 -0.147988
C45   C     C_R   0.680652 0.808135 0.511082 -0.107212
C46   C     C_R   0.675068 0.195354 0.501266 -0.076739
C47   C     C_R   0.176850 0.306053 0.503254 -0.084714
C48   C     C_R   0.181233 0.690847 0.504235 -0.085997
H21   H     H_    0.361264 0.987347 0.129582 0.149209
H22   H     H_    0.860691 0.499872 0.129367 0.136619
C49   C     C_R   0.662512 0.016555 0.143298 -0.156566
C50   C     C_R   0.163522 0.500772 0.143998 -0.203835
H23   H     H_    0.671521 0.005868 0.252134 0.220246
H24   H     H_    0.171167 0.501409 0.253971 0.213572
C51   C     C_R   0.740574 0.034858 0.071195 -0.221999
C52   C     C_R   0.243646 0.500605 0.072169 -0.274678
H25   H     H_    0.801417 0.044117 0.129580 0.206398
H26   H     H_    0.305182 0.501096 0.130950 0.200735
C53   C     C_R   0.741816 0.033718 0.926277 0.350770
C54   C     C_R   0.244827 0.499795 0.927409 0.342221
C55   C     C_R   0.662918 0.014807 0.855886 -0.235139
C56   C     C_R   0.163780 0.499347 0.855901 -0.225723
H27   H     H_    0.670203 0.002583 0.747979 0.234450
H28   H     H_    0.169553 0.498705 0.746081 0.237452
C57   C     C_R   0.580025 0.007899 0.925157 0.163482
C58   C     C_R   0.080550 0.499829 0.925275 0.171667
C59   C     C_R   0.579899 0.008294 0.074500 0.259910
C60   C     C_R   0.080458 0.500174 0.074749 0.276784
N1    N     N_R   0.501200 0.000000 0.147910 -0.192128
N2    N     N_R   0.001200 0.500000 0.147910 -0.186790
C61   C     C_R   0.423746 0.992996 0.074133 -0.048775
C62   C     C_R   0.923427 0.499941 0.073982 -0.025277
H29   H     H_    0.361330 0.987571 0.870808 0.155678
H30   H     H_    0.860766 0.500015 0.870521 0.148065
C63   C     C_R   0.423775 0.993103 0.926078 -0.074347
C64   C     C_R   0.923466 0.500042 0.925936 -0.052767
N3    N     N_R   0.501270 1.000000 0.852040 -0.199203
N4    N     N_R   0.001270 0.500000 0.852040 -0.198627
N5    N     N_R   0.823750 0.047091 0.850796 0.136919
O17   O     O_R   0.897732 0.061120 0.917259 -0.313305
O18   O     O_R   0.824745 0.048056 0.714871 -0.370042
N6    N     N_R   0.328161 0.499524 0.852719 0.136638
O19   O     O_R   0.403368 0.499014 0.920064 -0.331444
O20   O     O_R   0.329795 0.499802 0.716811 -0.374499
Br1   Br    Br    0.742548 0.824662 0.065256 -0.590703
Br2   Br    Br    0.589530 0.253087 0.033205 -0.546218
Br3   Br    Br    0.101320 0.245513 0.040456 -0.526629
Br4   Br    Br    0.113951 0.744766 0.045412 -0.564488

loop_
_geom_bond_atom_site_label_1
_geom_bond_atom_site_label_2
_geom_bond_distance
_ccdc_geom_bond_type
C43   C47   1.400771 A    
C27   C29   1.408618 A    
C11   C31   1.409457 A    
C23   H15   1.080519 S    
Cu3   N1    2.025071 S    
O10   C6    1.285250 A    
H22   C62   1.081743 S    
H20   C44   1.081251 S    
C10   C30   1.421133 A    
C20   Br4   1.909408 S    
Cu4   N2    2.025071 S    
C12   C32   1.422189 A    
O7    C3    1.312394 A    
C26   C46   1.418050 A    
C18   C22   1.391978 A    
Cu1   O10   1.974279 S    
N1    C61   1.367229 A    
H2    C38   1.083471 S    
C51   C53   1.388469 A    
Cu1   N3    2.024618 S    
C31   C35   1.407449 A    
H1    C37   1.083577 S    
C50   C52   1.386760 A    
C14   H10   1.082838 S    
O2    Cu1   1.969829 S    
C25   C31   1.406809 A    
O6    Cu3   1.974174 S    
C21   C25   1.418896 A    
C50   C60   1.414018 A    
Cu3   O14   1.970047 S    
C60   N2    1.381853 A    
C10   C14   1.393441 A    
Cu2   N4    2.024618 S    
C52   H26   1.083038 S    
Cu4   O16   1.970047 S    
C34   C38   1.399231 A    
C24   C28   1.417797 A    
C33   C37   1.397963 A    
C18   Br2   1.911050 S    
O15   C7    1.308978 A    
O4    C4    1.300880 A    
O11   C7    1.289839 A    
C54   N6    1.442236 S    
C36   C40   1.400635 A    
O8    Cu4   1.974174 S    
C58   N4    1.382928 A    
C59   N1    1.380924 A    
C57   N3    1.381977 A    
C50   H24   1.059770 S    
N5    O18   1.301786 A    
C55   C57   1.414667 A    
C9    C29   1.422760 A    
Cu2   O12   1.974279 S    
C12   H8    1.077217 S    
O1    C1    1.290371 A    
C1    C34   1.465834 S    
C40   C42   1.380575 A    
C21   H13   1.076191 S    
C3    C36   1.468249 S    
C15   C17   1.385756 A    
O12   C8    1.297912 A    
C63   N3    1.366829 A    
C42   C46   1.397865 A    
C22   C26   1.417662 A    
C9    H5    1.077449 S    
C24   H16   1.071682 S    
C23   C27   1.416949 A    
C32   C36   1.431133 A    
C28   C30   1.407501 A    
C11   H7    1.074655 S    
O5    C1    1.309571 A    
C49   C59   1.412672 A    
C49   H23   1.062126 S    
C57   C59   1.430455 A    
H18   C42   1.082600 S    
H3    C39   1.083530 S    
H17   C41   1.082053 S    
O8    C4    1.294052 A    
C8    C47   1.461739 S    
C54   C56   1.397781 A    
C56   H28   1.055550 S    
O3    Cu2   1.972416 S    
C25   C45   1.428787 A    
O7    Cu4   1.967957 S    
C53   C55   1.398139 A    
C4    C35   1.459517 S    
Cu4   O15   1.972631 S    
Cu1   Cu3   2.694377 S    
Cu2   Cu4   2.694377 S    
C12   C16   1.394906 A    
O1    Cu1   1.972416 S    
N6    O20   1.301847 A    
O2    C2    1.284128 A    
C62   C64   1.417906 A    
C11   C15   1.384837 A    
C22   H14   1.080848 S    
C16   C18   1.388496 A    
O13   C5    1.303332 A    
C28   C48   1.425115 A    
C27   C47   1.415243 A    
C10   H6    1.078816 S    
Cu2   O11   1.968059 S    
C39   C41   1.386044 A    
O16   C8    1.299640 A    
C38   C44   1.381252 A    
H4    C40   1.083601 S    
H30   C64   1.081758 S    
N5    O17   1.301692 A    
C51   H25   1.082889 S    
Cu1   O9    1.968059 S    
C17   Br1   1.893946 S    
H21   C61   1.081663 S    
C26   C32   1.409053 A    
C9    C13   1.395069 A    
O9    C5    1.294156 A    
C35   C39   1.399032 A    
C30   C34   1.424635 A    
C44   C48   1.398282 A    
C58   C60   1.431700 A    
C6    C45   1.469930 S    
C29   C33   1.434032 A    
C52   C54   1.386814 A    
C5    C46   1.461212 S    
C64   N4    1.366708 A    
C56   C58   1.416367 A    
C19   C23   1.391434 A    
O4    Cu2   1.969829 S    
C7    C48   1.464460 S    
N2    C62   1.366909 A    
O5    Cu3   1.967957 S    
C17   C21   1.398641 A    
O3    C3    1.288257 A    
O6    C2    1.316619 A    
C53   N5    1.441448 S    
H19   C43   1.082620 S    
C2    C33   1.468956 S    
C16   H12   1.083004 S    
Cu3   O13   1.972631 S    
C19   Br3   1.910579 S    
C49   C51   1.388933 A    
C55   H27   1.059579 S    
O14   C6    1.315839 A    
C13   H9    1.082962 S    
C61   C63   1.417988 A    
N6    O19   1.301655 A    
C15   H11   1.082622 S    
C37   C43   1.381253 A    
C13   C19   1.388747 A    
C41   C45   1.397175 A    
C20   C24   1.390597 A    
C14   C20   1.387472 A    
H29   C63   1.081773 S    
