data_mof_unit_17692.cif
_audit_creation_date              2012-12-11T15:06:40-0500
_audit_creation_method            fapswitch 2.2
_symmetry_space_group_name_H-M    P1
_symmetry_Int_Tables_number       1
_space_group_crystal_system       triclinic
_cell_length_a                    7.231016
_cell_length_b                    15.01133
_cell_length_c                    22.42796
_cell_angle_alpha                 90.00047
_cell_angle_beta                  90.004438
_cell_angle_gamma                 91.79521
_cell_volume                      2433.29663119

loop_
_atom_site_label
_atom_site_type_symbol
_atom_type_description
_atom_site_fract_x
_atom_site_fract_y
_atom_site_fract_z
_atom_type_partial_charge
O1    O     O_R   0.390810 0.844810 0.447340 -0.531801
O2    O     O_R   0.109190 0.155190 0.947340 -0.531794
O3    O     O_R   0.890810 0.655190 0.552660 -0.531688
O4    O     O_R   0.609190 0.344810 0.052660 -0.531688
O5    O     O_R   0.720550 0.655820 0.440420 -0.531700
O6    O     O_R   0.779450 0.344180 0.940420 -0.531720
O7    O     O_R   0.220550 0.844180 0.559580 -0.522731
O8    O     O_R   0.279450 0.155820 0.059580 -0.522616
C1    C     C_R   0.550786 0.625822 0.426903 0.729607
C2    C     C_R   0.949208 0.374175 0.926900 0.729568
C3    C     C_R   0.055394 0.873292 0.573704 0.712245
C4    C     C_R   0.444606 0.126701 0.073702 0.712195
O9    O     O_R   0.720530 0.844130 0.440420 -0.542361
O10   O     O_R   0.779470 0.155870 0.940420 -0.542291
O11   O     O_R   0.220530 0.655870 0.559580 -0.542200
O12   O     O_R   0.279470 0.344130 0.059580 -0.542199
O13   O     O_R   0.890830 0.844810 0.552660 -0.540225
O14   O     O_R   0.609170 0.155190 0.052660 -0.540217
O15   O     O_R   0.390830 0.655190 0.447340 -0.541928
O16   O     O_R   0.109170 0.344810 0.947340 -0.541937
C5    C     C_R   0.554848 0.874307 0.426583 0.702385
C6    C     C_R   0.945148 0.125701 0.926572 0.702355
C7    C     C_R   0.050216 0.628095 0.574413 0.696200
C8    C     C_R   0.449792 0.371900 0.074415 0.696168
O17   O     O_3   0.557310 0.749980 0.536820 -0.374704
O18   O     O_3   0.942690 0.250020 0.036820 -0.374673
O19   O     O_3   0.057310 0.750020 0.463180 -0.379642
O20   O     O_3   0.442690 0.249980 0.963180 -0.379650
V1    V     V_3+5 0.832160 0.749980 0.493170 1.426784
V2    V     V_3+5 0.667840 0.250020 0.993170 1.426919
V3    V     V_3+5 0.332160 0.750020 0.506830 1.429759
V4    V     V_3+5 0.167840 0.249980 0.006830 1.429812
C9    C     C_R   0.946847 0.608814 0.864702 -0.204449
C10   C     C_R   0.553220 0.391180 0.364709 -0.204071
C11   C     C_R   0.259961 0.923986 0.153455 -0.254347
C12   C     C_R   0.239786 0.076092 0.653419 -0.254384
H1    H     H_    0.965020 0.733016 0.780826 0.124417
H2    H     H_    0.535209 0.266981 0.280825 0.124684
H3    H     H_    0.161436 0.831539 0.247462 0.136179
H4    H     H_    0.338543 0.168486 0.747449 0.136178
H5    H     H_    0.925513 0.676014 0.880496 0.142164
H6    H     H_    0.574599 0.323984 0.380504 0.143035
H7    H     H_    0.155878 0.871638 0.145721 0.119497
H8    H     H_    0.343670 0.128519 0.645657 0.119590
C13   C     C_R   0.961066 0.450569 0.885231 -0.095042
C14   C     C_R   0.538914 0.549422 0.385238 -0.095067
C15   C     C_R   0.434853 0.052827 0.117223 -0.103590
C16   C     C_R   0.065101 0.947160 0.617226 -0.103476
C17   C     C_R   0.052547 0.468442 0.594690 -0.204406
C18   C     C_R   0.447409 0.531547 0.094700 -0.204388
C19   C     C_R   0.679655 0.023020 0.400354 -0.184653
C20   C     C_R   0.820328 0.976983 0.900333 -0.184434
C21   C     C_R   0.080130 0.395914 0.632240 -0.013040
C22   C     C_R   0.419702 0.604062 0.132251 -0.013002
C23   C     C_R   0.746624 0.084143 0.358019 -0.012461
C24   C     C_R   0.753667 0.915716 0.858023 -0.012701
C25   C     C_R   0.089031 0.409845 0.694682 0.191015
C26   C     C_R   0.410809 0.590122 0.194690 0.191061
C27   C     C_R   0.698207 0.072492 0.297281 0.188800
C28   C     C_R   0.802193 0.927354 0.797291 0.188365
C29   C     C_R   0.038053 0.492973 0.719534 0.054289
C30   C     C_R   0.461889 0.507008 0.219542 0.054311
C31   C     C_R   0.553593 0.009622 0.280944 0.049866
C32   C     C_R   0.946697 0.990281 0.780968 0.050046
C33   C     C_R   0.025027 0.567129 0.679951 0.018068
C34   C     C_R   0.474992 0.432858 0.179956 0.018031
C35   C     C_R   0.487839 0.948037 0.326037 0.013775
C36   C     C_R   0.012312 0.051916 0.826047 0.013963
C37   C     C_R   0.005846 0.505993 0.782334 0.102290
C38   C     C_R   0.494132 0.493991 0.282342 0.102309
C39   C     C_R   0.474423 0.003074 0.221659 0.098474
C40   C     C_R   0.025798 0.996852 0.721680 0.098509
C41   C     C_R   0.980582 0.593711 0.803906 0.077176
C42   C     C_R   0.519476 0.406278 0.303912 0.076971
C43   C     C_R   0.338369 0.934867 0.210125 0.082540
C44   C     C_R   0.161666 0.065123 0.710123 0.082350
C45   C     C_R   0.982914 0.665887 0.764479 -0.192026
C46   C     C_R   0.517222 0.334105 0.264481 -0.191744
C47   C     C_R   0.273674 0.879302 0.255632 -0.228814
C48   C     C_R   0.226383 0.120689 0.755631 -0.228785
C49   C     C_R   0.001473 0.652780 0.703475 -0.167705
C50   C     C_R   0.498640 0.347212 0.203477 -0.167700
C51   C     C_R   0.349736 0.883910 0.311980 -0.188020
C52   C     C_R   0.150369 0.116065 0.811986 -0.187845
C53   C     C_R   0.986884 0.434936 0.824125 -0.248498
C54   C     C_R   0.513068 0.565049 0.324132 -0.248423
C55   C     C_R   0.512866 0.064416 0.174302 -0.261488
C56   C     C_R   0.987431 0.935476 0.674338 -0.261161
C57   C     C_R   0.937974 0.538252 0.905608 0.288649
C58   C     C_R   0.562049 0.461742 0.405618 0.288614
C59   C     C_R   0.309849 0.980624 0.106595 0.300636
C60   C     C_R   0.189728 0.019489 0.606547 0.300562
C61   C     C_R   0.038924 0.554118 0.617512 -0.119470
C62   C     C_R   0.461095 0.445873 0.117518 -0.119455
C63   C     C_R   0.562941 0.951172 0.384430 -0.135900
C64   C     C_R   0.937052 0.048831 0.884416 -0.136346
H9    H     H_    0.980774 0.366175 0.810455 0.152251
H10   H     H_    0.519151 0.633809 0.310462 0.152237
H11   H     H_    0.586759 0.126636 0.181198 0.168811
H12   H     H_    0.913849 0.873181 0.681269 0.168427
H13   H     H_    0.052142 0.459282 0.546744 0.166074
H14   H     H_    0.447803 0.540709 0.046754 0.166028
H15   H     H_    0.730178 0.027393 0.445830 0.154747
H16   H     H_    0.769750 0.972669 0.945801 0.155341
H17   H     H_    0.996087 0.710517 0.674688 0.099242
H18   H     H_    0.504095 0.289478 0.174688 0.099307
H19   H     H_    0.295114 0.837377 0.344691 0.149785
H20   H     H_    0.204933 0.162626 0.844693 0.149759
N1    N     N_2   0.891943 0.555475 0.966264 -0.534170
H21   H     H_    0.819917 0.612733 0.973606 0.283136
C65   C     C_3   0.034360 0.540262 0.010228 -0.469923
H22   H     H_    0.069702 0.603252 0.034181 0.211981
H23   H     H_    0.162791 0.515585 0.989589 0.192106
H24   H     H_    0.981897 0.490382 0.043141 0.200003
N2    N     N_2   0.608101 0.444526 0.466275 -0.534142
H25   H     H_    0.680134 0.387270 0.473621 0.283433
C66   C     C_3   0.465706 0.459746 0.510239 -0.469886
H26   H     H_    0.430370 0.396761 0.534194 0.212157
H27   H     H_    0.337266 0.484424 0.489600 0.192137
H28   H     H_    0.518190 0.509628 0.543151 0.199963
N3    N     N_2   0.218631 0.970214 0.050469 -0.528983
H29   H     H_    0.093588 0.935235 0.052230 0.255997
C67   C     C_3   0.334577 0.940439 0.002396 -0.442964
H30   H     H_    0.384368 0.872914 0.012435 0.257940
H31   H     H_    0.454867 0.987053 0.995658 0.178952
H32   H     H_    0.253479 0.937640 0.960337 0.194507
N4    N     N_2   0.280358 0.030102 0.550341 -0.528656
H33   H     H_    0.405086 0.065361 0.551995 0.256263
C68   C     C_3   0.163686 0.059593 0.502359 -0.444113
H34   H     H_    0.112859 0.126894 0.512497 0.257680
H35   H     H_    0.044067 0.012584 0.495620 0.178446
H36   H     H_    0.244528 0.062782 0.460260 0.194558
N5    N     N_2   0.177860 0.346893 0.731166 -0.549293
H37   H     H_    0.129961 0.282203 0.726558 0.247399
C69   C     C_3   0.376987 0.358618 0.734254 -0.540460
H38   H     H_    0.431487 0.316521 0.770493 0.192431
H39   H     H_    0.416456 0.429122 0.744564 0.217452
H40   H     H_    0.440570 0.339174 0.691263 0.184954
N6    N     N_2   0.321996 0.653070 0.231179 -0.549309
H41   H     H_    0.369934 0.717756 0.226583 0.247426
C70   C     C_3   0.122864 0.641367 0.234251 -0.540517
H42   H     H_    0.068374 0.683478 0.270482 0.192463
H43   H     H_    0.083363 0.570868 0.244561 0.217503
H44   H     H_    0.059303 0.660814 0.191253 0.184901
N7    N     N_2   0.805684 0.118142 0.253065 -0.559547
H45   H     H_    0.829953 0.185297 0.260156 0.242316
C71   C     C_3   0.966273 0.071436 0.233182 -0.512902
H46   H     H_    0.033846 0.108710 0.195918 0.203054
H47   H     H_    0.924719 0.003838 0.216851 0.214382
H48   H     H_    0.067284 0.065628 0.270219 0.190999
N8    N     N_2   0.694635 0.881841 0.753030 -0.559559
H49   H     H_    0.670663 0.814620 0.759909 0.242050
C72   C     C_3   0.533958 0.928571 0.733253 -0.512042
H50   H     H_    0.466663 0.891535 0.695834 0.202955
H51   H     H_    0.575328 0.996329 0.717170 0.214204
H52   H     H_    0.432826 0.934004 0.770280 0.191155
C73   C     C_2   0.107881 0.306863 0.605242 0.346343
H53   H     H_    0.125313 0.248727 0.632710 0.056732
O21   O     O_2   0.108850 0.296926 0.551196 -0.527019
C74   C     C_2   0.391769 0.693095 0.105249 0.346179
H54   H     H_    0.373567 0.751170 0.132712 0.056854
O22   O     O_2   0.391477 0.703087 0.051206 -0.526989
C75   C     C_2   0.878205 0.156340 0.377719 0.329888
H55   H     H_    0.972880 0.189070 0.346711 0.068076
O23   O     O_2   0.880773 0.181266 0.429535 -0.527238
C76   C     C_2   0.622518 0.843332 0.877742 0.330678
H56   H     H_    0.530451 0.809259 0.846571 0.067816
O24   O     O_2   0.617438 0.819677 0.929814 -0.527524

loop_
_geom_bond_atom_site_label_1
_geom_bond_atom_site_label_2
_ccdc_geom_bond_type
C26   N6    S    
O17   V3    S    
C69   H40   S    
C76   O24   D    
C26   C30   A    
C73   H53   S    
C23   C27   A    
O19   V1    S    
O13   V1    S    
O1    C5    A    
O3    C7    A    
C71   H46   S    
C10   H6    S    
C48   C52   A    
C32   C40   A    
O15   V3    S    
C10   C58   A    
N7    H45   S    
C36   C52   A    
C67   H30   S    
O7    C3    A    
C11   C43   A    
C36   C64   A    
C32   C36   A    
O9    V1    S    
C71   H47   S    
C8    C62   S    
C70   H43   S    
C17   H13   S    
O4    C8    A    
C67   H31   S    
C19   H15   S    
N2    H25   S    
C57   N1    S    
O1    V3    S    
C30   C38   A    
O2    V4    S    
O3    V1    S    
C38   C42   A    
C12   C44   A    
N1    C65   S    
C40   C56   A    
C70   H42   S    
C1    O15   A    
C20   H16   S    
C75   H55   S    
C50   H18   S    
C2    O16   A    
N2    C66   S    
C19   C63   A    
O2    C6    A    
N8    H49   S    
C16   C56   A    
C37   C41   A    
O14   V2    S    
C72   H51   S    
C11   H7    S    
O5    V1    S    
C40   C44   A    
C34   C62   A    
C68   H36   S    
C12   C60   A    
O11   C7    A    
C1    C14   S    
O12   C8    A    
C35   C63   A    
C25   N5    S    
C3    C16   S    
C6    C64   S    
O10   V2    S    
C4    C15   S    
N7    C71   S    
O16   V4    S    
C55   H11   S    
C31   C35   A    
O7    V3    S    
C30   C34   A    
O8    V4    S    
C69   H38   S    
C71   H48   S    
C53   H9    S    
C66   H28   S    
C21   C25   A    
O18   V4    S    
C18   C62   A    
C67   H32   S    
H2    C46   S    
C58   N2    S    
H1    C45   S    
C7    C61   S    
C28   N8    S    
H3    C47   S    
C13   C53   A    
N4    C68   S    
O5    C1    A    
C9    C57   A    
C34   C50   A    
C46   C50   A    
C33   C49   A    
C45   C49   A    
O8    C4    A    
C2    C13   S    
H4    C48   S    
O9    C5    A    
C65   H23   S    
C18   C22   A    
C35   C51   A    
C72   H52   S    
C25   C29   A    
N3    H29   S    
C56   H12   S    
C10   C42   A    
C39   C55   A    
C27   N7    S    
C9    C41   A    
O6    V2    S    
C31   C39   A    
C18   H14   S    
C42   C46   A    
C76   H56   S    
C27   C31   A    
C70   H44   S    
C24   C76   S    
N4    H33   S    
C38   C54   A    
C60   N4    S    
C14   C54   A    
C37   C53   A    
C68   H34   S    
C22   C26   A    
C29   C37   A    
C69   H39   S    
C49   H17   S    
C3    O13   A    
C13   C57   A    
C65   H22   S    
C75   O23   D    
C15   C59   A    
C74   O22   D    
C44   C48   A    
O6    C2    A    
N6    H41   S    
O11   V3    S    
C14   C58   A    
O12   V4    S    
C5    C63   S    
C21   C73   S    
C28   C32   A    
C9    H5    S    
C74   H54   S    
O10   C6    A    
C66   H27   S    
C23   C75   S    
N1    H21   S    
C39   C43   A    
N6    C70   S    
N5    H37   S    
C17   C21   A    
O20   V2    S    
C33   C61   A    
C52   H20   S    
C51   H19   S    
C20   C64   A    
C65   H24   S    
C19   C23   A    
N8    C72   S    
C54   H10   S    
N3    C67   S    
C12   H8    S    
C22   C74   S    
C47   C51   A    
C29   C33   A    
C59   N3    S    
C24   C28   A    
C73   O21   D    
C16   C60   A    
C4    O14   A    
N5    C69   S    
C41   C45   A    
C17   C61   A    
C72   H50   S    
C66   H26   S    
C43   C47   A    
O4    V2    S    
C20   C24   A    
C15   C55   A    
C68   H35   S    
C11   C59   A    
