data_mof_unit_48815.cif
_audit_creation_date              2012-12-10T17:59:45-0500
_audit_creation_method            fapswitch 2.2
_symmetry_space_group_name_H-M    P1
_symmetry_Int_Tables_number       1
_space_group_crystal_system       triclinic
_cell_length_a                    10.786374
_cell_length_b                    9.534656
_cell_length_c                    15.897438
_cell_angle_alpha                 89.924917
_cell_angle_beta                  90.421508
_cell_angle_gamma                 90.121444
_cell_volume                      1634.91263941

loop_
_atom_site_label
_atom_site_type_symbol
_atom_type_description
_atom_site_fract_x
_atom_site_fract_y
_atom_site_fract_z
_atom_type_partial_charge
C1    C     C_R   0.262533 0.499858 0.499783 0.968025
C2    C     C_3   0.634107 0.487897 0.948889 -0.352203
C3    C     C_3   0.641171 0.487506 0.047621 0.327713
C4    C     C_1   0.498963 0.499892 0.824709 0.021711
C5    C     C_1   0.502691 0.500059 0.175374 -0.013891
C6    C     C_1   0.501310 0.500166 0.250791 -0.121038
C7    C     C_R   0.064898 0.425761 0.437461 0.574110
C8    C     C_R   0.066766 0.573388 0.562285 0.542903
C9    C     C_R   0.935581 0.426695 0.436006 0.009018
C10   C     C_R   0.937550 0.572877 0.563759 0.023595
C11   C     C_R   0.872051 0.500100 0.499838 -0.187824
C12   C     C_R   0.129117 0.499572 0.499846 -0.338350
C13   C     C_R   0.425569 0.074251 0.445742 0.641555
C14   C     C_R   0.425638 0.925616 0.445698 0.634908
C15   C     C_R   0.500143 0.500067 0.340268 0.844637
C16   C     C_R   0.573727 0.925779 0.554669 -0.134458
C17   C     C_R   0.574017 0.074445 0.554515 -0.144789
C18   C     C_R   0.737678 0.500088 0.499966 0.842764
C19   C     C_R   0.500342 0.499930 0.659764 0.808240
C20   C     C_3   0.441810 0.636279 0.050132 -0.447183
C21   C     C_3   0.423191 0.376011 0.050398 -0.443524
C22   C     C_3   0.425784 0.368193 0.952491 0.638814
C23   C     C_3   0.445616 0.643305 0.952217 0.634052
C24   C     C_1   0.499967 0.499810 0.749269 -0.124366
C25   C     C_3   0.504493 0.499776 0.083067 0.113694
C26   C     C_3   0.497136 0.500171 0.917083 0.068181
Cu1   Cu    Cu3+1 0.500020 0.640660 0.500000 1.041180
Cu2   Cu    Cu3+1 0.500020 0.359340 0.500000 1.030776
H1    H     H_    0.632265 0.870077 0.598804 0.172429
H2    H     H_    0.633400 0.130412 0.598190 0.182972
H3    H     H_    0.344581 0.639600 0.073146 0.163982
H4    H     H_    0.326763 0.389952 0.073487 0.165915
H5    H     H_    0.454051 0.274810 0.078169 0.223883
H6    H     H_    0.486595 0.730816 0.077765 0.222729
H7    H     H_    0.690613 0.574868 0.922161 0.206936
H8    H     H_    0.677365 0.391786 0.922413 0.208831
N1    N     N_R   0.500030 0.852070 0.500020 -0.244090
N2    N     N_R   0.500030 0.147930 0.500020 -0.253796
O1    O     O_R   0.319660 0.618740 0.500000 -0.507853
O2    O     O_R   0.319660 0.381260 0.500000 -0.520814
O3    O     O_R   0.500020 0.618840 0.379440 -0.542129
O4    O     O_R   0.500020 0.381160 0.379440 -0.532185
O5    O     O_R   0.680370 0.618830 0.500010 -0.590983
O6    O     O_R   0.680370 0.381170 0.500010 -0.595136
O7    O     O_R   0.500010 0.618730 0.620560 -0.566622
O8    O     O_R   0.500010 0.381270 0.620560 -0.583074
C27   C     C_3   0.318562 0.688870 0.916023 -0.754197
H9    H     H_    0.239933 0.635062 0.946341 0.174719
H10   H     H_    0.305077 0.802597 0.927991 0.266150
H11   H     H_    0.312924 0.672934 0.847008 0.241611
C28   C     C_3   0.293768 0.345936 0.916447 -0.776622
H12   H     H_    0.223905 0.412977 0.946863 0.178313
H13   H     H_    0.290314 0.362865 0.847440 0.232519
H14   H     H_    0.264230 0.236040 0.928442 0.262152
F1    F     F_    0.491539 0.248754 0.930290 -0.643011
F2    F     F_    0.527703 0.749365 0.929875 -0.643251
C29   C     C_3   0.724042 0.611341 0.077784 -0.786928
H15   H     H_    0.727666 0.616909 0.147536 0.227452
H16   H     H_    0.820503 0.598124 0.055009 0.227364
H17   H     H_    0.690882 0.713468 0.053144 0.263925
C30   C     C_3   0.705439 0.350724 0.078151 -0.784484
H18   H     H_    0.658190 0.255627 0.053783 0.265493
H19   H     H_    0.802543 0.346583 0.055356 0.228090
H20   H     H_    0.708292 0.344938 0.147925 0.226622
F3    F     F_    0.129026 0.356325 0.377124 -0.608855
F4    F     F_    0.132662 0.642820 0.622548 -0.659022
C31   C     C_3   0.866641 0.353266 0.365392 -0.704520
H21   H     H_    0.929749 0.313306 0.316149 0.275272
H22   H     H_    0.814307 0.262296 0.390532 0.236699
H23   H     H_    0.801277 0.427348 0.334459 0.186248
C32   C     C_3   0.870885 0.646672 0.634321 -0.708885
H24   H     H_    0.935191 0.683926 0.684338 0.272584
H25   H     H_    0.821223 0.739433 0.609135 0.225048
H26   H     H_    0.803667 0.574039 0.664248 0.191979
F5    F     F_    0.350214 0.143752 0.391406 -0.572123
F6    F     F_    0.350328 0.855970 0.391333 -0.609586

loop_
_geom_bond_atom_site_label_1
_geom_bond_atom_site_label_2
_ccdc_geom_bond_type
C2    H7    S    
C11   C18   S    
C8    F4    S    
C19   O8    A    
C23   F2    S    
C27   H10   S    
Cu2   O8    S    
C5    C6    T    
C4    C24   T    
C29   H16   S    
C21   H5    S    
C20   C25   S    
Cu2   O2    S    
C23   C26   S    
C30   H19   S    
C1    O2    A    
C6    C15   S    
C13   F5    S    
Cu1   O1    S    
C16   C17   A    
C16   N1    A    
C20   H6    S    
C10   C32   S    
Cu1   O7    S    
C21   C22   S    
C17   H2    S    
C1    C12   S    
C27   H11   S    
C3    C30   S    
C7    C12   A    
C21   H4    S    
C23   C27   S    
C31   H21   S    
C3    C25   S    
C15   O3    A    
C32   H25   S    
C29   H17   S    
C16   H1    S    
Cu2   O6    S    
C28   H12   S    
C31   H22   S    
C14   F6    S    
C30   H20   S    
C9    C31   S    
C18   O6    A    
C7    F3    S    
Cu1   O3    S    
C27   H9    S    
C20   C23   S    
Cu2   N2    S    
C8    C12   A    
C2    C26   S    
C9    C11   A    
C13   N2    A    
C5    C25   S    
C3    C29   S    
C2    H8    S    
C7    C9    A    
C21   C25   S    
C15   O4    A    
C32   H26   S    
C4    C26   S    
C19   O7    A    
C22   F1    S    
C31   H23   S    
C28   H14   S    
C2    C3    S    
C32   H24   S    
C18   O5    A    
C14   N1    A    
C29   H15   S    
Cu1   N1    S    
Cu2   O4    S    
C19   C24   S    
C17   N2    A    
C30   H18   S    
C10   C11   A    
C1    O1    A    
Cu1   O5    S    
C8    C10   A    
C22   C26   S    
Cu1   Cu2   S    
C28   H13   S    
C13   C14   A    
C22   C28   S    
C20   H3    S    
