data_mof_unit_16891.cif
_audit_creation_date              2012-12-10T19:14:55-0500
_audit_creation_method            fapswitch 2.2
_symmetry_space_group_name_H-M    P1
_symmetry_Int_Tables_number       1
_space_group_crystal_system       triclinic
_cell_length_a                    15.996162
_cell_length_b                    14.7517
_cell_length_c                    11.073833
_cell_angle_alpha                 89.69315
_cell_angle_beta                  90.074258
_cell_angle_gamma                 90.729396
_cell_volume                      2612.84764834

loop_
_atom_site_label
_atom_site_type_symbol
_atom_type_description
_atom_site_fract_x
_atom_site_fract_y
_atom_site_fract_z
_atom_type_partial_charge
C1    C     C_1   0.251903 0.499365 0.499725 -0.000452
C2    C     C_1   0.748100 0.500861 0.498215 0.009865
C3    C     C_R   0.498226 0.498827 0.871754 -0.028753
C4    C     C_R   0.499746 0.500708 0.128098 -0.032746
C5    C     C_R   0.498633 0.902878 0.499516 -0.304504
C6    C     C_R   0.497741 0.097226 0.498645 -0.314791
C7    C     C_R   0.562697 0.953229 0.441438 0.322067
C8    C     C_R   0.433444 0.046900 0.557648 0.359590
C9    C     C_R   0.433991 0.950495 0.557729 0.359173
C10   C     C_R   0.561085 0.049397 0.438230 0.368454
C11   C     C_R   0.957343 0.574945 0.450365 0.331549
C12   C     C_R   0.042714 0.425710 0.548246 0.328244
C13   C     C_R   0.044984 0.574599 0.450723 0.306380
C14   C     C_R   0.955077 0.426074 0.547937 0.315562
C15   C     C_R   0.340909 0.499790 0.499762 0.931391
C16   C     C_R   0.659088 0.500278 0.498639 0.922391
C17   C     C_R   0.500633 0.500279 0.261731 0.906640
C18   C     C_R   0.498372 0.499605 0.738149 0.918132
C19   C     C_R   0.912677 0.500646 0.498882 -0.195065
C20   C     C_R   0.087365 0.499926 0.499511 -0.185607
C21   C     C_1   0.499550 0.802659 0.499932 0.280485
C22   C     C_1   0.499365 0.197357 0.500014 0.297252
C23   C     C_1   0.823041 0.500912 0.498374 0.213433
C24   C     C_1   0.176977 0.499491 0.499644 0.206516
C25   C     C_R   0.607761 0.626701 0.118085 0.247600
C26   C     C_R   0.386766 0.377413 0.879902 0.247248
C27   C     C_R   0.609692 0.617723 0.872752 0.218216
C28   C     C_R   0.391066 0.377037 0.126222 0.215202
C29   C     C_R   0.638537 0.701477 0.052698 0.375013
C30   C     C_R   0.352550 0.303193 0.942592 0.368811
C31   C     C_R   0.639413 0.697124 0.927189 0.359230
C32   C     C_R   0.359824 0.299815 0.067847 0.337456
C33   C     C_R   0.551596 0.560518 0.934431 -0.107345
C34   C     C_R   0.446831 0.437841 0.065240 -0.102860
C35   C     C_R   0.551606 0.563188 0.062297 -0.126647
C36   C     C_R   0.445261 0.437458 0.937122 -0.110246
Cu1   Cu    Cu3+1 0.500000 0.589220 0.500000 1.063896
Cu2   Cu    Cu3+1 0.500000 0.410780 0.500000 1.079905
N1    N     N_1   0.500000 0.276710 0.500000 -0.157540
N2    N     N_1   0.500000 0.723290 0.500000 -0.161616
O1    O     O_R   0.380310 0.575320 0.500020 -0.592835
O2    O     O_R   0.619690 0.424680 0.499980 -0.578124
O3    O     O_R   0.619690 0.575320 0.499980 -0.518580
O4    O     O_R   0.380310 0.424680 0.500020 -0.514223
O5    O     O_R   0.499990 0.575350 0.319650 -0.557835
O6    O     O_R   0.500010 0.424650 0.680350 -0.545213
O7    O     O_R   0.500010 0.575350 0.680350 -0.581836
O8    O     O_R   0.499990 0.424650 0.319650 -0.579648
Cl1   Cl    Cl    0.101682 0.667923 0.390076 -0.496140
Cl2   Cl    Cl    0.898428 0.332936 0.609132 -0.465156
Cl3   Cl    Cl    0.903482 0.668601 0.389074 -0.428512
Cl4   Cl    Cl    0.096597 0.332166 0.609838 -0.515505
O9    O     O_3   0.316639 0.233166 0.131339 -0.524909
C37   C     C_3   0.373811 0.184184 0.202297 -0.235897
H1    H     H_    0.402399 0.227417 0.273604 0.168062
H2    H     H_    0.423002 0.153369 0.145171 0.135210
H3    H     H_    0.339638 0.127940 0.248106 0.177048
O10   O     O_3   0.687904 0.759387 0.863696 -0.489455
C38   C     C_3   0.637821 0.801523 0.775273 -0.237996
H4    H     H_    0.578368 0.827328 0.813673 0.124909
H5    H     H_    0.624148 0.754603 0.699459 0.196034
H6    H     H_    0.672801 0.860848 0.738496 0.181829
O11   O     O_3   0.309036 0.236416 0.879979 -0.530195
C39   C     C_3   0.222090 0.246294 0.897262 -0.017290
H7    H     H_    0.188959 0.212098 0.821785 0.198304
H8    H     H_    0.201665 0.212340 0.982043 0.187205
H9    H     H_    0.202132 0.318418 0.897008 0.179822
O12   O     O_3   0.685826 0.767288 0.110503 -0.469724
C40   C     C_3   0.639544 0.847928 0.112749 -0.146159
H10   H     H_    0.580565 0.838449 0.164850 0.155339
H11   H     H_    0.625406 0.873384 0.020446 0.134329
H12   H     H_    0.677816 0.901117 0.157661 0.224090
O13   O     O_3   0.626380 0.096269 0.383726 -0.530296
C41   C     C_3   0.604867 0.113332 0.262348 -0.221649
H13   H     H_    0.586223 0.050205 0.213937 0.145397
H14   H     H_    0.660408 0.142248 0.215452 0.207001
H15   H     H_    0.554476 0.164255 0.256481 0.123326
O14   O     O_3   0.374413 0.903339 0.624227 -0.539802
C42   C     C_3   0.308609 0.876817 0.546668 -0.169554
H16   H     H_    0.330782 0.833506 0.471570 0.145018
H17   H     H_    0.275408 0.936588 0.509890 0.158076
H18   H     H_    0.262622 0.836114 0.599532 0.212312
O15   O     O_3   0.373116 0.090139 0.625209 -0.515232
C43   C     C_3   0.313819 0.130549 0.547755 -0.135349
H19   H     H_    0.301217 0.090863 0.464218 0.091293
H20   H     H_    0.333659 0.200602 0.523385 0.183983
H21   H     H_    0.253800 0.135532 0.597209 0.220005
O16   O     O_3   0.624496 0.908869 0.378929 -0.587713
C44   C     C_3   0.692502 0.893486 0.456968 -0.120219
H22   H     H_    0.677022 0.838612 0.522311 0.140388
H23   H     H_    0.713005 0.956111 0.505049 0.170982
H24   H     H_    0.746125 0.870286 0.402289 0.231288
Cl5   Cl    Cl    0.667208 0.600197 0.246412 -0.531519
Cl6   Cl    Cl    0.329744 0.408636 0.751543 -0.608532
Cl7   Cl    Cl    0.675190 0.573589 0.760974 -0.572805
Cl8   Cl    Cl    0.327732 0.413969 0.244773 -0.594881

loop_
_geom_bond_atom_site_label_1
_geom_bond_atom_site_label_2
_ccdc_geom_bond_type
C26   Cl6   S    
C7    C10   A    
C25   Cl5   S    
C8    O15   S    
O13   C41   S    
C27   Cl7   S    
C17   O8    A    
C18   O7    A    
O9    C37   S    
C27   C33   A    
C5    C9    A    
C11   C19   A    
C41   H14   S    
C31   O10   S    
C43   H20   S    
C15   O4    A    
Cu2   O2    S    
Cu1   N2    S    
Cu2   N1    S    
C10   O13   S    
C3    C33   A    
C6    C22   S    
C3    C18   S    
C40   H11   S    
C7    O16   S    
O12   C40   S    
C41   H15   S    
C43   H21   S    
C1    C15   S    
Cu1   O7    S    
C2    C16   S    
Cu2   O8    S    
C4    C35   A    
C28   C34   A    
C38   H4    S    
C30   O11   S    
C18   O6    A    
C12   Cl4   S    
C37   H2    S    
C25   C29   A    
C4    C34   A    
C38   H5    S    
C41   H13   S    
C27   C31   A    
C39   H9    S    
C20   C24   S    
C28   C32   A    
C43   H19   S    
C15   O1    A    
C42   H17   S    
O14   C42   S    
C8    C9    A    
C6    C8    A    
O10   C38   S    
C42   H16   S    
C39   H8    S    
Cu1   O3    S    
C40   H12   S    
C19   C23   S    
Cu2   O4    S    
Cu1   Cu2   S    
C29   O12   S    
O15   C43   S    
C12   C20   A    
C44   H24   S    
C16   O3    A    
C25   C35   A    
C13   Cl1   S    
C4    C17   S    
C26   C36   A    
C12   C14   A    
C26   C30   A    
C44   H23   S    
Cu1   O5    S    
C16   O2    A    
C32   O9    S    
C5    C7    A    
C37   H1    S    
C38   H6    S    
C13   C20   A    
C14   C19   A    
C17   O5    A    
C6    C10   A    
C42   H18   S    
C28   Cl8   S    
C39   H7    S    
C29   C31   A    
C30   C32   A    
C11   C13   A    
C14   Cl2   S    
C21   N2    T    
C3    C36   A    
C22   N1    T    
C33   C35   A    
C34   C36   A    
C9    O14   S    
Cu1   O1    S    
C40   H10   S    
Cu2   O6    S    
C11   Cl3   S    
O11   C39   S    
C5    C21   S    
O16   C44   S    
C1    C24   T    
C2    C23   T    
C44   H22   S    
C37   H3    S    
