data_mof_unit_49358.cif
_audit_creation_date              2012-12-11T15:49:32-0500
_audit_creation_method            fapswitch 2.2
_symmetry_space_group_name_H-M    P1
_symmetry_Int_Tables_number       1
_space_group_crystal_system       triclinic
_cell_length_a                    8.231582
_cell_length_b                    19.041428
_cell_length_c                    27.016225
_cell_angle_alpha                 95.232136
_cell_angle_beta                  92.626932
_cell_angle_gamma                 85.500761
_cell_volume                      4200.72171918

loop_
_atom_site_label
_atom_site_type_symbol
_atom_type_description
_atom_site_fract_x
_atom_site_fract_y
_atom_site_fract_z
_atom_type_partial_charge
Ba1   Ba    Ba6+2 0.854000 0.466860 0.523710 1.639460
Ba2   Ba    Ba6+2 0.335820 0.533080 0.476290 1.638124
C1    C     C_3   0.642635 0.215961 0.657603 -0.367950
C2    C     C_3   0.650937 0.287582 0.637588 0.344586
C3    C     C_3   0.512034 0.644016 0.626587 0.302398
C4    C     C_3   0.494624 0.671379 0.680929 -0.374341
C5    C     C_3   0.065628 0.684302 0.338310 0.341171
C6    C     C_3   0.080214 0.704469 0.285610 -0.319779
C7    C     C_3   0.525751 0.722267 0.360144 0.366152
C8    C     C_3   0.486943 0.793672 0.339592 -0.364995
C9    C     C_R   0.019310 0.450150 0.179474 0.597923
C10   C     C_R   0.913157 0.570601 0.176823 0.572519
C11   C     C_2   0.761711 0.546705 0.271737 -0.084126
C12   C     C_3   0.158239 0.310041 0.659887 0.288366
C13   C     C_3   0.744157 0.570422 0.326130 -0.047594
C14   C     C_1   0.983375 0.490212 0.343144 0.035337
C15   C     C_2   0.024332 0.486828 0.295519 -0.107372
C16   C     C_2   0.905625 0.514609 0.256128 0.191737
C17   C     C_R   0.025608 0.507252 0.101796 -0.079631
C18   C     C_R   0.061236 0.447628 0.128794 -0.036233
C19   C     C_R   0.136933 0.386419 0.104404 -0.060286
C20   C     C_R   0.950437 0.568876 0.126154 -0.024071
C21   C     C_2   0.851249 0.526963 0.360120 -0.292442
C22   C     C_2   0.351426 0.483187 0.641576 -0.281083
C23   C     C_3   0.132476 0.292964 0.712656 -0.342967
C24   C     C_R   0.189425 0.442715 0.975745 0.019756
C25   C     C_R   0.057881 0.563097 0.971955 0.020365
C26   C     C_R   0.143306 0.502176 0.948497 0.050129
C27   C     C_R   0.279341 0.384516 0.950949 -0.099986
C28   C     C_R   0.319527 0.384225 0.901312 -0.061007
C29   C     C_R   0.271935 0.441787 0.873743 -0.030914
C30   C     C_R   0.183245 0.500816 0.897228 -0.077747
C31   C     C_R   0.135086 0.558667 0.869499 -0.033678
C32   C     C_R   0.176021 0.556910 0.819007 0.589863
C33   C     C_R   0.311716 0.441444 0.823179 0.579538
C34   C     C_3   0.187841 0.317818 0.418003 0.315034
C35   C     C_2   0.459655 0.484881 0.729467 -0.072197
C36   C     C_3   0.501312 0.489431 0.675617 -0.052146
C37   C     C_1   0.211527 0.513472 0.657010 0.037319
C38   C     C_2   0.172921 0.513647 0.704335 -0.105541
C39   C     C_2   0.303057 0.497747 0.743750 0.201487
C40   C     C_R   0.145420 0.443504 0.026576 0.019743
C41   C     C_R   0.065015 0.505401 0.050440 0.049868
C42   C     C_R   0.023662 0.565615 0.023555 0.020309
C43   C     C_R   0.178345 0.384328 0.054697 -0.099210
C44   C     C_R   0.914827 0.628363 0.099566 -0.060535
C45   C     C_3   0.195806 0.238136 0.405449 -0.384399
C46   C     C_R   0.008753 0.619578 0.942602 -0.100451
C47   C     C_R   0.046773 0.617350 0.892771 -0.061956
C48   C     C_R   0.950307 0.626904 0.049643 -0.102624
C49   C     C_R   0.396389 0.298596 0.521611 -0.285568
C50   C     C_R   0.536229 0.276177 0.495882 0.069533
C51   C     C_R   0.588453 0.204167 0.490577 -0.120042
C52   C     C_R   0.499391 0.153939 0.510706 -0.016028
C53   C     C_R   0.355005 0.177522 0.535549 -0.137210
C54   C     C_R   0.302814 0.249692 0.540064 0.012381
C55   C     C_R   0.542779 0.033671 0.542845 -0.076173
C56   C     C_3   0.005973 0.680921 0.579127 0.309953
C57   C     C_R   0.592880 0.961557 0.536566 -0.076681
C58   C     C_R   0.654474 0.930795 0.491161 0.059917
C59   C     C_R   0.666932 0.974378 0.452446 -0.077053
C60   C     C_R   0.616944 0.046625 0.458758 -0.076134
C61   C     C_R   0.553624 0.077151 0.504004 0.061954
C62   C     C_R   0.845073 0.827053 0.459390 -0.134778
C63   C     C_R   0.891061 0.754112 0.455422 0.017188
C64   C     C_R   0.655849 0.732888 0.500503 0.044879
C65   C     C_R   0.608668 0.805232 0.504888 -0.117015
C66   C     C_R   0.702041 0.853379 0.484151 -0.012484
C67   C     C_3   0.987361 0.760658 0.591356 -0.385814
C68   C     C_R   0.792150 0.707483 0.474054 -0.286187
C69   C     C_3   0.671929 0.381833 0.376053 0.300263
C70   C     C_3   0.671167 0.364569 0.319970 -0.359693
H1    H     H_    0.764221 0.286267 0.616631 0.105304
H2    H     H_    0.274567 0.223082 0.373307 0.127673
H3    H     H_    0.247020 0.210458 0.437580 0.062645
H4    H     H_    0.071422 0.220984 0.395949 0.127000
H5    H     H_    0.886463 0.661604 0.567056 0.005302
H6    H     H_    0.091949 0.668833 0.548605 0.073530
H7    H     H_    0.894894 0.774358 0.620030 0.134765
H8    H     H_    0.948091 0.787499 0.557715 0.063227
H9    H     H_    0.105923 0.780086 0.605620 0.123657
H10   H     H_    0.794962 0.395702 0.389413 0.010141
H11   H     H_    0.582363 0.427504 0.384491 0.080604
H12   H     H_    0.641706 0.174023 0.626216 0.075037
H13   H     H_    0.765239 0.321052 0.310249 0.133428
H14   H     H_    0.697732 0.411675 0.301419 0.069810
H15   H     H_    0.549439 0.348185 0.306175 0.133756
H16   H     H_    0.543131 0.296697 0.612309 -0.032835
H17   H     H_    0.529685 0.215359 0.678481 0.122441
H18   H     H_    0.390110 0.630363 0.611169 0.030114
H19   H     H_    0.598527 0.596162 0.624212 0.035230
H20   H     H_    0.415810 0.721566 0.683667 0.138179
H21   H     H_    0.437613 0.632406 0.701344 0.076393
H22   H     H_    0.616393 0.681020 0.698520 0.125464
H23   H     H_    0.750378 0.204845 0.682724 0.134732
H24   H     H_    0.186383 0.333101 0.739413 0.131256
H25   H     H_    0.139814 0.633629 0.342297 0.088578
H26   H     H_    0.935593 0.677371 0.344093 -0.054157
H27   H     H_    0.199327 0.726132 0.281164 0.147507
H28   H     H_    0.072242 0.656788 0.259218 0.121726
H29   H     H_    0.980989 0.744807 0.276630 0.116238
H30   H     H_    0.660612 0.711802 0.361048 -0.068263
H31   H     H_    0.482240 0.725615 0.398681 0.077136
H32   H     H_    0.551938 0.834701 0.362763 0.067223
H33   H     H_    0.354086 0.808696 0.340180 0.150175
H34   H     H_    0.104697 0.364692 0.656022 0.078526
H35   H     H_    0.527256 0.791456 0.300773 0.120007
H36   H     H_    0.145232 0.465420 0.285117 0.134557
H37   H     H_    0.165158 0.339363 0.123824 0.121759
H38   H     H_    0.557857 0.476474 0.756999 0.104901
H39   H     H_    0.388793 0.338141 0.884493 0.121533
H40   H     H_    0.323257 0.338247 0.969046 0.069098
H41   H     H_    0.234368 0.334678 0.039227 0.069215
H42   H     H_    0.668257 0.565105 0.245307 0.120673
H43   H     H_    0.858612 0.676974 0.117377 0.122027
H44   H     H_    0.938002 0.666455 0.956691 0.069192
H45   H     H_    0.291246 0.307224 0.653905 -0.015075
H46   H     H_    0.006046 0.662354 0.872381 0.122052
H47   H     H_    0.920694 0.675675 0.032894 0.068855
H48   H     H_    0.836411 0.538768 0.399785 0.083175
H49   H     H_    0.358127 0.453822 0.605222 0.071602
H50   H     H_    0.501692 0.823841 0.525537 0.078757
H51   H     H_    0.584824 0.929956 0.567585 0.064246
H52   H     H_    0.497374 0.055643 0.578405 0.064417
H53   H     H_    0.697427 0.187488 0.470366 0.083014
H54   H     H_    0.712012 0.952280 0.416876 0.063652
H55   H     H_    0.999961 0.293698 0.719044 0.139859
H56   H     H_    0.624857 0.078332 0.427787 0.061899
H57   H     H_    0.923839 0.863034 0.445397 0.076698
H58   H     H_    0.280434 0.139975 0.549614 0.078164
H59   H     H_    0.829176 0.651521 0.471860 0.060831
H60   H     H_    0.355076 0.354116 0.524706 0.067730
H61   H     H_    0.191590 0.239901 0.718960 0.119893
H62   H     H_    0.312424 0.334212 0.426441 0.003830
H63   H     H_    0.111491 0.331334 0.450848 0.062667
N1    N     N_R   0.946485 0.511465 0.203412 -0.421382
N2    N     N_R   0.262727 0.498494 0.796063 -0.424448
O1    O     O_2   0.913240 0.537010 0.617740 -0.465122
O2    O     O_3   0.631174 0.322282 0.398150 -0.636077
O3    O     O_3   0.081199 0.261114 0.626483 -0.602583
O4    O     O_2   0.276450 0.462960 0.382230 -0.461985
O5    O     O_3   0.044470 0.462980 0.442430 -0.494213
O6    O     O_3   0.519740 0.589470 0.411120 -0.477234
O7    O     O_3   0.121079 0.350363 0.376681 -0.623666
O8    O     O_3   0.632420 0.583650 0.524140 -0.474123
O9    O     O_3   0.111040 0.625070 0.435230 -0.492285
O10   O     O_2   0.228853 0.750018 0.464521 -0.485583
O11   O     O_3   0.123063 0.737877 0.372138 -0.601484
O12   O     O_3   0.145240 0.536960 0.557560 -0.489054
O13   O     O_3   0.557280 0.416300 0.475860 -0.489261
O14   O     O_2   0.376710 0.670070 0.522470 -0.459864
O15   O     O_3   0.572269 0.696953 0.601353 -0.642353
O16   O     O_2   0.415115 0.532841 0.322136 -0.498711
O17   O     O_3   0.447294 0.669631 0.330060 -0.592929
O18   O     O_2   0.045734 0.397294 0.201907 -0.597012
O19   O     O_2   0.389263 0.390014 0.803281 -0.599947
O20   O     O_2   0.851845 0.625528 0.197321 -0.620704
O21   O     O_2   0.136498 0.608071 0.795718 -0.598788
O22   O     O_3   0.669960 0.410470 0.588880 -0.488345
O23   O     O_2   0.836567 0.443372 0.673133 -0.497656
O24   O     O_3   0.064445 0.649795 0.621961 -0.626658
O25   O     O_3   0.650248 0.340522 0.677314 -0.592065
O26   O     O_2   0.812980 0.329910 0.477500 -0.459780
O27   O     O_3   0.078660 0.374870 0.564770 -0.489466
O28   O     O_2   0.964218 0.249843 0.535087 -0.485711
P1    P     P_3+3 0.082480 0.557670 0.610090 0.998990
P2    P     P_3+3 0.635220 0.340300 0.462910 0.986155
P3    P     P_3+3 0.106377 0.282876 0.565960 0.937126
P4    P     P_3+3 0.107220 0.442270 0.389900 0.994559
P5    P     P_3+3 0.089177 0.717223 0.432334 0.944811
P6    P     P_3+3 0.665682 0.422542 0.653833 0.970221
P7    P     P_3+3 0.562095 0.672269 0.537396 0.951130
P8    P     P_3+3 0.530543 0.587415 0.346679 0.944980
H64   H     H_    0.047599 0.525724 0.714840 0.128615

loop_
_geom_bond_atom_site_label_1
_geom_bond_atom_site_label_2
_ccdc_geom_bond_type
C25   C46   A    
O3    P3    S    
C60   H56   S    
C53   C54   A    
C65   H50   S    
Ba2   O13   S    
C5    H26   S    
O16   P8    D    
C27   H40   S    
Ba1   O8    S    
C17   C18   A    
C70   H13   S    
C5    C6    S    
C64   C68   A    
C51   C52   A    
Ba2   O8    S    
C27   C28   A    
C3    O15   S    
O22   P6    S    
C44   H43   S    
C62   C66   A    
C64   P7    S    
C6    H27   S    
C45   H4    S    
Ba1   Ba2   S    
C50   P2    S    
C28   C29   A    
O15   P7    S    
C55   C57   A    
C52   C61   S    
Ba1   P2    S    
C31   C47   A    
C63   C68   A    
C10   C20   A    
C22   C37   D    
C34   C45   S    
C49   C54   A    
C22   H49   S    
Ba1   O5    S    
C56   H5    S    
C25   C42   A    
C69   H11   S    
O25   P6    S    
C29   C30   A    
Ba1   O27   S    
C14   C15   D    
C4    H22   S    
C22   C36   S    
C16   N1    S    
C59   H54   S    
C10   O20   D    
C23   H61   S    
C7    C8    S    
C39   N2    S    
O24   P1    S    
O10   P5    D    
C9    O18   D    
C46   H44   S    
C69   H10   S    
C4    H21   S    
Ba2   O12   S    
C13   C21   S    
C64   C65   A    
O8    P7    S    
C57   C58   A    
Ba2   O6    S    
C8    H35   S    
C14   P4    S    
C17   C41   A    
C55   C61   A    
C19   C43   A    
C57   H51   S    
C9    C18   A    
C36   P6    S    
C13   P8    S    
C49   C50   A    
C26   C30   A    
C17   C20   A    
C33   O19   D    
C15   H36   S    
C21   H48   S    
C7    H30   S    
C69   O2    S    
C1    H12   S    
O7    P4    S    
O14   P7    D    
C65   C66   A    
C58   C59   A    
C40   C43   A    
C35   C36   S    
C11   H42   S    
O26   P2    D    
C41   C42   A    
C60   C61   A    
O11   P5    S    
C47   H46   S    
Ba1   O22   S    
C7    H31   S    
C12   H45   S    
C54   P3    S    
O4    P4    D    
C15   C16   S    
C35   H38   S    
Ba1   O13   S    
C18   C19   A    
Ba1   O12   S    
Ba1   O26   S    
C2    H1    S    
C3    H19   S    
C51   H53   S    
C24   C27   A    
O5    P4    S    
C11   C16   D    
O27   P3    S    
C38   C39   S    
C20   C44   A    
C12   O3    S    
C7    O17   S    
C14   C21   D    
C11   C13   S    
Ba2   O5    S    
C2    O25   S    
C67   H7    S    
Ba2   O9    S    
C40   C41   A    
O6    P8    S    
C1    C2    S    
C34   H63   S    
C32   O21   D    
C37   C38   D    
C70   H15   S    
C50   C51   A    
C24   C40   A    
O2    P2    S    
C5    O11   S    
C6    H29   S    
C42   C48   A    
Ba2   O14   S    
C52   C53   A    
C46   C47   A    
C5    H25   S    
O17   P8    S    
O12   P1    S    
C3    H18   S    
C45   H2    S    
C67   H8    S    
C34   H62   S    
C19   H37   S    
C49   H60   S    
C56   C67   S    
C2    H16   S    
C70   H14   S    
O28   P3    D    
C44   C48   A    
C32   N2    Am   
C24   C26   A    
O1    P1    D    
C28   H39   S    
C1    H17   S    
C30   C31   A    
C37   P1    S    
O9    P5    S    
C23   H55   S    
C45   H3    S    
C69   C70   S    
C9    N1    Am   
C62   C63   A    
C55   H52   S    
C38   H64   S    
C6    H28   S    
C3    C4    S    
Ba1   P1    S    
C4    H20   S    
O13   P2    S    
C8    H32   S    
C68   H59   S    
O23   P6    D    
C31   C32   A    
C29   C33   A    
C12   C23   S    
C35   C39   D    
C59   C60   A    
C67   H9    S    
C56   H6    S    
Ba2   P4    S    
C48   H47   S    
C43   H41   S    
C12   H34   S    
C62   H57   S    
C58   C66   S    
C23   H24   S    
C1    H23   S    
C10   N1    Am   
C63   P5    S    
C25   C26   A    
Ba2   O4    S    
C8    H33   S    
C53   H58   S    
C34   O7    S    
C56   O24   S    
C33   N2    Am   
Ba1   O1    S    
