data_mof_unit_12862.cif
_audit_creation_date              2012-12-10T18:42:57-0500
_audit_creation_method            fapswitch 2.2
_symmetry_space_group_name_H-M    P1
_symmetry_Int_Tables_number       1
_space_group_crystal_system       triclinic
_cell_length_a                    18.058566
_cell_length_b                    18.05265
_cell_length_c                    18.089965
_cell_angle_alpha                 119.984797
_cell_angle_beta                  90.002519
_cell_angle_gamma                 60.055045
_cell_volume                      4174.61938828

loop_
_atom_site_label
_atom_site_type_symbol
_atom_type_description
_atom_site_fract_x
_atom_site_fract_y
_atom_site_fract_z
_atom_type_partial_charge
C1    C     C_R   0.891383 0.216800 0.608548 0.847838
C2    C     C_3   0.551003 0.897590 0.948775 -0.007164
C3    C     C_3   0.438669 0.034863 0.072511 -0.215514
C4    C     C_3   0.561330 0.965137 0.927482 -0.215531
C5    C     C_3   0.032624 0.400416 0.468428 -0.203501
C6    C     C_3   0.967382 0.599578 0.531571 -0.203514
C7    C     C_3   0.083981 0.451728 0.501472 0.137019
C8    C     C_3   0.916025 0.548265 0.498527 0.137012
C9    C     C_3   0.051119 0.499702 0.448411 -0.006720
C10   C     C_3   0.948886 0.500292 0.551588 -0.006717
C11   C     C_3   0.999597 0.448926 0.414492 -0.189411
C12   C     C_R   0.108616 0.783200 0.391452 0.847820
C13   C     C_3   0.000408 0.551068 0.585507 -0.189418
C14   C     C_3   0.924078 0.034658 0.477185 -0.336024
C15   C     C_3   0.075920 0.965343 0.522817 -0.335827
C16   C     C_R   0.608405 0.783193 0.891519 0.782127
C17   C     C_R   0.391595 0.216807 0.108479 0.782130
C18   C     C_3   0.955374 0.965255 0.512139 0.554235
C19   C     C_3   0.044624 0.034747 0.487864 0.554222
C20   C     C_3   0.051926 0.897614 0.448226 -0.068951
C21   C     C_3   0.948073 0.102386 0.551777 -0.068943
C22   C     C_3   0.022227 0.966302 0.412266 -0.280321
C23   C     C_3   0.544711 0.402598 0.421608 -0.313584
C24   C     C_3   0.977772 0.033699 0.587736 -0.280116
C25   C     C_3   0.927507 0.514468 0.038028 0.568688
C26   C     C_3   0.072491 0.485534 0.961973 0.568685
C27   C     C_3   0.952438 0.593318 0.082336 -0.335470
C28   C     C_3   0.047560 0.406683 0.917665 -0.335508
C29   C     C_3   0.050800 0.499685 0.051554 -0.069152
C30   C     C_3   0.949199 0.500316 0.948447 -0.069152
C31   C     C_3   0.025188 0.420961 0.008658 -0.300654
C32   C     C_3   0.974810 0.579041 0.991343 -0.300623
C33   C     C_3   0.579450 0.407161 0.954049 0.438078
C34   C     C_3   0.455286 0.597398 0.578391 -0.313517
C35   C     C_3   0.420551 0.592835 0.045947 0.438065
C36   C     C_3   0.487567 0.425714 0.949194 0.411567
C37   C     C_3   0.512433 0.574283 0.050802 0.411580
C38   C     C_3   0.448812 0.501445 0.052998 -0.184362
C39   C     C_3   0.551189 0.498551 0.946999 -0.184344
C40   C     C_R   0.608464 0.499135 0.890684 0.909827
C41   C     C_R   0.391536 0.500864 0.109315 0.909823
C42   C     C_3   0.541964 0.482594 0.058520 -0.500521
C43   C     C_3   0.458038 0.517401 0.941476 -0.500543
C44   C     C_R   0.891740 0.499987 0.608535 0.779109
C45   C     C_3   0.447362 0.965422 0.972482 -0.182070
C46   C     C_R   0.108262 0.500012 0.391465 0.779103
C47   C     C_R   0.891637 0.500089 0.891609 0.850192
C48   C     C_R   0.108363 0.499911 0.108391 0.850184
C49   C     C_R   0.608353 0.500798 0.608463 0.844926
C50   C     C_R   0.391647 0.499200 0.391537 0.844930
C51   C     C_3   0.578614 0.474037 0.455508 -0.299366
C52   C     C_3   0.421384 0.525959 0.544491 -0.299289
C53   C     C_3   0.482514 0.568315 0.482211 0.553380
C54   C     C_3   0.517484 0.431682 0.517789 0.553373
C55   C     C_3   0.448954 0.498295 0.448677 -0.069124
C56   C     C_3   0.552637 0.034578 0.027512 -0.182085
C57   C     C_3   0.551044 0.501702 0.551322 -0.069131
C58   C     C_3   0.493859 0.698490 0.502658 0.097379
C59   C     C_3   0.476896 0.766341 0.469456 -0.853032
C60   C     C_3   0.506217 0.301440 0.497288 0.097360
C61   C     C_3   0.523064 0.233701 0.530587 -0.853093
C62   C     C_3   0.824227 0.999113 0.580385 0.103659
C63   C     C_3   0.781426 0.949383 0.591403 -0.846933
C64   C     C_3   0.175689 0.000889 0.419440 0.103789
C65   C     C_3   0.218576 0.050651 0.408652 -0.846951
C66   C     C_3   0.848362 0.528709 0.149832 0.105263
C67   C     C_3   0.457433 0.034217 0.952559 0.134930
C68   C     C_3   0.758949 0.552447 0.189847 -0.811019
C69   C     C_3   0.151657 0.471239 0.850142 0.105252
C70   C     C_3   0.241045 0.447576 0.810167 -0.811043
C71   C     C_3   0.503378 0.299404 0.808326 0.133629
C72   C     C_3   0.504712 0.201283 0.757367 -0.869527
C73   C     C_3   0.496609 0.700608 0.191670 0.133612
C74   C     C_3   0.495301 0.798712 0.242622 -0.869450
C75   C     C_3   0.677651 0.247367 0.930424 0.138117
C76   C     C_3   0.755771 0.134667 0.858509 -0.851718
C77   C     C_3   0.322340 0.752596 0.069522 0.138199
C78   C     C_3   0.542565 0.965785 0.047435 0.134926
C79   C     C_3   0.244203 0.865302 0.141401 -0.851825
C80   C     C_3   0.407740 0.076680 0.900063 -0.411466
C81   C     C_3   0.432455 0.987658 0.802413 -0.357595
C82   C     C_3   0.383505 0.030320 0.749909 -0.871835
C83   C     C_3   0.592258 0.923323 0.099932 -0.411439
C84   C     C_3   0.567505 0.012345 0.197597 -0.357613
C85   C     C_3   0.616500 0.969679 0.250081 -0.871846
C86   C     C_3   0.181498 0.395778 0.500853 -0.434792
C87   C     C_3   0.191999 0.353533 0.558372 -0.332986
C88   C     C_3   0.290041 0.294531 0.555050 -0.914231
C89   C     C_3   0.448996 0.102410 0.051220 -0.007161
C90   C     C_3   0.818511 0.604216 0.499138 -0.434777
C91   C     C_3   0.808028 0.646436 0.441600 -0.332974
C92   C     C_3   0.709988 0.705454 0.444924 -0.914268
H1    H     H_    0.860963 0.065210 0.460543 0.159882
H2    H     H_    0.425767 0.531123 0.893302 0.173008
H3    H     H_    0.773269 0.669898 0.570200 0.190619
H4    H     H_    0.642834 0.454728 0.421163 0.159434
H5    H     H_    0.357168 0.545262 0.578837 0.159452
H6    H     H_    0.579318 0.323421 0.357361 0.156782
H7    H     H_    0.420679 0.676575 0.642639 0.156801
H8    H     H_    0.405186 0.935606 0.948727 0.147354
H9    H     H_    0.594813 0.064393 0.051266 0.147359
H10   H     H_    0.387935 0.065284 0.132903 0.137180
H11   H     H_    0.612063 0.934716 0.867090 0.137185
H12   H     H_    0.058548 0.319127 0.443903 0.149675
H13   H     H_    0.139039 0.934797 0.539455 0.159937
H14   H     H_    0.941457 0.680867 0.556096 0.149740
H15   H     H_    0.999501 0.407884 0.343983 0.147256
H16   H     H_    0.000505 0.592109 0.656015 0.147262
H17   H     H_    0.568129 0.647870 0.488254 0.128634
H18   H     H_    0.458287 0.750888 0.577020 0.137929
H19   H     H_    0.403211 0.818115 0.482971 0.255254
H20   H     H_    0.501639 0.815664 0.505232 0.211671
H21   H     H_    0.513296 0.716197 0.395579 0.253061
H22   H     H_    0.541924 0.248961 0.422948 0.137986
H23   H     H_    0.431971 0.351989 0.511542 0.128618
H24   H     H_    0.042319 0.936989 0.340134 0.170827
H25   H     H_    0.486496 0.283933 0.604432 0.253061
H26   H     H_    0.498439 0.184264 0.494727 0.211665
H27   H     H_    0.596718 0.182033 0.517259 0.255245
H28   H     H_    0.783009 0.043921 0.553442 0.135456
H29   H     H_    0.822500 0.053727 0.648239 0.149703
H30   H     H_    0.820279 0.904994 0.619361 0.255014
H31   H     H_    0.710552 0.011168 0.638436 0.208788
H32   H     H_    0.781088 0.895245 0.524877 0.256763
H33   H     H_    0.177189 0.946628 0.351561 0.149753
H34   H     H_    0.216998 0.955690 0.446051 0.135404
H35   H     H_    0.957671 0.063008 0.659867 0.170885
H36   H     H_    0.219162 0.104418 0.475202 0.256764
H37   H     H_    0.289368 0.988851 0.361420 0.208786
H38   H     H_    0.179622 0.095445 0.381043 0.254996
H39   H     H_    0.857205 0.588377 0.202608 0.127194
H40   H     H_    0.903724 0.449737 0.130871 0.137476
H41   H     H_    0.746060 0.497101 0.137582 0.269779
H42   H     H_    0.761498 0.544132 0.246735 0.204807
H43   H     H_    0.702624 0.633671 0.215414 0.253515
H44   H     H_    0.096262 0.550173 0.869049 0.137456
H45   H     H_    0.142885 0.411501 0.797360 0.127218
H46   H     H_    0.914569 0.668271 0.150737 0.155633
H47   H     H_    0.297407 0.366390 0.784662 0.253555
H48   H     H_    0.238517 0.455824 0.753241 0.204809
H49   H     H_    0.253856 0.503005 0.862440 0.269757
H50   H     H_    0.573308 0.275893 0.784670 0.162815
H51   H     H_    0.456578 0.353753 0.791589 0.144398
H52   H     H_    0.435974 0.221413 0.778893 0.263209
H53   H     H_    0.526916 0.164254 0.683480 0.209441
H54   H     H_    0.552498 0.144682 0.771467 0.254899
H55   H     H_    0.543391 0.646261 0.208417 0.144378
H56   H     H_    0.426670 0.724141 0.215322 0.162833
H57   H     H_    0.085429 0.331729 0.849264 0.155629
H58   H     H_    0.447540 0.855310 0.228506 0.254893
H59   H     H_    0.473078 0.835761 0.316512 0.209445
H60   H     H_    0.564052 0.778558 0.221102 0.263201
H61   H     H_    0.616770 0.248405 0.943808 0.172393
H62   H     H_    0.695284 0.275211 0.993336 0.147807
H63   H     H_    0.817917 0.130098 0.842506 0.264854
H64   H     H_    0.769191 0.085479 0.883346 0.209647
H65   H     H_    0.738167 0.104129 0.796103 0.251293
H66   H     H_    0.304721 0.724704 0.006606 0.147799
H67   H     H_    0.383213 0.751566 0.056126 0.172370
H68   H     H_    0.046419 0.357195 0.017158 0.162450
H69   H     H_    0.261802 0.895903 0.203798 0.251228
H70   H     H_    0.230757 0.914446 0.116510 0.209679
H71   H     H_    0.182073 0.869858 0.157439 0.264832
H72   H     H_    0.308948 0.079103 0.782657 0.265757
H73   H     H_    0.403282 0.078257 0.746953 0.264470
H74   H     H_    0.402150 0.964238 0.679761 0.245274
H75   H     H_    0.506734 0.938213 0.767551 0.215220
H76   H     H_    0.413430 0.937777 0.802301 0.218509
H77   H     H_    0.333569 0.125600 0.935063 0.211677
H78   H     H_    0.426335 0.126862 0.900151 0.206316
H79   H     H_    0.953580 0.642807 0.982843 0.162458
H80   H     H_    0.596820 0.921642 0.252975 0.264490
H81   H     H_    0.691052 0.920993 0.217358 0.265743
H82   H     H_    0.597800 0.035761 0.320250 0.245244
H83   H     H_    0.586459 0.062292 0.197743 0.218499
H84   H     H_    0.493230 0.061726 0.232451 0.215218
H85   H     H_    0.573692 0.873109 0.099816 0.206298
H86   H     H_    0.666429 0.874436 0.064951 0.211684
H87   H     H_    0.335079 0.226935 0.484409 0.263520
H88   H     H_    0.312457 0.347392 0.581772 0.263418
H89   H     H_    0.295732 0.264854 0.597221 0.255429
H90   H     H_    0.574240 0.468866 0.106689 0.173023
H91   H     H_    0.148113 0.419438 0.629834 0.214700
H92   H     H_    0.170846 0.299408 0.532903 0.224310
H93   H     H_    0.226738 0.330108 0.429788 0.190612
H94   H     H_    0.200727 0.451689 0.527606 0.202344
H95   H     H_    0.687557 0.652607 0.418210 0.263408
H96   H     H_    0.664954 0.773059 0.515564 0.263515
H97   H     H_    0.704309 0.735120 0.402746 0.255436
H98   H     H_    0.829198 0.700543 0.467052 0.224264
H99   H     H_    0.851909 0.580517 0.370141 0.214698
H100  H     H_    0.799276 0.548311 0.472395 0.202328
O1    O     O_3   0.750010 0.499980 0.749990 -0.494765
O2    O     O_R   0.305750 0.265450 0.132730 -0.645955
O3    O     O_R   0.867280 0.265410 0.571220 -0.618892
O4    O     O_R   0.132720 0.734590 0.428780 -0.618874
O5    O     O_R   0.571230 0.734580 0.867270 -0.649253
O6    O     O_R   0.428770 0.265420 0.132730 -0.649256
O7    O     O_R   0.694200 0.438470 0.867270 -0.597532
O8    O     O_R   0.305800 0.561530 0.132730 -0.597537
O9    O     O_R   0.867340 0.561470 0.694210 -0.653510
O10   O     O_R   0.132660 0.438530 0.305790 -0.653514
O11   O     O_R   0.867310 0.438430 0.867270 -0.609733
O12   O     O_3   0.249990 0.500020 0.250010 -0.494766
O13   O     O_R   0.132690 0.561570 0.132730 -0.609732
O14   O     O_R   0.694200 0.438520 0.571220 -0.644841
O15   O     O_R   0.305800 0.561480 0.428780 -0.644833
O16   O     O_R   0.867340 0.561440 0.867270 -0.664110
O17   O     O_R   0.132660 0.438560 0.132730 -0.664111
O18   O     O_R   0.571190 0.561530 0.694210 -0.647185
O19   O     O_R   0.428810 0.438470 0.305790 -0.647189
O20   O     O_3   0.460270 0.638147 0.457944 -0.616346
O21   O     O_3   0.539720 0.361865 0.542071 -0.616359
O22   O     O_3   0.913990 0.919670 0.520202 -0.612700
O23   O     O_R   0.571190 0.561490 0.867270 -0.655920
O24   O     O_3   0.086016 0.080339 0.479836 -0.612741
O25   O     O_3   0.846782 0.531083 0.073107 -0.596928
O26   O     O_3   0.153213 0.468927 0.926899 -0.596920
O27   O     O_3   0.472796 0.346849 0.902029 -0.608408
O28   O     O_3   0.527204 0.653148 0.097965 -0.608393
O29   O     O_3   0.664096 0.309512 0.899392 -0.602537
O30   O     O_3   0.335907 0.690488 0.100599 -0.602553
O31   O     O_R   0.428810 0.438510 0.132730 -0.655918
O32   O     O_R   0.867310 0.438490 0.571220 -0.639741
O33   O     O_R   0.132690 0.561510 0.428780 -0.639733
O34   O     O_R   0.867280 0.265380 0.694210 -0.654772
O35   O     O_R   0.132720 0.734620 0.305790 -0.654776
O36   O     O_R   0.694250 0.734550 0.867270 -0.645952
Zn1   Zn    Zn3+2 0.618190 0.587870 0.793920 0.963826
Zn2   Zn    Zn3+2 0.381810 0.412130 0.206080 0.963824
Zn3   Zn    Zn3+2 0.793940 0.412090 0.793920 1.021788
Zn4   Zn    Zn3+2 0.206060 0.587910 0.206080 1.021774
Zn5   Zn    Zn3+2 0.793970 0.587840 0.793920 0.948302
Zn6   Zn    Zn3+2 0.206030 0.412160 0.206080 0.948292
Zn7   Zn    Zn3+2 0.793940 0.412130 0.618200 0.979214
Zn8   Zn    Zn3+2 0.206060 0.587870 0.381800 0.979235

loop_
_geom_bond_atom_site_label_1
_geom_bond_atom_site_label_2
_ccdc_geom_bond_type
C1    O34   A    
C25   C31   S    
C54   O21   S    
C66   C68   S    
C87   C88   S    
C1    C21   S    
C47   O11   A    
O19   Zn2   S    
C26   O26   S    
C58   H17   S    
C12   O4    A    
C73   C74   S    
C14   C18   S    
C25   O25   S    
C80   H78   S    
C75   C76   S    
O3    Zn7   S    
C43   H2    S    
C6    C9    S    
C81   C82   S    
C88   H89   S    
C92   H95   S    
C71   O27   S    
C90   H3    S    
C90   H100  S    
C42   H90   S    
C26   C32   S    
C6    C13   S    
C33   C39   S    
C82   H72   S    
C47   O16   A    
C73   H55   S    
C18   C24   S    
C33   C42   S    
C14   C21   S    
C68   H41   S    
C35   C37   S    
O32   Zn7   S    
C79   H69   S    
C56   H9    S    
C38   C42   S    
C66   O25   S    
C23   C54   S    
C41   O8    A    
C87   H91   S    
C7    C86   S    
C61   H27   S    
C72   H53   S    
C4    H11   S    
O18   Zn1   S    
C52   H5    S    
C67   C89   S    
C33   C36   S    
C56   C78   S    
C27   C29   S    
C72   H52   S    
C19   O24   S    
C37   C42   S    
O7    Zn3   S    
O17   Zn6   S    
O12   Zn8   S    
O12   Zn6   S    
C59   H20   S    
C23   C51   S    
C78   C83   S    
C46   O33   A    
C34   C57   S    
C48   O13   A    
C45   C67   S    
C24   H35   S    
C85   H81   S    
C10   C13   S    
C88   H88   S    
C26   C29   S    
C44   O32   A    
O1    Zn1   S    
C84   H83   S    
C2    C16   S    
C60   H22   S    
C49   O18   A    
C14   H1    S    
C62   H28   S    
C31   H68   S    
C52   C55   S    
C51   H4    S    
C50   O15   A    
C22   H24   S    
O35   Zn4   S    
C61   H26   S    
C5    H12   S    
C9    C46   S    
C58   H18   S    
C4    C56   S    
C62   O22   S    
C74   H60   S    
C17   O2    A    
C18   O22   S    
C80   H77   S    
O2    Zn6   S    
C13   H16   S    
C36   O27   S    
O1    Zn5   S    
C52   C54   S    
O15   Zn8   S    
C63   H32   S    
C66   H40   S    
C53   C55   S    
C2    C45   S    
C69   H45   S    
C15   C20   S    
C91   H98   S    
C76   H65   S    
C27   H46   S    
C83   H85   S    
C73   H56   S    
C10   C44   S    
C69   O26   S    
C85   H80   S    
C65   H36   S    
C30   C47   S    
C19   C22   S    
C17   C89   S    
C84   C85   S    
C38   C41   S    
C35   O30   S    
C87   H92   S    
C5    C7    S    
C86   C87   S    
C12   O35   A    
C6    C8    S    
C82   H73   S    
C29   C48   S    
C58   C59   S    
C39   C43   S    
C61   H25   S    
C3    C45   S    
C73   O28   S    
C60   C61   S    
C51   C53   S    
O12   Zn4   S    
C15   C19   S    
C60   O21   S    
C62   C63   S    
C2    C78   S    
C65   H37   S    
O10   Zn6   S    
C9    C11   S    
C75   H61   S    
C59   H19   S    
C83   C84   S    
C7    C13   S    
C59   H21   S    
C60   H23   S    
C12   C20   S    
O6    Zn2   S    
C85   H82   S    
C81   H75   S    
C77   C79   S    
C70   H47   S    
C17   O6    A    
C70   H48   S    
C49   O14   A    
C23   C55   S    
O5    Zn1   S    
C28   H57   S    
O36   Zn5   S    
C41   O31   A    
C86   H93   S    
C71   H50   S    
C51   C57   S    
C3    H10   S    
C8    C10   S    
C56   C89   S    
C32   H79   S    
C20   C22   S    
C50   O19   A    
C86   H94   S    
C69   H44   S    
C64   H34   S    
C11   H15   S    
C44   O9    A    
C74   H59   S    
C8    C90   S    
O1    Zn3   S    
C79   H70   S    
C36   C38   S    
C92   H96   S    
C91   C92   S    
C63   H30   S    
C35   C43   S    
C92   H97   S    
C88   H87   S    
C71   H51   S    
C66   H39   S    
C82   H74   S    
C25   C30   S    
C7    C9    S    
C16   O36   A    
C70   H49   S    
C34   H7    S    
C83   H86   S    
C1    O3    A    
C27   C32   S    
O23   Zn1   S    
O33   Zn8   S    
C34   C52   S    
C64   O24   S    
C28   C31   S    
C74   H58   S    
C67   C80   S    
C79   H71   S    
C80   C81   S    
C36   C43   S    
C45   H8    S    
C49   C57   S    
C63   H31   S    
O31   Zn2   S    
C5    C11   S    
C40   O7    A    
C58   O20   S    
C25   C27   S    
O4    Zn8   S    
C77   H66   S    
C76   H63   S    
C26   C28   S    
C50   C55   S    
C65   H38   S    
C3    C89   S    
C77   H67   S    
C64   C65   S    
C15   H13   S    
C28   C30   S    
C5    C10   S    
C37   C39   S    
C15   C24   S    
C30   C32   S    
C75   H62   S    
C14   C22   S    
C90   C91   S    
C91   H99   S    
C68   H43   S    
C8    C11   S    
C72   H54   S    
C2    C4    S    
C40   O23   A    
C68   H42   S    
C81   H76   S    
C76   H64   S    
O11   Zn3   S    
C18   C20   S    
O12   Zn2   S    
C69   C70   S    
C16   O5    A    
C39   C40   S    
C77   O30   S    
C46   O10   A    
C23   H6    S    
C71   C72   S    
C48   O17   A    
C75   O29   S    
C34   C53   S    
C29   C31   S    
C64   H33   S    
C21   C24   S    
C35   C38   S    
O14   Zn7   S    
O13   Zn4   S    
O8    Zn4   S    
C37   O28   S    
C84   H84   S    
C3    C78   S    
O16   Zn5   S    
O1    Zn7   S    
C62   H29   S    
C53   O20   S    
C4    C67   S    
O34   Zn3   S    
O9    Zn5   S    
C6    H14   S    
C19   C21   S    
C54   C57   S    
C33   O29   S    
