data_mof_unit_52023.cif
_audit_creation_date              2012-12-11T16:26:36-0500
_audit_creation_method            fapswitch 2.2
_symmetry_space_group_name_H-M    P1
_symmetry_Int_Tables_number       1
_space_group_crystal_system       triclinic
_cell_length_a                    13.993748
_cell_length_b                    13.993376
_cell_length_c                    31.993899
_cell_angle_alpha                 90.00062
_cell_angle_beta                  89.99953
_cell_angle_gamma                 119.996704
_cell_volume                      5425.86241235

loop_
_atom_site_label
_atom_site_type_symbol
_atom_type_description
_atom_site_fract_x
_atom_site_fract_y
_atom_site_fract_z
_atom_type_partial_charge
C1    C     C_R   0.567481 0.444091 0.810509 0.561175
C2    C     C_R   0.876611 0.432517 0.689489 0.561122
C3    C     C_R   0.555910 0.123387 0.810509 0.561128
C4    C     C_R   0.567482 0.444091 0.689491 0.561179
C5    C     C_R   0.876610 0.432518 0.810510 0.561125
C6    C     C_R   0.555911 0.123386 0.689491 0.561129
C7    C     C_R   0.444091 0.567480 0.310508 0.561170
C8    C     C_R   0.432521 0.876614 0.189491 0.561150
C9    C     C_R   0.123368 0.555910 0.310507 0.560912
C10   C     C_R   0.444091 0.567481 0.189492 0.561172
C11   C     C_R   0.432520 0.876614 0.310508 0.561172
C12   C     C_R   0.123372 0.555909 0.189493 0.560932
C13   C     C_1   0.004579 0.528490 0.018668 0.081365
C14   C     C_1   0.523979 0.995203 0.481354 0.081425
C15   C     C_1   0.471155 0.475907 0.018650 0.081406
C16   C     C_1   0.004551 0.528412 0.481330 0.081361
C17   C     C_1   0.523971 0.995214 0.018646 0.081419
C18   C     C_1   0.471184 0.475917 0.481348 0.081402
C19   C     C_1   0.528756 0.004755 0.518649 0.081416
C20   C     C_1   0.995088 0.523743 0.981372 0.081413
C21   C     C_1   0.475969 0.471131 0.518641 0.081401
C22   C     C_1   0.528747 0.004764 0.981352 0.081414
C23   C     C_1   0.995078 0.523672 0.518627 0.081418
C24   C     C_1   0.475942 0.471119 0.981356 0.081401
C25   C     C_R   0.929561 0.468816 0.851950 -0.020258
C26   C     C_R   0.539273 0.070420 0.648056 -0.020236
C27   C     C_R   0.531173 0.460717 0.851949 -0.020221
C28   C     C_R   0.929568 0.468813 0.648050 -0.020268
C29   C     C_R   0.539271 0.070425 0.851945 -0.020235
C30   C     C_R   0.531177 0.460716 0.648050 -0.020226
C31   C     C_R   0.468836 0.929569 0.351946 -0.020287
C32   C     C_R   0.070281 0.539240 0.148077 -0.020347
C33   C     C_R   0.460728 0.531167 0.351946 -0.020217
C34   C     C_R   0.468845 0.929577 0.148056 -0.020285
C35   C     C_R   0.070245 0.539235 0.351918 -0.020381
C36   C     C_R   0.460726 0.531176 0.148052 -0.020213
C37   C     C_R   0.962436 0.574899 0.868569 0.237602
C38   C     C_R   0.612428 0.037437 0.631467 0.237707
C39   C     C_R   0.424990 0.387651 0.868514 0.237725
C40   C     C_R   0.962391 0.574873 0.631421 0.237584
C41   C     C_R   0.612420 0.037436 0.868533 0.237697
C42   C     C_R   0.425001 0.387643 0.631481 0.237718
C43   C     C_R   0.574978 0.962576 0.368530 0.237655
C44   C     C_R   0.037786 0.612718 0.131423 0.237553
C45   C     C_R   0.387674 0.424979 0.368510 0.237861
C46   C     C_R   0.574972 0.962537 0.131465 0.237636
C47   C     C_R   0.037910 0.612817 0.368596 0.237503
C48   C     C_R   0.387701 0.424972 0.131494 0.237841
C49   C     C_R   0.987652 0.595349 0.911416 0.271650
C50   C     C_R   0.607695 0.012184 0.588625 0.271688
C51   C     C_R   0.404447 0.392341 0.911357 0.271705
C52   C     C_R   0.987606 0.595302 0.588573 0.271639
C53   C     C_R   0.607684 0.012184 0.911376 0.271685
C54   C     C_R   0.404465 0.392337 0.588638 0.271705
C55   C     C_R   0.595494 0.987815 0.411373 0.271648
C56   C     C_R   0.012504 0.607898 0.088582 0.271612
C57   C     C_R   0.392388 0.404427 0.411351 0.271788
C58   C     C_R   0.595483 0.987776 0.088621 0.271639
C59   C     C_R   0.012628 0.607971 0.411437 0.271573
C60   C     C_R   0.392405 0.404414 0.088653 0.271778
C61   C     C_R   0.981828 0.511117 0.937024 -0.007825
C62   C     C_R   0.529373 0.018085 0.562992 -0.007812
C63   C     C_R   0.488700 0.470529 0.937015 -0.007812
C64   C     C_R   0.981836 0.511075 0.562975 -0.007829
C65   C     C_R   0.529365 0.018092 0.937009 -0.007811
C66   C     C_R   0.488718 0.470537 0.562983 -0.007815
C67   C     C_R   0.511262 0.981876 0.437011 -0.007850
C68   C     C_R   0.017838 0.529154 0.063017 -0.007866
C69   C     C_R   0.470585 0.488678 0.437006 -0.007806
C70   C     C_R   0.511265 0.981890 0.062990 -0.007846
C71   C     C_R   0.017786 0.529096 0.436979 -0.007884
C72   C     C_R   0.470563 0.488678 0.062991 -0.007803
C73   C     C_R   0.958026 0.410060 0.919908 -0.144984
C74   C     C_R   0.452172 0.042010 0.580078 -0.145056
C75   C     C_R   0.589890 0.547643 0.919953 -0.145050
C76   C     C_R   0.958093 0.410048 0.580103 -0.144974
C77   C     C_R   0.452170 0.042024 0.919922 -0.145048
C78   C     C_R   0.589900 0.547658 0.580049 -0.145048
C79   C     C_R   0.410128 0.957926 0.419930 -0.144905
C80   C     C_R   0.041191 0.451622 0.080173 -0.144958
C81   C     C_R   0.547687 0.589874 0.419945 -0.145195
C82   C     C_R   0.410152 0.957992 0.080079 -0.144909
C83   C     C_R   0.040955 0.451460 0.419798 -0.144915
C84   C     C_R   0.547635 0.589897 0.080046 -0.145162
C85   C     C_R   0.932467 0.389080 0.877831 -0.141750
C86   C     C_R   0.456720 0.067605 0.622150 -0.141880
C87   C     C_R   0.610957 0.543140 0.877881 -0.141837
C88   C     C_R   0.932535 0.389088 0.622180 -0.141737
C89   C     C_R   0.456720 0.067617 0.877850 -0.141873
C90   C     C_R   0.610959 0.543150 0.622121 -0.141824
C91   C     C_R   0.389085 0.932346 0.377857 -0.141672
C92   C     C_R   0.066841 0.456264 0.122245 -0.141725
C93   C     C_R   0.543163 0.610949 0.377875 -0.142006
C94   C     C_R   0.389113 0.932409 0.122151 -0.141680
C95   C     C_R   0.066615 0.456130 0.377726 -0.141667
C96   C     C_R   0.543121 0.610976 0.122117 -0.141978
Cr1   Cr    Cr6+3 0.504240 0.249200 0.750000 1.169483
Cr2   Cr    Cr6+3 0.744960 0.495760 0.750000 1.169587
Cr3   Cr    Cr6+3 0.750800 0.255040 0.750000 1.169530
Cr4   Cr    Cr6+3 0.249200 0.504240 0.250000 1.169423
Cr5   Cr    Cr6+3 0.495760 0.744960 0.250000 1.169484
Cr6   Cr    Cr6+3 0.255040 0.750800 0.250000 1.169755
O1    O     O_R   0.480350 0.140770 0.796330 -0.484294
O2    O     O_R   0.660420 0.519650 0.703670 -0.484151
O3    O     O_R   0.859230 0.339580 0.796330 -0.484268
O4    O     O_R   0.480350 0.140770 0.703670 -0.484290
O5    O     O_R   0.660420 0.519650 0.796330 -0.484164
O6    O     O_R   0.859230 0.339580 0.703670 -0.484285
O7    O     O_R   0.140770 0.480350 0.296330 -0.484435
O8    O     O_R   0.519650 0.660420 0.203670 -0.484257
O9    O     O_R   0.339580 0.859230 0.296330 -0.483994
O10   O     O_R   0.140770 0.480350 0.203670 -0.484428
O11   O     O_R   0.519650 0.660420 0.296330 -0.484288
O12   O     O_R   0.339580 0.859230 0.203670 -0.484049
O13   O     O_R   0.514930 0.348530 0.793250 -0.450736
O14   O     O_R   0.833600 0.485070 0.706750 -0.450680
O15   O     O_R   0.651470 0.166400 0.793250 -0.450697
O16   O     O_R   0.514930 0.348530 0.706750 -0.450729
O17   O     O_R   0.833600 0.485070 0.793250 -0.450703
O18   O     O_R   0.651470 0.166400 0.706750 -0.450691
O19   O     O_R   0.348530 0.514930 0.293250 -0.450628
O20   O     O_R   0.485070 0.833600 0.206750 -0.450725
O21   O     O_R   0.166400 0.651470 0.293250 -0.450562
O22   O     O_R   0.348530 0.514930 0.206750 -0.450666
O23   O     O_R   0.485070 0.833600 0.293250 -0.450730
O24   O     O_R   0.166400 0.651470 0.206750 -0.450606
O25   O     O_3   0.666667 0.333333 0.750000 -0.314880
O26   O     O_3   0.333333 0.666667 0.250000 -0.314829
Cl1   Cl    Cl    0.972940 0.683013 0.836700 -0.415922
Cl2   Cl    Cl    0.709926 0.026836 0.663369 -0.415775
Cl3   Cl    Cl    0.316868 0.290330 0.836578 -0.415741
Cl4   Cl    Cl    0.972828 0.682983 0.663274 -0.415944
Cl5   Cl    Cl    0.709916 0.026828 0.836632 -0.415770
Cl6   Cl    Cl    0.316877 0.290306 0.663413 -0.415758
Cl7   Cl    Cl    0.683085 0.973225 0.336621 -0.416040
Cl8   Cl    Cl    0.027864 0.710774 0.163226 -0.416124
Cl9   Cl    Cl    0.290333 0.316861 0.336577 -0.415668
Cl10  Cl    Cl    0.683068 0.973124 0.163364 -0.416022
Cl11  Cl    Cl    0.028192 0.711043 0.336826 -0.416189
Cl12  Cl    Cl    0.290413 0.316844 0.163436 -0.415682
Cl13  Cl    Cl    0.977799 0.702500 0.066627 -0.411567
Cl14  Cl    Cl    0.725085 0.023265 0.433235 -0.412195
Cl15  Cl    Cl    0.298414 0.274723 0.066826 -0.411893
Cl16  Cl    Cl    0.978154 0.702712 0.433425 -0.411522
Cl17  Cl    Cl    0.725048 0.023159 0.066751 -0.412120
Cl18  Cl    Cl    0.298356 0.274761 0.433186 -0.411816
Cl19  Cl    Cl    0.701861 0.976767 0.566758 -0.411819
Cl20  Cl    Cl    0.022919 0.724853 0.933321 -0.411652
Cl21  Cl    Cl    0.274819 0.298280 0.566798 -0.411959
Cl22  Cl    Cl    0.701843 0.976760 0.933243 -0.411805
Cl23  Cl    Cl    0.022801 0.724770 0.566653 -0.411584
Cl24  Cl    Cl    0.274791 0.298293 0.933193 -0.411976
H1    H     H_    0.090516 0.398344 0.133869 0.208784
H2    H     H_    0.307333 0.908210 0.366289 0.209129
H3    H     H_    0.600640 0.692783 0.133664 0.208678
H4    H     H_    0.090149 0.398119 0.366082 0.208857
H5    H     H_    0.307375 0.908313 0.133724 0.209054
H6    H     H_    0.600709 0.692742 0.366322 0.208656
H7    H     H_    0.399087 0.091722 0.633721 0.208670
H8    H     H_    0.908444 0.307375 0.866238 0.208808
H9    H     H_    0.692742 0.600710 0.633677 0.208807
H10   H     H_    0.399092 0.091738 0.866279 0.208664
H11   H     H_    0.908557 0.307402 0.633782 0.208830
H12   H     H_    0.692745 0.600692 0.866328 0.208769
H13   H     H_    0.044070 0.389910 0.060566 0.184619
H14   H     H_    0.345401 0.954556 0.439593 0.184741
H15   H     H_    0.608887 0.654653 0.060364 0.184454
H16   H     H_    0.043693 0.389643 0.439387 0.184678
H17   H     H_    0.345437 0.954665 0.060420 0.184709
H18   H     H_    0.608970 0.654619 0.439622 0.184437
H19   H     H_    0.390794 0.045350 0.560418 0.184522
H20   H     H_    0.954746 0.345335 0.939548 0.184582
H21   H     H_    0.654645 0.608943 0.560372 0.184527
H22   H     H_    0.390793 0.045369 0.939582 0.184519
H23   H     H_    0.954855 0.345329 0.560470 0.184604
H24   H     H_    0.654635 0.608920 0.939632 0.184515

loop_
_geom_bond_atom_site_label_1
_geom_bond_atom_site_label_2
_ccdc_geom_bond_type
C50   Cl19  S    
C44   Cl8   S    
C39   C51   A    
C68   C80   A    
C77   H22   S    
C82   C94   A    
C21   C66   S    
C18   C21   T    
C33   C45   A    
C80   H13   S    
C30   C90   A    
C35   C47   A    
C41   Cl5   S    
C58   Cl17  S    
Cr2   O17   S    
C5    O3    A    
C78   C90   A    
C15   C72   S    
C10   O22   A    
C45   C57   A    
C31   C43   A    
C5    O17   A    
C38   Cl2   S    
C11   O23   A    
C95   H4    S    
Cr6   O26   S    
C60   Cl15  S    
C39   Cl3   S    
C96   H3    S    
C12   O24   A    
C60   C72   A    
C19   C62   S    
C3    O1    A    
Cr1   O16   S    
Cr5   O26   S    
Cr5   O11   S    
Cr4   O19   S    
C84   C96   A    
C20   C61   S    
C3    C29   S    
C44   C56   A    
C3    O15   A    
C25   C37   A    
Cr3   O18   S    
C2    O14   A    
C27   C39   A    
C74   H19   S    
C28   C88   A    
C78   H21   S    
Cr5   O23   S    
C14   C67   S    
C10   O8    A    
C92   H1    S    
C34   C46   A    
C85   H8    S    
Cr1   O13   S    
C53   C65   A    
C86   H7    S    
C76   C88   A    
C79   C91   A    
C8    O12   A    
C46   Cl10  S    
C18   C69   S    
C87   H12   S    
C40   Cl4   S    
C82   H17   S    
C11   C31   S    
Cr4   O7    S    
C55   Cl14  S    
C57   Cl18  S    
C12   C32   S    
C7    C33   S    
C4    O16   A    
Cr6   O9    S    
C16   C71   S    
C7    O19   A    
Cr3   O3    S    
C6    O18   A    
C48   C60   A    
C54   Cl21  S    
C71   C83   A    
C9    O7    A    
C66   C78   A    
Cr1   O1    S    
C49   C61   A    
C38   C50   A    
C48   Cl12  S    
C90   H9    S    
C11   O9    A    
C23   C64   S    
C67   C79   A    
C91   H2    S    
C52   C64   A    
C29   C89   A    
C26   C38   A    
Cr3   O25   S    
C61   C73   A    
Cr5   O8    S    
C40   C52   A    
Cr2   O5    S    
C49   Cl20  S    
Cr4   O22   S    
C80   C92   A    
C43   Cl7   S    
C22   C65   S    
Cr6   O12   S    
Cr3   O15   S    
C65   C77   A    
C81   C93   A    
C36   C96   A    
Cr2   O14   S    
C26   C86   A    
C62   C74   A    
C83   C95   A    
C25   C85   A    
C64   C76   A    
C51   C63   A    
C8    C34   S    
C81   H18   S    
C74   C86   A    
C73   H20   S    
C27   C87   A    
C6    O4    A    
C41   C53   A    
C37   C49   A    
C72   C84   A    
C1    O5    A    
C5    C25   S    
C56   Cl13  S    
C43   C55   A    
C15   C24   T    
Cr3   O6    S    
C51   Cl24  S    
Cr4   O10   S    
C16   C23   T    
C31   C91   A    
C53   Cl22  S    
C50   C62   A    
Cr1   O4    S    
Cr6   O21   S    
C89   H10   S    
C12   O10   A    
C9    C35   S    
C45   Cl9   S    
C73   C85   A    
C75   C87   A    
Cr1   O25   S    
Cr2   O25   S    
C13   C20   T    
C29   C41   A    
C75   H24   S    
Cr4   O26   S    
C77   C89   A    
C14   C19   T    
C76   H23   S    
C58   C70   A    
C34   C94   A    
Cr6   O24   S    
C33   C93   A    
C59   Cl16  S    
C55   C67   A    
C54   C66   A    
C35   C95   A    
C24   C63   S    
C88   H11   S    
C83   H16   S    
C94   H5    S    
Cr5   O20   S    
C42   Cl6   S    
C7    O11   A    
C84   H15   S    
C56   C68   A    
C42   C54   A    
C8    O20   A    
C6    C26   S    
C63   C75   A    
C52   Cl23  S    
Cr2   O2    S    
C4    O2    A    
C2    O6    A    
C9    O21   A    
C37   Cl1   S    
C36   C48   A    
C79   H14   S    
C93   H6    S    
C70   C82   A    
C4    C30   S    
C69   C81   A    
C32   C92   A    
C47   C59   A    
C17   C70   S    
C17   C22   T    
C32   C44   A    
C47   Cl11  S    
C1    C27   S    
C28   C40   A    
C30   C42   A    
C2    C28   S    
C1    O13   A    
C10   C36   S    
C57   C69   A    
C46   C58   A    
C59   C71   A    
C13   C68   S    
