data_mof_unit_28588.cif
_audit_creation_date              2012-12-11T15:41:07-0500
_audit_creation_method            fapswitch 2.2
_symmetry_space_group_name_H-M    P1
_symmetry_Int_Tables_number       1
_space_group_crystal_system       triclinic
_cell_length_a                    18.847506
_cell_length_b                    11.018676
_cell_length_c                    18.722682
_cell_angle_alpha                 90.170759
_cell_angle_beta                  90.24963
_cell_angle_gamma                 90.070744
_cell_volume                      3888.16758618

loop_
_atom_site_label
_atom_site_type_symbol
_atom_type_description
_atom_site_fract_x
_atom_site_fract_y
_atom_site_fract_z
_atom_type_partial_charge
C1    C     C_R   0.708213 0.003133 0.861211 0.566832
C2    C     C_R   0.291877 0.002918 0.138909 0.571219
C3    C     C_R   0.209151 0.500649 0.861354 0.559122
C4    C     C_R   0.791714 0.502881 0.138973 0.569147
C5    C     C_R   0.716344 0.516724 0.029115 0.012344
C6    C     C_R   0.290440 0.479751 0.965596 0.016152
C7    C     C_R   0.212408 0.997430 0.032771 0.000077
C8    C     C_R   0.784030 0.015082 0.970826 0.012786
C9    C     C_R   0.704746 0.490946 0.957708 -0.036227
C10   C     C_R   0.301453 0.455479 0.037223 -0.024317
C11   C     C_R   0.200087 0.972679 0.961424 -0.035933
C12   C     C_R   0.795978 0.989141 0.042055 -0.036487
C13   C     C_R   0.827772 0.432771 0.944427 0.246969
C14   C     C_R   0.175370 0.417925 0.051768 0.231518
C15   C     C_R   0.325954 0.944036 0.942242 0.236840
C16   C     C_R   0.672574 0.934190 0.056481 0.241709
C17   C     C_R   0.838236 0.456833 0.018200 -0.175393
C18   C     C_R   0.165475 0.439981 0.978879 -0.164726
C19   C     C_R   0.337921 0.969988 0.015643 -0.178586
C20   C     C_R   0.661450 0.958870 0.982808 -0.176385
C21   C     C_3   0.642478 0.481415 0.049002 -0.251183
C22   C     C_3   0.341111 0.583578 0.966121 -0.259970
C23   C     C_3   0.145174 0.936567 0.055173 -0.258632
C24   C     C_3   0.857249 0.977407 0.950144 -0.253065
C25   C     C_3   0.629700 0.453694 0.970534 -0.258654
C26   C     C_3   0.353231 0.557666 0.044598 -0.286026
C27   C     C_3   0.131368 0.910691 0.976856 -0.257009
C28   C     C_3   0.870495 0.949885 0.028456 -0.261810
C29   C     C_R   0.757745 0.437487 0.916155 0.032341
C30   C     C_R   0.244522 0.427315 0.081663 0.023447
C31   C     C_R   0.255286 0.935733 0.916840 0.034017
C32   C     C_R   0.742827 0.937017 0.083887 0.033567
C33   C     C_R   0.510131 0.160319 0.419559 0.010085
C34   C     C_R   0.521976 0.170193 0.567010 0.016421
C35   C     C_R   0.010130 0.660312 0.419560 0.009560
C36   C     C_R   0.021980 0.670186 0.567010 0.016027
C37   C     C_R   0.546151 0.256817 0.451619 0.012282
C38   C     C_R   0.551181 0.261222 0.524350 0.035020
C39   C     C_R   0.046160 0.756799 0.451617 0.012173
C40   C     C_R   0.051195 0.761203 0.524348 0.035064
C41   C     C_R   0.500618 0.061916 0.534630 -0.128608
C42   C     C_R   0.495695 0.055749 0.460617 -0.145292
C43   C     C_R   0.000609 0.561914 0.534632 -0.128664
C44   C     C_R   0.995685 0.555747 0.460619 -0.145437
C45   C     C_R   0.521497 0.177539 0.841691 0.551087
C46   C     C_R   0.477363 0.177256 0.156962 0.553293
C47   C     C_R   0.022507 0.677341 0.842923 0.547631
C48   C     C_R   0.977371 0.677055 0.156883 0.546982
C49   C     C_3   0.541131 0.392464 0.446168 -0.282214
C50   C     C_3   0.545011 0.396061 0.527059 -0.274392
C51   C     C_3   0.041137 0.892445 0.446169 -0.282236
C52   C     C_3   0.045026 0.896038 0.527058 -0.274410
C53   C     C_R   0.753017 0.423646 0.423990 0.049994
C54   C     C_R   0.248896 0.392341 0.582796 -0.027249
C55   C     C_R   0.253026 0.923646 0.423991 0.050178
C56   C     C_R   0.748895 0.892331 0.582800 -0.027307
C57   C     C_R   0.735138 0.305078 0.440024 0.022959
C58   C     C_R   0.191728 0.359560 0.538656 0.081477
C59   C     C_R   0.235151 0.805079 0.440027 0.022541
C60   C     C_R   0.691727 0.859555 0.538660 0.081848
C61   C     C_R   0.723300 0.271455 0.510128 -0.054295
C62   C     C_R   0.199746 0.341296 0.467062 -0.020060
C63   C     C_R   0.223311 0.771466 0.510132 -0.054411
C64   C     C_R   0.699739 0.841294 0.467065 -0.019867
C65   C     C_R   0.750479 0.474466 0.550228 -0.153838
C66   C     C_R   0.325952 0.373039 0.479718 -0.177313
C67   C     C_R   0.250492 0.974477 0.550228 -0.153815
C68   C     C_R   0.825958 0.872918 0.479737 -0.177476
C69   C     C_R   0.760974 0.508813 0.479414 -0.168157
C70   C     C_R   0.316830 0.400248 0.552627 -0.188739
C71   C     C_R   0.260991 0.008816 0.479413 -0.167981
C72   C     C_R   0.816834 0.900175 0.552639 -0.188976
C73   C     C_3   0.776403 0.192865 0.423986 0.145214
C74   C     C_3   0.137738 0.260017 0.544760 0.154472
C75   C     C_3   0.276421 0.692861 0.424002 0.145397
C76   C     C_3   0.637733 0.760025 0.544780 0.154348
C77   C     C_3   0.759627 0.153851 0.499376 -0.216289
C78   C     C_3   0.142311 0.247792 0.463983 -0.232110
C79   C     C_3   0.259645 0.653869 0.499395 -0.216073
C80   C     C_3   0.642287 0.747808 0.464001 -0.231943
C81   C     C_R   0.733683 0.353641 0.565841 0.026684
C82   C     C_R   0.266922 0.343468 0.436279 -0.015288
C83   C     C_R   0.233689 0.853656 0.565843 0.026397
C84   C     C_R   0.766922 0.843422 0.436286 -0.015700
C85   C     C_R   0.739615 0.367205 0.851759 0.570094
C86   C     C_R   0.259990 0.368055 0.149242 0.571472
C87   C     C_R   0.239290 0.866891 0.851765 0.572058
C88   C     C_R   0.760579 0.866858 0.148145 0.571940
C89   C     C_R   0.729698 0.948736 0.650380 0.545705
C90   C     C_R   0.272297 0.957023 0.352709 0.556330
C91   C     C_R   0.229697 0.448740 0.650378 0.547341
C92   C     C_R   0.772297 0.457026 0.352711 0.556135
C93   C     C_R   0.533451 0.176887 0.642480 0.536558
C94   C     C_R   0.472075 0.175613 0.353693 0.541801
C95   C     C_R   0.033451 0.676886 0.642480 0.536444
C96   C     C_R   0.972074 0.675613 0.353694 0.541306
C97   C     C_R   0.725974 0.313560 0.638621 0.561432
C98   C     C_R   0.274325 0.312030 0.361269 0.561583
C99   C     C_R   0.225976 0.813570 0.638621 0.562240
C100  C     C_R   0.774326 0.812016 0.361269 0.561138
C101  C     C_2   0.480361 0.170220 0.905319 -0.072297
C102  C     C_2   0.517124 0.167036 0.092683 -0.094708
C103  C     C_2   0.980837 0.667489 0.906216 -0.069959
C104  C     C_2   0.017451 0.665046 0.092716 -0.071023
C105  C     C_2   0.480699 0.177060 0.032568 -0.165093
C106  C     C_2   0.516705 0.165242 0.965671 -0.176264
C107  C     C_2   0.980269 0.653829 0.033088 -0.153816
C108  C     C_2   0.016060 0.645586 0.965920 -0.156221
C109  C     C_R   0.780984 0.488448 0.061984 -0.030373
C110  C     C_R   0.222539 0.473491 0.935796 -0.026520
C111  C     C_R   0.280322 0.986620 0.062199 -0.026594
C112  C     C_R   0.718807 0.988872 0.938387 -0.027072
Cr1   Cr    Cr6+3 0.769260 0.163750 0.750730 1.004782
Cr2   Cr    Cr6+3 0.230740 0.163750 0.249270 0.997395
Cr3   Cr    Cr6+3 0.269260 0.663750 0.750730 0.997888
Cr4   Cr    Cr6+3 0.730740 0.663750 0.249270 1.005630
Cr5   Cr    Cr6+3 0.612640 0.009910 0.748780 1.017682
Cr6   Cr    Cr6+3 0.387360 0.009910 0.251220 0.986236
Cr7   Cr    Cr6+3 0.112640 0.509910 0.748780 1.020683
Cr8   Cr    Cr6+3 0.887360 0.509910 0.251220 0.992412
Cr9   Cr    Cr6+3 0.614190 0.322400 0.747710 0.994356
Cr10  Cr    Cr6+3 0.385810 0.322400 0.252290 0.974928
Cr11  Cr    Cr6+3 0.114190 0.822400 0.747710 0.994675
Cr12  Cr    Cr6+3 0.885810 0.822400 0.252290 0.972944
H1    H     H_    0.423725 0.194192 0.033214 0.141058
H2    H     H_    0.574245 0.157676 0.965201 0.121898
H3    H     H_    0.922612 0.656679 0.034000 0.118720
H4    H     H_    0.073021 0.631129 0.965219 0.119115
H5    H     H_    0.990085 0.927486 0.425415 0.150003
H6    H     H_    0.093805 0.940808 0.547610 0.146698
H7    H     H_    0.490086 0.427516 0.425404 0.149912
H8    H     H_    0.593788 0.440833 0.547615 0.146736
H9    H     H_    0.588736 0.432582 0.420483 0.135241
H10   H     H_    0.494778 0.426387 0.552360 0.126926
H11   H     H_    0.088736 0.932570 0.420477 0.135168
H12   H     H_    0.994795 0.926360 0.552366 0.126841
H13   H     H_    0.758798 0.539977 0.592700 0.127803
H14   H     H_    0.378603 0.374368 0.457511 0.132140
H15   H     H_    0.258813 0.039989 0.592699 0.128485
H16   H     H_    0.878616 0.874145 0.457546 0.132061
H17   H     H_    0.778971 0.599893 0.468156 0.109841
H18   H     H_    0.361746 0.429641 0.584524 0.124134
H19   H     H_    0.278992 0.099893 0.468152 0.110050
H20   H     H_    0.861755 0.929529 0.584541 0.123776
H21   H     H_    0.750802 0.135789 0.381721 0.102049
H22   H     H_    0.158995 0.181347 0.575411 0.093442
H23   H     H_    0.250824 0.635745 0.381754 0.100892
H24   H     H_    0.659004 0.681353 0.575420 0.093207
H25   H     H_    0.719722 0.080841 0.500727 0.115629
H26   H     H_    0.159632 0.157365 0.445310 0.106981
H27   H     H_    0.219743 0.580858 0.500755 0.115455
H28   H     H_    0.659594 0.657375 0.445323 0.106812
H29   H     H_    0.806825 0.143037 0.534540 0.167782
H30   H     H_    0.094893 0.283166 0.435366 0.156267
H31   H     H_    0.306845 0.643084 0.534564 0.167817
H32   H     H_    0.594865 0.783199 0.435399 0.156607
H33   H     H_    0.573801 0.149258 0.094140 0.119596
H34   H     H_    0.423238 0.183503 0.903775 0.121105
H35   H     H_    0.075089 0.667144 0.093748 0.103937
H36   H     H_    0.924945 0.691662 0.905743 0.097371
H37   H     H_    0.890071 0.447269 0.042438 0.119876
H38   H     H_    0.112665 0.434813 0.956166 0.126523
H39   H     H_    0.391298 0.972561 0.037015 0.116930
H40   H     H_    0.609168 0.950937 0.959300 0.109263
H41   H     H_    0.106209 0.000436 0.078762 0.130106
H42   H     H_    0.889333 0.054604 0.930117 0.137743
H43   H     H_    0.611161 0.559910 0.068657 0.138760
H44   H     H_    0.314359 0.671834 0.956367 0.153937
H45   H     H_    0.640632 0.399417 0.083467 0.146761
H46   H     H_    0.388523 0.565433 0.932677 0.140161
H47   H     H_    0.154929 0.853288 0.087136 0.142303
H48   H     H_    0.857638 0.895175 0.915576 0.143349
H49   H     H_    0.620627 0.355944 0.959596 0.151649
H50   H     H_    0.407762 0.524804 0.056483 0.148926
H51   H     H_    0.133071 0.812661 0.963470 0.136010
H52   H     H_    0.878661 0.852064 0.039249 0.147555
H53   H     H_    0.591121 0.516436 0.944963 0.141752
H54   H     H_    0.333990 0.631305 0.080369 0.141669
H55   H     H_    0.085098 0.961040 0.954934 0.150396
H56   H     H_    0.909949 0.011788 0.053720 0.139573
H57   H     H_    0.483606 0.986106 0.566554 0.171880
H58   H     H_    0.471683 0.975438 0.437249 0.162752
H59   H     H_    0.983588 0.486112 0.566556 0.171811
H60   H     H_    0.971664 0.475441 0.437252 0.162620
O1    O     O_R   0.784290 0.290360 0.830540 -0.471395
O2    O     O_R   0.215710 0.290360 0.169460 -0.488635
O3    O     O_R   0.284290 0.790360 0.830540 -0.488199
O4    O     O_R   0.715710 0.790360 0.169460 -0.468242
O5    O     O_R   0.554690 0.080440 0.673480 -0.488655
O6    O     O_R   0.445310 0.080440 0.326520 -0.514835
O7    O     O_R   0.054690 0.580440 0.673480 -0.487210
O8    O     O_R   0.945310 0.580440 0.326520 -0.513836
O9    O     O_R   0.543980 0.282110 0.666770 -0.532023
O10   O     O_R   0.456020 0.282110 0.333230 -0.539131
O11   O     O_R   0.043980 0.782110 0.666770 -0.532092
O12   O     O_R   0.956020 0.782110 0.333230 -0.538583
O13   O     O_R   0.679070 0.374030 0.674430 -0.506594
O14   O     O_R   0.320930 0.374030 0.325570 -0.525164
O15   O     O_R   0.179070 0.874030 0.674430 -0.505648
O16   O     O_R   0.820930 0.874030 0.325570 -0.523618
O17   O     O_3   0.665360 0.165350 0.749070 -0.287208
O18   O     O_3   0.334640 0.165350 0.250930 -0.281043
O19   O     O_3   0.165360 0.665350 0.749070 -0.286038
O20   O     O_3   0.834640 0.665350 0.250930 -0.283807
O21   O     O_R   0.762610 0.041070 0.825230 -0.500813
O22   O     O_R   0.237390 0.041070 0.174770 -0.500384
O23   O     O_R   0.262610 0.541070 0.825230 -0.499199
O24   O     O_R   0.737390 0.541070 0.174770 -0.498511
O25   O     O_R   0.667390 0.924160 0.829970 -0.518024
O26   O     O_R   0.332610 0.924160 0.170030 -0.526823
O27   O     O_R   0.167390 0.424160 0.829970 -0.519219
O28   O     O_R   0.832610 0.424160 0.170030 -0.523493
O29   O     O_R   0.553980 0.081420 0.821780 -0.516370
O30   O     O_R   0.446020 0.081420 0.178220 -0.513597
O31   O     O_R   0.053980 0.581420 0.821780 -0.513950
O32   O     O_R   0.946020 0.581420 0.178220 -0.508591
O33   O     O_R   0.543210 0.283170 0.826740 -0.517604
O34   O     O_R   0.456790 0.283170 0.173260 -0.511278
O35   O     O_R   0.043210 0.783170 0.826740 -0.521125
O36   O     O_R   0.956790 0.783170 0.173260 -0.519979
O37   O     O_R   0.678350 0.375000 0.822720 -0.504932
O38   O     O_R   0.321650 0.375000 0.177280 -0.503571
O39   O     O_R   0.178350 0.875000 0.822720 -0.501464
O40   O     O_R   0.821650 0.875000 0.177280 -0.508485
O41   O     O_R   0.785060 0.289300 0.670580 -0.518706
O42   O     O_R   0.214940 0.289300 0.329420 -0.512553
O43   O     O_R   0.285060 0.789300 0.670580 -0.517690
O44   O     O_R   0.714940 0.789300 0.329420 -0.510558
O45   O     O_R   0.763330 0.040090 0.676940 -0.523670
O46   O     O_R   0.236670 0.040090 0.323060 -0.533490
O47   O     O_R   0.263330 0.540090 0.676940 -0.522820
O48   O     O_R   0.736670 0.540090 0.323060 -0.534332
O49   O     O_R   0.668160 0.923110 0.670000 -0.470354
O50   O     O_R   0.331840 0.923110 0.330000 -0.476388
O51   O     O_R   0.168160 0.423110 0.670000 -0.469748
O52   O     O_R   0.831840 0.423110 0.330000 -0.475410
O53   O     O_3   0.849490 0.220480 0.416577 -0.547787
C113  C     C_3   0.880574 0.145475 0.364411 0.014912
H61   H     H_    0.852235 0.153173 0.312265 0.146481
H62   H     H_    0.880472 0.050125 0.382808 0.153209
C114  C     C_3   0.957259 0.183844 0.353504 -0.369001
H63   H     H_    0.987197 0.174002 0.404263 0.133923
H64   H     H_    0.982204 0.125431 0.312231 0.084712
H65   H     H_    0.959735 0.279894 0.335847 0.172201
O54   O     O_3   0.070992 0.303405 0.567478 -0.536494
C115  C     C_3   0.025701 0.202979 0.578886 -0.032201
H66   H     H_    0.046029 0.146152 0.623613 0.130937
H67   H     H_    0.021011 0.146660 0.529694 0.125396
C116  C     C_3   0.951627 0.246198 0.598368 -0.352164
H68   H     H_    0.927037 0.294190 0.552439 0.177222
H69   H     H_    0.917923 0.166851 0.611888 0.107932
H70   H     H_    0.954104 0.307847 0.645359 0.164743
O55   O     O_3   0.349512 0.720462 0.416605 -0.547299
C117  C     C_3   0.380536 0.645802 0.364230 0.014126
H71   H     H_    0.352114 0.653782 0.312143 0.143713
H72   H     H_    0.380494 0.550340 0.382435 0.153435
C118  C     C_3   0.457190 0.684315 0.353281 -0.368742
H73   H     H_    0.487224 0.674130 0.403963 0.134226
H74   H     H_    0.482078 0.626227 0.311814 0.085005
H75   H     H_    0.459608 0.780492 0.335853 0.171460
O56   O     O_3   0.571002 0.803435 0.567534 -0.536535
C119  C     C_3   0.525711 0.703028 0.579002 -0.032229
H76   H     H_    0.546170 0.646014 0.623587 0.130499
H77   H     H_    0.520818 0.646893 0.529754 0.125719
C120  C     C_3   0.451734 0.746284 0.598838 -0.352461
H78   H     H_    0.426960 0.794375 0.553045 0.177333
H79   H     H_    0.418059 0.666946 0.612448 0.108117
H80   H     H_    0.454433 0.807843 0.645860 0.162503
O57   O     O_3   0.883348 0.405868 0.898009 -0.535647
C121  C     C_3   0.937410 0.336145 0.930334 -0.008610
H81   H     H_    0.915484 0.264869 0.966191 0.119643
H82   H     H_    0.973681 0.396715 0.960761 0.140050
C122  C     C_3   0.980357 0.273400 0.872408 -0.354830
H83   H     H_    0.004773 0.341942 0.836740 0.182293
H84   H     H_    0.023102 0.218143 0.897116 0.080346
H85   H     H_    0.945438 0.212922 0.840208 0.154738
O58   O     O_3   0.117162 0.397952 0.095351 -0.544885
C123  C     C_3   0.084623 0.286287 0.077200 0.008641
H86   H     H_    0.123758 0.210902 0.078491 0.157629
H87   H     H_    0.060147 0.289444 0.023340 0.096959
C124  C     C_3   0.026341 0.258901 0.130747 -0.357291
H88   H     H_    0.049120 0.252917 0.185441 0.159534
H89   H     H_    0.985695 0.331788 0.129458 0.170785
H90   H     H_    0.000557 0.171119 0.117098 0.073140
O59   O     O_3   0.380544 0.928047 0.893156 -0.542708
C125  C     C_3   0.438114 0.860743 0.920754 -0.010488
H91   H     H_    0.422790 0.796594 0.963878 0.108326
H92   H     H_    0.478559 0.924669 0.941090 0.135803
C126  C     C_3   0.471549 0.787449 0.860745 -0.344233
H93   H     H_    0.489398 0.848787 0.817404 0.176830
H94   H     H_    0.518081 0.736666 0.881578 0.081353
H95   H     H_    0.432404 0.721847 0.838598 0.156063
O60   O     O_3   0.617813 0.908790 0.104158 -0.542162
C127  C     C_3   0.560733 0.844663 0.072973 -0.007871
H96   H     H_    0.578604 0.776659 0.032679 0.117389
H97   H     H_    0.523683 0.910514 0.048707 0.124892
C128  C     C_3   0.520694 0.777365 0.131103 -0.350850
H98   H     H_    0.556274 0.710912 0.157650 0.151545
H99   H     H_    0.500755 0.842513 0.171674 0.176952
H100  H     H_    0.474847 0.728217 0.107266 0.079062

loop_
_geom_bond_atom_site_label_1
_geom_bond_atom_site_label_2
_ccdc_geom_bond_type
Cr12  O36   S    
C55   C59   A    
C53   C69   A    
C124  H90   S    
C49   H7    S    
Cr4   O44   S    
C92   O48   A    
C122  H85   S    
C64   C84   A    
C117  H72   S    
C56   C72   A    
Cr3   O19   S    
C45   O29   A    
Cr1   O17   S    
C17   H37   S    
C65   H13   S    
O54   C115  S    
C3    O27   A    
C82   C98   S    
Cr10  O10   S    
Cr4   O20   S    
C4    O24   A    
C113  H62   S    
C2    C111  S    
C70   H18   S    
C51   C52   S    
C84   C100  S    
C50   H10   S    
C74   O54   S    
Cr11  O39   S    
C60   C76   S    
C87   O39   A    
C43   C44   A    
C94   O6    A    
Cr3   O43   S    
C37   C38   A    
C66   C82   A    
C10   C30   A    
Cr1   O41   S    
C54   C70   A    
C11   C27   S    
C68   C72   A    
Cr5   O29   S    
C28   H56   S    
C22   H46   S    
Cr7   O51   S    
C101  H34   S    
C116  H69   S    
C121  H82   S    
C68   H16   S    
C104  H35   S    
C71   H19   S    
C72   H20   S    
C49   H9    S    
C125  C126  S    
C94   O10   A    
C17   C109  A    
C57   C61   A    
C19   C111  A    
C59   C63   A    
Cr11  O19   S    
C60   C64   A    
C3    O23   A    
Cr9   O17   S    
C125  H92   S    
Cr8   O20   S    
C66   C70   A    
C43   H59   S    
C15   O59   S    
C79   H31   S    
C25   H49   S    
C23   H47   S    
C76   H24   S    
Cr10  O38   S    
C91   O47   A    
C73   C77   S    
C114  H64   S    
C75   C79   S    
C104  C107  D    
C55   C71   A    
C6    C22   S    
Cr8   O28   S    
C39   C51   S    
C4    C109  S    
C67   C83   A    
Cr6   O6    S    
C33   C94   S    
C51   H5    S    
C35   C96   S    
C116  H68   S    
C33   C42   A    
Cr11  O15   S    
C55   C90   S    
C1    C112  S    
O56   C119  S    
C3    C110  S    
C32   C88   S    
C91   O51   A    
C118  H73   S    
C57   C73   S    
C77   H29   S    
C23   H41   S    
Cr12  O40   S    
C61   C77   S    
C107  C108  S    
C88   O40   A    
C2    O22   A    
C67   H15   S    
C29   C85   S    
O53   C113  S    
Cr4   O48   S    
C128  H99   S    
Cr6   O18   S    
C85   O1    A    
C1    O25   A    
C97   O13   A    
C39   C40   A    
C87   O3    A    
C117  C118  S    
C108  H4    S    
C73   H21   S    
Cr1   O21   S    
C5    C9    A    
O60   C127  S    
C13   O57   S    
Cr3   O3    S    
C66   H14   S    
Cr5   O49   S    
C8    C12   A    
Cr1   O1    S    
Cr12  O12   S    
C126  H93   S    
C5    C21   S    
C19   H39   S    
Cr10  O14   S    
C120  H79   S    
Cr4   O24   S    
Cr5   O5    S    
C100  O16   A    
C56   C89   S    
C74   C78   S    
C52   H12   S    
C58   C74   S    
C101  C106  D    
C21   C25   S    
C115  H66   S    
C116  H70   S    
C114  H65   S    
Cr9   O33   S    
C62   C78   S    
C76   C80   S    
C75   O55   S    
Cr1   O45   S    
C119  H76   S    
C93   O5    A    
C124  H89   S    
Cr7   O27   S    
C13   C17   A    
C118  H75   S    
C96   O8    A    
Cr5   O25   S    
C22   H44   S    
C61   C81   A    
C9    C29   A    
C36   C95   S    
C7    C23   S    
C122  H84   S    
C24   H48   S    
C49   C50   S    
C93   O9    A    
C123  H86   S    
C90   O46   A    
C85   O37   A    
C99   O43   A    
C115  C116  S    
C58   C62   A    
C97   O41   A    
C46   O34   A    
C41   C42   A    
Cr11  O11   S    
C119  C120  S    
C9    C25   S    
C42   H58   S    
C15   C19   A    
C113  C114  S    
C12   C28   S    
C13   C29   A    
C27   H55   S    
C8    C112  A    
C127  H96   S    
C25   H53   S    
C103  H36   S    
C26   H50   S    
C69   H17   S    
C20   H40   S    
C126  H95   S    
C102  C105  D    
C100  O44   A    
Cr11  O35   S    
C20   C112  A    
C123  C124  S    
C47   O31   A    
Cr2   O18   S    
C62   C82   A    
C83   C99   S    
O57   C121  S    
C64   C80   S    
C121  C122  S    
C41   H57   S    
C34   C41   A    
Cr9   O9    S    
C47   C103  S    
C68   C84   A    
C24   C28   S    
C31   C87   S    
C127  C128  S    
C27   H51   S    
C53   C57   A    
C28   H52   S    
C75   H23   S    
C33   C37   A    
C56   C60   A    
C63   C83   A    
C35   C39   A    
C105  H1    S    
O59   C125  S    
Cr2   O42   S    
C37   C49   S    
C65   C81   A    
Cr7   O19   S    
Cr6   O30   S    
C15   C31   A    
C50   H8    S    
C14   O58   S    
C86   O2    A    
C16   C32   A    
C77   H25   S    
C48   O36   A    
C113  H61   S    
C95   O11   A    
C74   H22   S    
C78   H30   S    
C18   C110  A    
C6    C10   A    
C105  C106  S    
Cr12  O16   S    
Cr2   O2    S    
C107  H3    S    
Cr10  O18   S    
C54   C91   S    
C18   H38   S    
O55   C117  S    
C5    C109  A    
C65   C69   A    
C7    C111  A    
C67   C71   A    
C92   O52   A    
C96   O12   A    
C22   C26   S    
C99   O15   A    
Cr9   O37   S    
C121  H81   S    
C36   C43   A    
C76   O56   S    
C48   O32   A    
Cr7   O31   S    
Cr3   O23   S    
C45   O33   A    
C128  H98   S    
C14   C18   A    
C24   H42   S    
C34   C93   S    
C63   C79   S    
C7    C11   A    
Cr4   O4    S    
C117  H71   S    
Cr12  O20   S    
Cr7   O7    S    
C114  H63   S    
Cr8   O8    S    
C125  H91   S    
C21   H45   S    
C89   O49   A    
C48   C104  S    
C90   O50   A    
C8    C24   S    
C51   H11   S    
C46   O30   A    
C103  C108  D    
C23   C27   S    
C30   C86   S    
C1    O21   A    
C120  H78   S    
C44   H60   S    
Cr3   O47   S    
C16   C20   A    
C10   C26   S    
C11   C31   A    
C46   C102  S    
C12   C32   A    
C6    C110  A    
C14   C30   A    
Cr5   O17   S    
C102  H33   S    
C80   H32   S    
C26   H54   S    
C115  H67   S    
C2    O26   A    
C98   O14   A    
C36   C40   A    
C21   H43   S    
C119  H77   S    
C124  H88   S    
C40   C52   S    
C47   O35   A    
Cr2   O22   S    
C118  H74   S    
C73   O53   S    
Cr6   O50   S    
C53   C92   S    
C122  H83   S    
C35   C44   A    
Cr9   O13   S    
C106  H2    S    
C45   C101  S    
C128  H100  S    
C123  H87   S    
C59   C75   S    
C78   H26   S    
C79   H27   S    
C54   C58   A    
C80   H28   S    
Cr10  O34   S    
C34   C38   A    
Cr2   O46   S    
C38   C50   S    
C95   O7    A    
Cr8   O32   S    
C4    O28   A    
C16   O60   S    
Cr6   O26   S    
C52   H6    S    
Cr8   O52   S    
C127  H97   S    
C81   C97   S    
C126  H94   S    
C120  H80   S    
C88   O4    A    
C86   O38   A    
C89   O45   A    
O58   C123  S    
C98   O42   A    
