data_mof_unit_6644.cif
_audit_creation_date              2012-12-11T14:21:08-0500
_audit_creation_method            fapswitch 2.2
_symmetry_space_group_name_H-M    P1
_symmetry_Int_Tables_number       1
_space_group_crystal_system       triclinic
_cell_length_a                    11.54896
_cell_length_b                    11.695845
_cell_length_c                    19.54202
_cell_angle_alpha                 90.0611
_cell_angle_beta                  89.574741
_cell_angle_gamma                 60.450837
_cell_volume                      2296.20834578

loop_
_atom_site_label
_atom_site_type_symbol
_atom_type_description
_atom_site_fract_x
_atom_site_fract_y
_atom_site_fract_z
_atom_type_partial_charge
C1    C     C_R   0.640119 0.115878 0.599365 0.557719
C2    C     C_1   0.640384 0.704103 0.667897 0.012298
C3    C     C_1   0.126190 0.200895 0.859334 0.006042
C4    C     C_1   0.171524 0.169966 0.727739 -0.027715
C5    C     C_1   0.149941 0.183566 0.798992 -0.029172
C6    C     C_1   0.195539 0.159656 0.667337 0.008926
C7    C     C_1   0.678910 0.192045 0.860767 0.003718
C8    C     C_1   0.659009 0.166005 0.729028 -0.027055
C9    C     C_1   0.666096 0.180852 0.800361 -0.028944
C10   C     C_1   0.653265 0.147911 0.668690 0.010743
C11   C     C_R   0.693330 0.567474 0.206419 -0.019554
C12   C     C_R   0.612010 0.746320 0.598569 0.569950
C13   C     C_R   0.563480 0.622387 0.235202 0.015837
C14   C     C_R   0.535540 0.704160 0.290975 0.007112
C15   C     C_R   0.773450 0.590896 0.316927 0.159437
C16   C     C_R   0.800176 0.538758 0.250396 0.107041
C17   C     C_R   0.461215 0.598245 0.210919 -0.075803
C18   C     C_R   0.332586 0.666454 0.237044 -0.137973
C19   C     C_R   0.300849 0.766487 0.283584 -0.092764
C20   C     C_R   0.399913 0.791852 0.305585 -0.062570
C21   C     C_R   0.642821 0.685968 0.333658 0.013919
C22   C     C_R   0.169367 0.170186 0.184302 0.012832
C23   C     C_R   0.241602 0.144460 0.598084 0.563388
C24   C     C_R   0.266594 0.201849 0.203138 -0.011258
C25   C     C_R   0.293452 0.204172 0.273574 0.004392
C26   C     C_R   0.170824 0.090003 0.299089 -0.124163
C27   C     C_R   0.131634 0.101546 0.231389 0.098865
C28   C     C_R   0.320437 0.251973 0.154365 -0.110471
C29   C     C_R   0.368790 0.333378 0.175659 -0.143378
C30   C     C_R   0.374754 0.354344 0.245214 -0.149232
C31   C     C_R   0.348209 0.283150 0.293354 -0.095088
C32   C     C_R   0.252047 0.139312 0.321420 -0.030837
C33   C     C_R   0.674073 0.194204 0.196012 -0.022689
C34   C     C_R   0.648035 0.110217 0.402899 0.568803
C35   C     C_R   0.701310 0.068969 0.215874 0.022908
C36   C     C_R   0.732911 0.035205 0.284733 -0.005018
C37   C     C_R   0.650827 0.262932 0.315134 0.116136
C38   C     C_R   0.662477 0.285076 0.246234 -0.152372
C39   C     C_R   0.732251 0.969691 0.166928 -0.074355
C40   C     C_R   0.834245 0.844363 0.180507 -0.117800
C41   C     C_R   0.892635 0.816873 0.245017 -0.133291
C42   C     C_R   0.836171 0.906751 0.298211 -0.071883
C43   C     C_R   0.680314 0.137142 0.334668 0.016283
C44   C     C_R   0.080684 0.232549 0.928600 0.542898
C45   C     C_R   0.611883 0.746546 0.400444 0.589273
C46   C     C_R   0.684316 0.604202 0.929542 0.556347
C47   C     C_R   0.708908 0.207551 0.930082 0.546811
C48   C     C_R   0.086997 0.231689 0.123376 0.549609
C49   C     C_R   0.710443 0.543564 0.132370 0.581746
C50   C     C_R   0.708717 0.213497 0.127240 0.519361
C51   C     C_R   0.294979 0.119434 0.393570 0.526130
C52   C     C_1   0.671477 0.646095 0.860125 0.003684
C53   C     C_1   0.654459 0.683666 0.728330 -0.027758
C54   C     C_1   0.664106 0.666399 0.799630 -0.029944
Cr1   Cr    Cr6+3 0.404720 0.198220 0.499960 1.074977
Cr2   Cr    Cr6+3 0.698290 0.897110 0.500380 1.066591
Cr3   Cr    Cr6+3 0.396970 0.904720 0.499610 1.050890
Cr4   Cr    Cr6+3 0.926180 0.151990 0.028120 0.994300
Cr5   Cr    Cr6+3 0.921330 0.451820 0.027470 1.016504
Cr6   Cr    Cr6+3 0.626260 0.446870 0.028710 0.999660
H1    H     H_    0.395708 0.384356 0.138265 0.127004
H2    H     H_    0.404664 0.422477 0.262975 0.156279
H3    H     H_    0.362023 0.301218 0.345467 0.190735
H4    H     H_    0.696788 0.993175 0.114858 0.124662
H5    H     H_    0.665404 0.371015 0.231869 0.130697
H6    H     H_    0.876307 0.775670 0.138423 0.112547
H7    H     H_    0.987806 0.732118 0.253283 0.094230
H8    H     H_    0.889084 0.879762 0.345969 0.164640
H9    H     H_    0.480290 0.522178 0.174144 0.142130
H10   H     H_    0.257133 0.644267 0.219474 0.088779
H11   H     H_    0.199799 0.824528 0.302360 0.127229
H12   H     H_    0.370726 0.875194 0.337477 0.143990
H13   H     H_    0.134386 0.044408 0.335076 0.154391
H14   H     H_    0.310650 0.241435 0.099974 0.126692
O1    O     O_R   0.267740 0.231960 0.575440 -0.486239
O2    O     O_R   0.685970 0.784660 0.430010 -0.468497
O3    O     O_R   0.502530 0.767000 0.423990 -0.510815
O4    O     O_R   0.288330 0.026350 0.429250 -0.518937
O5    O     O_3   0.499990 0.000020 0.499980 -0.306123
O6    O     O_R   0.821500 0.119340 0.952830 -0.505624
O7    O     O_R   0.037130 0.162530 0.957360 -0.494881
O8    O     O_R   0.056440 0.344740 0.951340 -0.510602
O9    O     O_R   0.797900 0.560360 0.957470 -0.491856
O10   O     O_R   0.596130 0.579390 0.952730 -0.501321
O11   O     O_R   0.639060 0.321160 0.958670 -0.493792
O12   O     O_R   0.527280 0.186640 0.570530 -0.483806
O13   O     O_R   0.821240 0.124200 0.104370 -0.534425
O14   O     O_R   0.036890 0.167040 0.097840 -0.505256
O15   O     O_R   0.056180 0.349610 0.102880 -0.518337
O16   O     O_R   0.797660 0.564870 0.097950 -0.483626
O17   O     O_R   0.595880 0.584250 0.104270 -0.537558
O18   O     O_R   0.638830 0.325670 0.099150 -0.542716
O19   O     O_3   0.824590 0.350230 0.028100 -0.275327
O20   O     O_R   0.728090 0.003450 0.576380 -0.501182
O21   O     O_R   0.682970 0.789190 0.570490 -0.482905
O22   O     O_R   0.499290 0.771880 0.575530 -0.493181
O23   O     O_R   0.285330 0.030870 0.569730 -0.490646
O24   O     O_R   0.270980 0.227080 0.423890 -0.479814
O25   O     O_R   0.530280 0.182120 0.430050 -0.499148
O26   O     O_R   0.731330 0.998570 0.424830 -0.532663
Br1   Br    Br    0.909963 0.521458 0.386345 -0.475955
Br2   Br    Br    0.608611 0.400259 0.380724 -0.488033
N1    N     N_2   0.931777 0.447592 0.230372 -0.491082
H15   H     H_    0.974204 0.367239 0.262121 0.280112
C55   C     C_3   0.014103 0.507201 0.222239 -0.256822
H16   H     H_    0.109784 0.439574 0.200533 0.176980
H17   H     H_    0.035231 0.536819 0.272150 0.169346
H18   H     H_    0.969787 0.585716 0.184355 0.158268
N2    N     N_2   0.046598 0.050656 0.213735 -0.506464
H19   H     H_    0.947806 0.118915 0.207939 0.284932
C56   C     C_3   0.101757 0.935645 0.169430 -0.249206
H20   H     H_    0.085574 0.859309 0.193396 0.127818
H21   H     H_    0.209786 0.896365 0.159538 0.152241
H22   H     H_    0.051437 0.957426 0.119449 0.189095

loop_
_geom_bond_atom_site_label_1
_geom_bond_atom_site_label_2
_ccdc_geom_bond_type
C18   H10   S    
Cr2   O21   S    
C22   C48   S    
C25   C31   A    
Cr2   O2    S    
C11   C13   A    
C41   C42   A    
Cr3   O5    S    
C19   H11   S    
C19   C20   A    
Cr5   O8    S    
C49   O16   A    
C2    C12   S    
Cr4   O13   S    
C41   H7    S    
C53   C54   S    
C26   C32   A    
C39   H4    S    
C55   H17   S    
C26   C27   A    
C29   C30   A    
Cr2   O5    S    
C45   O2    A    
C47   O11   A    
C14   C21   A    
C28   C29   A    
Cr4   O19   S    
Cr5   O9    S    
C44   O8    A    
N2    C56   S    
C30   C31   A    
C15   C16   A    
C46   C52   S    
C26   H13   S    
C18   C19   A    
Cr5   O15   S    
C36   C42   A    
C56   H21   S    
C35   C36   A    
C8    C9    S    
Cr3   O22   S    
C34   O26   A    
C48   O14   A    
C12   O21   A    
Cr4   O6    S    
Cr1   O1    S    
Cr6   O19   S    
C51   O24   A    
C28   H14   S    
C40   H6    S    
C13   C14   A    
C42   H8    S    
Cr2   O20   S    
C47   O6    A    
C49   O17   A    
C52   C54   T    
C34   O25   A    
C21   C45   S    
Cr6   O18   S    
C55   H18   S    
C29   H1    S    
C3    C44   S    
C34   C43   S    
Cr3   O3    S    
C24   C25   A    
C4    C6    T    
C44   O7    A    
Cr4   O7    S    
C39   C40   A    
C1    O20   A    
C33   C50   S    
Cr5   O16   S    
C7    C47   S    
C37   C43   A    
C35   C39   A    
C32   C51   S    
C37   C38   A    
C11   C49   S    
C14   C20   A    
Cr1   O5    S    
C11   C16   A    
C16   N1    S    
C38   H5    S    
Cr3   O23   S    
C17   C18   A    
N1    C55   S    
C15   Br1   S    
C50   O13   A    
C46   O10   A    
C50   O18   A    
C40   C41   A    
C23   O23   A    
C48   O15   A    
C30   H2    S    
C22   C24   A    
Cr2   O26   S    
Cr6   O17   S    
C1    O12   A    
C7    C9    T    
C17   H9    S    
C56   H20   S    
Cr3   O4    S    
C12   O22   A    
C1    C10   S    
C24   C28   A    
C23   O1    A    
C4    C5    S    
C3    C5    T    
C2    C53   T    
Cr4   O14   S    
Cr6   O11   S    
C31   H3    S    
C55   H16   S    
C33   C38   A    
C13   C17   A    
C22   C27   A    
Cr1   O12   S    
C51   O4    A    
N2    H19   S    
Cr6   O10   S    
C37   Br2   S    
C25   C32   A    
C6    C23   S    
Cr1   O24   S    
C33   C35   A    
C56   H22   S    
C46   O9    A    
C15   C21   A    
C27   N2    S    
C8    C10   T    
Cr1   O25   S    
N1    H15   S    
C20   H12   S    
C36   C43   A    
C45   O3    A    
Cr5   O19   S    
