data_mof_unit_48554.cif
_audit_creation_date              2012-12-10T19:48:00-0500
_audit_creation_method            fapswitch 2.2
_symmetry_space_group_name_H-M    P1
_symmetry_Int_Tables_number       1
_space_group_crystal_system       triclinic
_cell_length_a                    14.931904
_cell_length_b                    14.087408
_cell_length_c                    10.469076
_cell_angle_alpha                 90.64602
_cell_angle_beta                  89.032908
_cell_angle_gamma                 90.127356
_cell_volume                      2201.73102809

loop_
_atom_site_label
_atom_site_type_symbol
_atom_type_description
_atom_site_fract_x
_atom_site_fract_y
_atom_site_fract_z
_atom_type_partial_charge
C1    C     C_R   0.326660 0.499679 0.501930 0.929925
C2    C     C_R   0.578488 0.795645 0.483207 -0.091980
C3    C     C_R   0.541331 0.205538 0.595337 -0.078999
C4    C     C_R   0.421520 0.795705 0.515489 -0.150483
C5    C     C_R   0.499956 0.053489 0.499757 0.123830
C6    C     C_R   0.500019 0.946935 0.499535 0.154954
C7    C     C_R   0.512602 0.499495 0.258329 0.910059
C8    C     C_R   0.482255 0.500503 0.739122 0.928771
C9    C     C_R   0.557227 0.671511 0.101471 0.388985
C10   C     C_R   0.425185 0.328855 0.890788 0.262338
C11   C     C_R   0.435257 0.674883 0.899624 0.324223
C12   C     C_R   0.672846 0.500204 0.502797 0.915715
C13   C     C_R   0.545066 0.322756 0.094632 0.270995
C14   C     C_R   0.528714 0.759656 0.053353 0.331798
C15   C     C_R   0.450924 0.240618 0.941086 0.363370
C16   C     C_R   0.461887 0.761299 0.959413 0.236288
C17   C     C_R   0.512385 0.237533 0.040235 0.351862
C18   C     C_R   0.469804 0.587837 0.943237 -0.070671
C19   C     C_R   0.511981 0.411719 0.052618 -0.144707
C20   C     C_R   0.518219 0.586208 0.055664 -0.112573
C21   C     C_R   0.463456 0.414211 0.939957 -0.154505
C22   C     C_R   0.459264 0.501516 0.875725 -0.061211
C23   C     C_R   0.046957 0.503488 0.578503 0.021510
C24   C     C_R   0.525944 0.498579 0.119245 -0.065295
C25   C     C_R   0.088603 0.583664 0.527615 -0.265905
C26   C     C_R   0.912731 0.424632 0.501401 -0.152313
C27   C     C_R   0.897620 0.569870 0.626375 -0.273576
C28   C     C_R   0.096082 0.422522 0.605057 -0.175005
C29   C     C_R   0.180041 0.582445 0.498104 0.423873
C30   C     C_R   0.823125 0.426747 0.471732 0.372623
C31   C     C_R   0.806026 0.571897 0.602177 0.416363
C32   C     C_R   0.185990 0.418079 0.572625 0.346331
C33   C     C_R   0.229510 0.499099 0.520896 -0.209608
C34   C     C_R   0.950384 0.497043 0.575078 0.012121
C35   C     C_R   0.768838 0.500768 0.522541 -0.221047
C36   C     C_R   0.457346 0.103563 0.402040 0.344267
C37   C     C_R   0.580556 0.896024 0.482444 0.360233
C38   C     C_R   0.542107 0.105235 0.598027 0.355241
C39   C     C_R   0.419472 0.896004 0.516284 0.361106
C40   C     C_R   0.458271 0.203919 0.404891 -0.103972
H1    H     H_    0.048823 0.645014 0.503594 0.153762
H2    H     H_    0.360724 0.837011 0.907714 0.358215
H3    H     H_    0.379845 0.166346 0.820319 0.390378
H4    H     H_    0.541527 0.898060 0.058227 0.428545
H5    H     H_    0.648598 0.729714 0.209823 0.377585
H6    H     H_    0.334188 0.394105 0.793832 0.357238
H7    H     H_    0.373026 0.733808 0.759551 0.342353
H8    H     H_    0.647144 0.378272 0.178846 0.333730
H9    H     H_    0.176877 0.711899 0.433781 0.335454
H10   H     H_    0.743457 0.384276 0.339723 0.345084
H11   H     H_    0.788682 0.684797 0.709383 0.340298
H12   H     H_    0.954568 0.369712 0.458429 0.179261
H13   H     H_    0.248969 0.310609 0.505393 0.350671
H14   H     H_    0.389811 0.099111 0.244980 0.361307
H15   H     H_    0.709391 0.899196 0.452961 0.343078
H16   H     H_    0.607237 0.103529 0.757171 0.358761
H17   H     H_    0.290569 0.899072 0.545366 0.341586
H18   H     H_    0.928213 0.625551 0.683210 0.157802
H19   H     H_    0.062861 0.359859 0.642229 0.184519
H20   H     H_    0.425807 0.243437 0.330779 0.141338
H21   H     H_    0.639907 0.756140 0.469635 0.175927
H22   H     H_    0.573581 0.246282 0.669802 0.145236
H23   H     H_    0.360076 0.756335 0.528492 0.197419
H24   H     H_    0.578928 0.156245 0.155312 0.388985
N1    N     N_R   0.500000 0.252470 0.500000 -0.096450
N2    N     N_R   0.500000 0.747530 0.500000 -0.112360
O1    O     O_R   0.369060 0.579480 0.500010 -0.562561
O2    O     O_3   0.424479 0.847412 0.928425 -0.710000
O3    O     O_3   0.418699 0.155156 0.894286 -0.658555
O4    O     O_3   0.563625 0.842382 0.105056 -0.730174
O5    O     O_3   0.625552 0.665602 0.188900 -0.752754
O6    O     O_3   0.360440 0.329714 0.797938 -0.699769
O7    O     O_3   0.372445 0.672359 0.804132 -0.754166
O8    O     O_3   0.614254 0.317198 0.179989 -0.735334
O9    O     O_3   0.220993 0.659855 0.441690 -0.757938
O10   O     O_3   0.792478 0.357247 0.389663 -0.706727
O11   O     O_3   0.751849 0.641501 0.656371 -0.745871
O12   O     O_R   0.630940 0.420520 0.499990 -0.603167
O13   O     O_3   0.228779 0.333196 0.591165 -0.692569
O14   O     O_3   0.416512 0.053503 0.304865 -0.684782
O15   O     O_3   0.659648 0.945283 0.463636 -0.708936
O16   O     O_3   0.582129 0.056855 0.695769 -0.684011
O17   O     O_3   0.340345 0.945201 0.534876 -0.713974
O18   O     O_R   0.630940 0.579480 0.499990 -0.560800
O19   O     O_R   0.369060 0.420520 0.500010 -0.612516
O20   O     O_R   0.499990 0.579480 0.316780 -0.571817
O21   O     O_R   0.500010 0.420520 0.683220 -0.607994
O22   O     O_R   0.500010 0.579480 0.683220 -0.571698
O23   O     O_R   0.499990 0.420520 0.316780 -0.608117
O24   O     O_3   0.539841 0.149210 0.080362 -0.670574
Zn1   Zn    Zn3+2 0.500000 0.606140 0.500000 1.038905
Zn2   Zn    Zn3+2 0.500000 0.393860 0.500000 1.011246

loop_
_geom_bond_atom_site_label_1
_geom_bond_atom_site_label_2
_ccdc_geom_bond_type
N1    Zn2   S    
C11   C18   A    
C40   H20   S    
H5    O5    S    
H24   O24   S    
C1    C33   S    
C4    H23   S    
C30   C35   A    
H13   O13   S    
H10   O10   S    
O20   Zn1   S    
C5    C6    S    
C28   H19   S    
C7    O20   A    
C7    C24   S    
C7    O23   A    
C5    C36   A    
C29   C33   A    
C12   O18   A    
C25   C29   A    
C26   C34   A    
C20   C24   A    
C3    C38   A    
C12   O12   A    
C8    C22   S    
H17   O17   S    
H4    O4    S    
C16   O2    S    
O18   Zn1   S    
H15   O15   S    
H6    O6    S    
C2    H21   S    
H3    O3    S    
C21   C22   A    
C38   O16   S    
H2    O2    S    
C14   O4    S    
C37   O15   S    
C27   C34   A    
C3    N1    A    
O1    Zn1   S    
O19   Zn2   S    
C31   O11   S    
H14   O14   S    
C10   C21   A    
C1    O19   A    
C15   O3    S    
C13   C19   A    
C27   C31   A    
H8    O8    S    
C28   C32   A    
C5    C38   A    
H7    O7    S    
C11   O7    S    
C25   H1    S    
O12   Zn2   S    
O23   Zn2   S    
C9    C14   A    
H11   O11   S    
C26   H12   S    
C30   O10   S    
C11   C16   A    
C9    C20   A    
C4    C39   A    
C36   C40   A    
C23   C34   S    
H9    O9    S    
C6    C37   A    
C23   C28   A    
C12   C35   S    
C26   C30   A    
C40   N1    A    
C36   O14   S    
C14   C16   A    
C3    H22   S    
C15   C17   A    
C19   C21   A    
C18   C22   A    
C17   O24   S    
C9    O5    S    
C2    N2    A    
C27   H18   S    
H16   O16   S    
N2    Zn1   S    
C29   O9    S    
C13   C17   A    
C10   C15   A    
C8    O21   A    
C32   C33   A    
C19   C24   A    
C39   O17   S    
C32   O13   S    
C4    N2    A    
C2    C37   A    
O22   Zn1   S    
C31   C35   A    
C1    O1    A    
C18   C20   A    
C23   C25   A    
C13   O8    S    
C6    C39   A    
C8    O22   A    
O21   Zn2   S    
C10   O6    S    
