data_mof_unit_45924.cif
_audit_creation_date              2013-03-05T15:43:04-0500
_audit_creation_method            fapswitch 2.2
_symmetry_space_group_name_H-M    P1
_symmetry_Int_Tables_number       1
_space_group_crystal_system       triclinic
_cell_length_a                    9.709158
_cell_length_b                    10.909288
_cell_length_c                    15.474514
_cell_angle_alpha                 90.046487
_cell_angle_beta                  73.881459
_cell_angle_gamma                 90.177097
_cell_volume                      1574.62050103

loop_
_atom_site_label
_atom_site_type_symbol
_atom_site_description
_atom_site_fract_x
_atom_site_fract_y
_atom_site_fract_z
_atom_type_partial_charge
O1    O     O_R   0.117050 0.321960 0.499980 -0.594977
O2    O     O_R   0.882890 0.321920 0.500020 -0.584129
C1    C     C_R   0.998614 0.265421 0.502825 0.816616
O3    O     O_R   0.052910 0.500040 0.629810 -0.594122
O4    O     O_R   0.818750 0.499990 0.629840 -0.588186
C2    C     C_R   0.916967 0.500469 0.672298 0.778508
Cu1   Cu    Cu3+1 0.138640 0.500020 0.499980 1.067812
Cu2   Cu    Cu3+1 0.861360 0.499980 0.500020 0.967088
O5    O     O_R   0.117110 0.678080 0.499980 -0.490483
O6    O     O_R   0.882950 0.678040 0.500020 -0.595178
O7    O     O_R   0.181250 0.500010 0.370160 -0.500588
O8    O     O_R   0.947090 0.499960 0.370190 -0.558006
C3    C     C_R   0.002002 0.734656 0.495766 0.741189
C4    C     C_R   0.083082 0.502601 0.327717 0.863938
C5    C     C_R   0.871298 0.503355 0.771154 -0.044982
C6    C     C_R   0.129614 0.520170 0.229447 -0.221145
C7    C     C_R   0.921543 0.485665 0.915316 -0.208509
C8    C     C_R   0.969206 0.486529 0.821657 -0.191317
C9    C     C_R   0.726353 0.522430 0.815248 -0.250107
C10   C     C_R   0.676459 0.526139 0.909518 0.087423
C11   C     C_R   0.775998 0.504058 0.959581 0.158138
C12   C     C_R   0.529726 0.547234 0.955194 0.056301
C13   C     C_R   0.481285 0.528468 0.049678 0.073966
C14   C     C_R   0.584563 0.513099 0.097633 -0.163530
C15   C     C_R   0.729275 0.501059 0.053197 -0.264355
C16   C     C_R   0.430956 0.590432 0.910174 -0.216479
C17   C     C_R   0.288569 0.611038 0.956232 -0.177002
C18   C     C_R   0.237793 0.582848 0.047324 0.046381
C19   C     C_R   0.331577 0.533369 0.093786 -0.019424
C20   C     C_R   0.093943 0.604714 0.092492 -0.326348
C21   C     C_R   0.041409 0.580627 0.184523 0.374663
C22   C     C_R   0.270737 0.487918 0.181948 0.326652
H1    H     H_    0.804770 0.487934 0.092414 0.184471
H2    H     H_    0.217326 0.648265 0.919967 0.147460
H3    H     H_    0.998301 0.469196 0.953125 0.142824
H4    H     H_    0.081864 0.471573 0.788894 0.153587
H5    H     H_    0.653071 0.530272 0.774572 0.151338
H6    H     H_    0.556638 0.515816 0.170128 0.224206
H7    H     H_    0.462084 0.615956 0.840135 0.145798
H8    H     H_    0.023168 0.645008 0.057165 0.159084
C23   C     C_2   0.888464 0.932655 0.508814 -0.296422
C24   C     C_2   0.008878 0.865817 0.478614 0.194492
H9    H     H_    0.787435 0.888527 0.542743 0.175837
C25   C     C_2   0.886202 0.066269 0.502010 -0.125439
C26   C     C_2   0.996274 0.133596 0.511622 -0.235477
H10   H     H_    0.790240 0.109119 0.493081 0.171915
H11   H     H_    0.087755 0.091088 0.526901 0.177722
C27   C     C_2   0.398778 0.436989 0.556266 -0.019039
N1    N     N_2   0.346430 0.498660 0.500980 -0.050215
H12   H     H_    0.330698 0.369574 0.599419 0.099915
C28   C     C_2   0.549433 0.451320 0.563933 -0.031520
N2    N     N_2   0.652550 0.498630 0.501000 -0.259880
H13   H     H_    0.572229 0.416519 0.624077 0.136254
H14   H     H_    0.635283 0.511208 0.439039 0.235565
N3    N     N_R   0.138300 0.916638 0.419628 0.112588
O9    O     O_R   0.263170 0.884183 0.427293 -0.306894
O10   O     O_R   0.131830 0.983825 0.351423 -0.406482
N4    N     N_R   0.412646 0.609677 0.469321 0.235409
O11   O     O_R   0.420917 0.643140 0.387434 -0.331132
O12   O     O_R   0.434345 0.691431 0.525593 -0.350959
O13   O     O_3   0.345559 0.408616 0.222158 -0.595532
C29   C     C_3   0.340409 0.289642 0.187114 0.030437
H15   H     H_    0.397286 0.287388 0.113916 0.149959
H16   H     H_    0.227222 0.259029 0.197538 0.143273
C30   C     C_3   0.414128 0.200578 0.236018 -0.290795
H17   H     H_    0.523292 0.235195 0.232755 0.218911
H18   H     H_    0.351398 0.194656 0.307914 0.251601
C31   C     C_3   0.426914 0.072961 0.194033 -0.826011
H19   H     H_    0.320029 0.038371 0.192332 0.284071
H20   H     H_    0.472428 0.008720 0.234397 0.277472
H21   H     H_    0.498958 0.075636 0.124354 0.232025
O14   O     O_3   0.901614 0.610920 0.229568 -0.597713
C32   C     C_3   0.892499 0.739179 0.242546 0.035283
H22   H     H_    0.912287 0.787530 0.176822 0.147110
H23   H     H_    0.971501 0.771473 0.278059 0.161396
C33   C     C_3   0.741987 0.771305 0.300137 -0.256530
H24   H     H_    0.661770 0.735511 0.267247 0.248285
H25   H     H_    0.722630 0.727359 0.367252 0.253779
C34   C     C_3   0.722853 0.909617 0.312350 -0.878624
H26   H     H_    0.803715 0.948125 0.343451 0.271141
H27   H     H_    0.614134 0.929533 0.356866 0.291389
H28   H     H_    0.734692 0.954698 0.246326 0.244260

loop_
_geom_bond_atom_site_label_1
_geom_bond_atom_site_label_2
_geom_bond_distance
_ccdc_geom_bond_type
C5    C8    1.400696 A    
N3    O9    1.300719 A    
C32   H23   1.116486 S    
C32   H22   1.114121 S    
C9    C10   1.404280 A    
C33   C34   1.526019 S    
Cu1   Cu2   2.691982 S    
C6    C21   1.409435 A    
Cu1   O7    1.935296 S    
C16   C17   1.387185 A    
C13   C19   1.425149 A    
C18   C19   1.415838 A    
C33   H25   1.111605 S    
C22   O13   1.385305 S    
C19   C22   1.416984 A    
O4    C2    1.299580 A    
O7    C4    1.299381 A    
C16   H7    1.077784 S    
N4    O12   1.302892 A    
C23   C24   1.348425 D    
O5    C3    1.295767 A    
C29   H16   1.115628 S    
C9    H5    1.076524 S    
C2    C5    1.470066 S    
C27   C28   1.507659 S    
C25   H10   1.086267 S    
C31   H19   1.110296 S    
C30   H18   1.111999 S    
C14   H6    1.078880 S    
C13   C14   1.413751 A    
Cu2   N2    2.023220 S    
C27   H12   1.084630 S    
C23   H9    1.086797 S    
O3    Cu1   1.949514 S    
C3    C24   1.453443 S    
N2    H14   1.027552 S    
C26   H11   1.085911 S    
C17   H2    1.084417 S    
C28   N2    1.293595 D    
C33   H24   1.111754 S    
Cu1   N1    2.021918 S    
O3    C2    1.301000 A    
C34   H27   1.110582 S    
N4    O11   1.299801 A    
C1    C26   1.444172 S    
C7    C11   1.403723 A    
N1    N4    1.393345 S    
C28   H13   1.083878 S    
C5    C9    1.399198 A    
C29   H15   1.114133 S    
C24   N3    1.441939 S    
C34   H28   1.110937 S    
Cu2   O8    1.949517 S    
C30   C31   1.526629 S    
C7    C8    1.393690 A    
C20   H8    1.084017 S    
C14   C15   1.388792 A    
Cu2   O6    1.953140 S    
C21   O14   1.383623 S    
C10   C12   1.422964 A    
N3    O10   1.301342 A    
C32   C33   1.527123 S    
C4    C6    1.473696 S    
C25   C26   1.336770 D    
Cu1   O5    1.954364 S    
C11   C15   1.393038 A    
C27   N1    1.298984 D    
C29   C30   1.528164 S    
O1    Cu1   1.953141 S    
O2    Cu2   1.954365 S    
O8    C4    1.301582 A    
O14   C32   1.412946 S    
O6    C3    1.294338 A    
O4    Cu2   1.935296 S    
C6    C22   1.408839 A    
C18   C20   1.398520 A    
O2    C1    1.294465 A    
C20   C21   1.397784 A    
C31   H21   1.110808 S    
C23   C25   1.462188 S    
O13   C29   1.412338 S    
C34   H26   1.109928 S    
C10   C11   1.417621 A    
C31   H20   1.110167 S    
C30   H17   1.111931 S    
C12   C16   1.414684 A    
C17   C18   1.392305 A    
C12   C13   1.420891 A    
C7    H3    1.083104 S    
O1    C1    1.293141 A    
C8    H4    1.083112 S    
C15   H1    1.083441 S    
