data_mof_unit_44322.cif
_audit_creation_date              2013-03-05T15:59:02-0500
_audit_creation_method            fapswitch 2.2
_symmetry_space_group_name_H-M    P1
_symmetry_Int_Tables_number       1
_space_group_crystal_system       triclinic
_cell_length_a                    15.119385
_cell_length_b                    13.898707
_cell_length_c                    19.489723
_cell_angle_alpha                 90.299383
_cell_angle_beta                  83.862419
_cell_angle_gamma                 88.310784
_cell_volume                      4070.17859296

loop_
_atom_site_label
_atom_site_type_symbol
_atom_site_description
_atom_site_fract_x
_atom_site_fract_y
_atom_site_fract_z
_atom_type_partial_charge
O1    O     O_R   0.370260 0.582280 0.500020 -0.585688
O2    O     O_R   0.629740 0.417720 0.499980 -0.581266
O3    O     O_R   0.629740 0.582280 0.499980 -0.580661
O4    O     O_R   0.370260 0.417720 0.500020 -0.577720
C1    C     C_R   0.328565 0.501474 0.504791 0.829913
C2    C     C_R   0.671412 0.498671 0.495048 0.831393
O5    O     O_R   0.499990 0.582300 0.400140 -0.583348
O6    O     O_R   0.500010 0.417700 0.599860 -0.585758
O7    O     O_R   0.500010 0.582300 0.599860 -0.587697
O8    O     O_R   0.499990 0.417700 0.400140 -0.587415
C3    C     C_R   0.495569 0.499930 0.367627 0.809715
C4    C     C_R   0.504215 0.500088 0.632395 0.811293
Cu1   Cu    Cu3+1 0.500000 0.597420 0.500000 0.918522
Cu2   Cu    Cu3+1 0.500000 0.402580 0.500000 0.922802
C5    C     C_R   0.478942 0.588061 0.254626 0.139628
C6    C     C_R   0.523765 0.411761 0.744735 0.133026
C7    C     C_R   0.514362 0.588383 0.746659 0.134745
C8    C     C_R   0.481057 0.411410 0.254157 0.123141
C9    C     C_R   0.480037 0.585901 0.182750 -0.181349
C10   C     C_R   0.522060 0.413102 0.816706 -0.176663
C11   C     C_R   0.512890 0.586102 0.818532 -0.174852
C12   C     C_R   0.482524 0.412877 0.182225 -0.171119
H1    H     H_    0.478293 0.653078 0.154903 0.160646
H2    H     H_    0.526499 0.345751 0.844052 0.160564
H3    H     H_    0.510021 0.653233 0.847305 0.160540
H4    H     H_    0.482505 0.345540 0.153963 0.159971
C13   C     C_R   0.484637 0.499195 0.146113 -0.036903
C14   C     C_R   0.514057 0.499336 0.853993 -0.040573
C15   C     C_R   0.485487 0.499787 0.291705 -0.072029
C16   C     C_R   0.513828 0.500140 0.708362 -0.066044
N1    N     N_R   0.498224 0.414934 0.033820 -0.250665
N2    N     N_R   0.500322 0.583034 0.966308 -0.251133
N3    N     N_R   0.505847 0.414960 0.965207 -0.250969
N4    N     N_R   0.492721 0.583008 0.034875 -0.251751
C17   C     C_R   0.507205 0.499044 0.930058 0.430136
C18   C     C_R   0.491362 0.498984 0.070047 0.429629
C19   C     C_R   0.825303 0.489662 0.431307 -0.098445
C20   C     C_R   0.175480 0.492215 0.569129 -0.092908
C21   C     C_R   0.768937 0.494660 0.494268 -0.108353
C22   C     C_R   0.230917 0.504553 0.506712 -0.112913
C23   C     C_R   0.804320 0.493574 0.557825 0.114499
C24   C     C_R   0.194193 0.513668 0.444117 0.111743
C25   C     C_R   0.896125 0.473781 0.559492 0.083271
C26   C     C_R   0.105476 0.487252 0.440585 0.090971
C27   C     C_R   0.954290 0.477726 0.497798 -0.059909
C28   C     C_R   0.047278 0.482084 0.502054 -0.057278
C29   C     C_R   0.919768 0.479907 0.432344 -0.003242
C30   C     C_R   0.081447 0.485718 0.567618 -0.005597
C31   C     C_R   0.932034 0.453583 0.621863 0.118048
C32   C     C_R   0.073921 0.463265 0.377348 0.106747
C33   C     C_R   0.020590 0.475949 0.628321 -0.034865
C34   C     C_R   0.981708 0.468008 0.371581 -0.038629
C35   C     C_R   0.426893 0.796798 0.529720 0.282436
C36   C     C_R   0.573099 0.202340 0.471306 0.284073
C37   C     C_R   0.572528 0.792809 0.471068 0.284887
C38   C     C_R   0.427511 0.207565 0.529792 0.285169
N5    N     N_R   0.500000 0.743810 0.500000 -0.186199
N6    N     N_R   0.500000 0.256190 0.500000 -0.185109
C39   C     C_R   0.578402 0.894282 0.481774 -0.054484
C40   C     C_R   0.421058 0.105715 0.520364 -0.054592
C41   C     C_R   0.420288 0.899547 0.521323 -0.051235
C42   C     C_R   0.579272 0.099849 0.480950 -0.050279
C43   C     C_R   0.499357 0.948521 0.501008 -0.005841
C44   C     C_R   0.499896 0.051219 0.500833 -0.005875
C45   C     C_R   0.660674 0.942477 0.473712 -0.048630
C46   C     C_R   0.338981 0.056947 0.531515 -0.046939
C47   C     C_R   0.338627 0.954959 0.533464 -0.042638
C48   C     C_R   0.661153 0.044459 0.471289 -0.042272
C49   C     C_3   0.469455 0.686392 0.288547 -0.827792
H5    H     H_    0.413302 0.688527 0.330195 0.247376
H6    H     H_    0.532511 0.705029 0.308582 0.240818
H7    H     H_    0.454643 0.743900 0.251711 0.209448
C50   C     C_3   0.538555 0.314423 0.709734 -0.831273
H8    H     H_    0.594954 0.316420 0.668332 0.243564
H9    H     H_    0.556041 0.257337 0.746064 0.210647
H10   H     H_    0.476928 0.292200 0.688946 0.243435
C51   C     C_3   0.517533 0.686811 0.714088 -0.837242
H11   H     H_    0.574823 0.690276 0.673598 0.248082
H12   H     H_    0.454085 0.703740 0.692847 0.235280
H13   H     H_    0.526428 0.744725 0.752027 0.211164
C52   C     C_3   0.473215 0.313834 0.287745 -0.835579
H14   H     H_    0.416116 0.314459 0.328658 0.249044
H15   H     H_    0.460767 0.256312 0.250476 0.212013
H16   H     H_    0.536115 0.293254 0.308778 0.237298
C53   C     C_R   0.783901 0.507301 0.366560 0.118924
C54   C     C_R   0.746409 0.432051 0.332601 -0.156237
C55   C     C_R   0.707937 0.448940 0.271537 -0.128641
C56   C     C_R   0.706496 0.541483 0.243996 -0.085546
C57   C     C_R   0.744225 0.616883 0.277238 -0.155418
C58   C     C_R   0.783331 0.599689 0.338047 -0.163514
H17   H     H_    0.752791 0.359519 0.350887 0.130504
H18   H     H_    0.680761 0.389944 0.244929 0.134190
H19   H     H_    0.677253 0.554461 0.196475 0.134955
H20   H     H_    0.743990 0.688429 0.255590 0.125264
H21   H     H_    0.814437 0.657811 0.362305 0.138168
C59   C     C_R   0.217778 0.487169 0.634454 0.122113
C60   C     C_R   0.228049 0.399186 0.667936 -0.172901
C61   C     C_R   0.268248 0.395093 0.729283 -0.154075
C62   C     C_R   0.296111 0.479413 0.758594 -0.083654
C63   C     C_R   0.284051 0.567740 0.726484 -0.131282
C64   C     C_R   0.244891 0.571567 0.664731 -0.156722
H22   H     H_    0.202614 0.334436 0.647658 0.141385
H23   H     H_    0.276224 0.326837 0.754713 0.127332
H24   H     H_    0.325896 0.476490 0.806632 0.135553
H25   H     H_    0.303890 0.633348 0.749907 0.130181
H26   H     H_    0.231490 0.640484 0.642170 0.134467
C65   C     C_3   0.745309 0.529034 0.621706 -0.859727
H27   H     H_    0.706338 0.594474 0.609606 0.234866
H28   H     H_    0.698684 0.472442 0.640550 0.227584
H29   H     H_    0.783877 0.552593 0.663643 0.242195
C66   C     C_3   0.247319 0.562756 0.384366 -0.858758
H30   H     H_    0.274784 0.630188 0.402881 0.236959
H31   H     H_    0.303004 0.514822 0.361863 0.226229
H32   H     H_    0.205579 0.585629 0.343626 0.238898
C67   C     C_3   0.880669 0.397711 0.678931 -0.881247
H33   H     H_    0.818795 0.368173 0.662666 0.244213
H34   H     H_    0.921186 0.333818 0.691860 0.215165
H35   H     H_    0.864583 0.443148 0.725876 0.245923
C68   C     C_3   0.136702 0.418621 0.318587 -0.863840
H36   H     H_    0.202608 0.397472 0.334656 0.241971
H37   H     H_    0.109640 0.350387 0.301181 0.226654
H38   H     H_    0.145154 0.468558 0.274267 0.241656
C69   C     C_R   0.039190 0.509857 0.697604 0.162358
C70   C     C_R   0.039597 0.609284 0.710788 -0.153640
C71   C     C_R   0.053412 0.643512 0.776236 -0.141120
C72   C     C_R   0.065546 0.578788 0.829289 -0.103231
C73   C     C_R   0.063408 0.479765 0.817052 -0.124143
C74   C     C_R   0.049730 0.445233 0.751625 -0.121334
H39   H     H_    0.029498 0.660076 0.670241 0.112045
H40   H     H_    0.054619 0.720212 0.785816 0.118844
H41   H     H_    0.076444 0.605360 0.879906 0.118786
H42   H     H_    0.072797 0.429703 0.858187 0.120727
H43   H     H_    0.049421 0.368324 0.742746 0.111208
C75   C     C_R   0.955008 0.454656 0.301133 0.169889
C76   C     C_R   0.962534 0.530576 0.253763 -0.129071
C77   C     C_R   0.943698 0.516166 0.185829 -0.125204
C78   C     C_R   0.919300 0.425477 0.164385 -0.099010
C79   C     C_R   0.914482 0.348879 0.210688 -0.138261
C80   C     C_R   0.933041 0.363225 0.278669 -0.159853
H44   H     H_    0.982491 0.600796 0.269687 0.109474
H45   H     H_    0.948310 0.575211 0.149754 0.119679
H46   H     H_    0.904701 0.414403 0.111810 0.118891
H47   H     H_    0.896420 0.278403 0.193928 0.120693
H48   H     H_    0.930206 0.303694 0.314006 0.115975
C81   C     C_3   0.358751 0.748613 0.578319 -0.799629
H49   H     H_    0.382456 0.680707 0.597550 0.265557
H50   H     H_    0.342581 0.793098 0.625600 0.184399
H51   H     H_    0.298969 0.732950 0.552625 0.238676
C82   C     C_3   0.641320 0.248988 0.422045 -0.806696
H52   H     H_    0.615759 0.314991 0.400968 0.261269
H53   H     H_    0.700441 0.267575 0.447657 0.242624
H54   H     H_    0.659629 0.201957 0.376268 0.186636
C83   C     C_3   0.640867 0.743174 0.420164 -0.777913
H55   H     H_    0.616070 0.679652 0.396559 0.266135
H56   H     H_    0.660832 0.791595 0.376446 0.180618
H57   H     H_    0.699577 0.719539 0.445527 0.245823
C84   C     C_3   0.360390 0.257940 0.580913 -0.782971
H58   H     H_    0.385229 0.321932 0.603466 0.267796
H59   H     H_    0.300941 0.280477 0.556023 0.243934
H60   H     H_    0.342369 0.210774 0.625711 0.180313
C85   C     C_R   0.745556 0.886998 0.480082 0.138289
C86   C     C_R   0.808945 0.870929 0.422506 -0.142419
C87   C     C_R   0.881575 0.807548 0.426783 -0.155779
C88   C     C_R   0.890306 0.757553 0.487699 -0.118427
C89   C     C_R   0.829398 0.775009 0.545850 -0.137395
C90   C     C_R   0.757607 0.840012 0.542330 -0.141171
H61   H     H_    0.798997 0.901628 0.373026 0.112765
H62   H     H_    0.928686 0.793500 0.381758 0.120600
H63   H     H_    0.943580 0.704201 0.489339 0.125772
H64   H     H_    0.836646 0.736453 0.593136 0.131990
H65   H     H_    0.709125 0.850391 0.587040 0.122493
C91   C     C_R   0.252304 0.111229 0.531652 0.138964
C92   C     C_R   0.230346 0.156552 0.471164 -0.142947
C93   C     C_R   0.154136 0.216473 0.472881 -0.142473
C94   C     C_R   0.098820 0.230253 0.534577 -0.107285
C95   C     C_R   0.118354 0.182834 0.594241 -0.150868
C96   C     C_R   0.195104 0.124229 0.593104 -0.147703
H66   H     H_    0.273842 0.148085 0.423498 0.123976
H67   H     H_    0.138695 0.253351 0.426675 0.136120
H68   H     H_    0.041238 0.278491 0.536642 0.130785
H69   H     H_    0.075721 0.194334 0.642009 0.120952
H70   H     H_    0.212413 0.093517 0.640909 0.112968
C97   C     C_R   0.250857 0.908318 0.541191 0.143765
C98   C     C_R   0.203310 0.900102 0.606894 -0.158136
C99   C     C_R   0.124322 0.850082 0.615140 -0.147696
C100  C     C_R   0.091864 0.808401 0.557987 -0.097598
C101  C     C_R   0.137310 0.818141 0.492117 -0.126271
C102  C     C_R   0.216546 0.868444 0.483538 -0.151937
H71   H     H_    0.229706 0.928523 0.652080 0.111308
H72   H     H_    0.089149 0.842069 0.666047 0.120582
H73   H     H_    0.031896 0.767940 0.565345 0.118599
H74   H     H_    0.111798 0.785599 0.447931 0.128312
H75   H     H_    0.252330 0.874103 0.432608 0.122792
C103  C     C_R   0.748530 0.091459 0.465772 0.142461
C104  C     C_R   0.777558 0.137679 0.523265 -0.145978
C105  C     C_R   0.856217 0.189077 0.515812 -0.131428
C106  C     C_R   0.906985 0.192379 0.451524 -0.097571
C107  C     C_R   0.880308 0.143111 0.395080 -0.148654
C108  C     C_R   0.800714 0.094345 0.401741 -0.159318
H76   H     H_    0.737829 0.136604 0.572891 0.124398
H77   H     H_    0.877173 0.227229 0.559560 0.133251
H78   H     H_    0.966458 0.233822 0.444745 0.123101
H79   H     H_    0.920284 0.144180 0.345657 0.118122
H80   H     H_    0.778020 0.061874 0.356423 0.110673

loop_
_geom_bond_atom_site_label_1
_geom_bond_atom_site_label_2
_geom_bond_distance
_ccdc_geom_bond_type
C91   C96   1.407859 A    
C55   C56   1.396786 A    
C89   C90   1.399231 A    
C37   C39   1.431350 A    
C49   H7    1.110968 S    
C33   C69   1.485556 S    
C50   H8    1.110632 S    
C66   H30   1.110153 S    
C78   H46   1.082167 S    
O3    C2    1.303569 A    
C81   H51   1.105612 S    
C52   H14   1.110625 S    
C99   C100  1.394328 A    
C79   C80   1.397847 A    
C76   C77   1.398393 A    
C21   C23   1.400812 A    
C53   C54   1.400415 A    
O5    C3    1.312500 A    
C63   H25   1.082091 S    
C72   C73   1.397473 A    
O1    C1    1.302957 A    
C92   H66   1.083065 S    
C19   C53   1.485746 S    
C88   C89   1.397193 A    
C5    C9    1.399344 A    
C79   H47   1.082693 S    
C82   H53   1.105710 S    
C81   H49   1.082679 S    
C68   H38   1.109969 S    
Cu1   N5    2.034632 S    
C6    C16   1.433514 A    
C61   H23   1.082173 S    
C100  H73   1.077947 S    
C8    C52   1.511280 S    
C34   C75   1.484193 S    
C98   C99   1.394446 A    
C41   C43   1.413791 A    
C57   H20   1.082291 S    
C49   H6    1.105255 S    
O7    Cu1   1.958663 S    
C93   C94   1.398243 A    
C42   C44   1.413652 A    
C32   C68   1.524129 S    
C52   H15   1.110951 S    
C73   H42   1.082281 S    
C35   C41   1.440025 A    
C71   H40   1.082325 S    
C30   C33   1.428646 A    
C10   H2    1.083501 S    
C14   C17   1.475061 S    
C67   H34   1.109332 S    
C65   H29   1.107104 S    
C32   C34   1.410299 A    
C65   H27   1.109242 S    
N1    N3    1.329881 A    
C5    C15   1.433409 A    
C107  C108  1.392858 A    
C19   C29   1.433005 A    
C9    C13   1.393694 A    
N1    C18   1.357395 A    
C20   C30   1.430671 A    
C85   C90   1.407145 A    
O3    Cu1   1.966624 S    
C6    C10   1.400193 A    
C67   H35   1.110128 S    
C51   H12   1.104368 S    
C103  C104  1.405402 A    
C40   C46   1.428313 A    
C90   H65   1.083191 S    
C84   H59   1.104335 S    
C92   C93   1.399027 A    
C59   C64   1.401808 A    
C84   H58   1.084522 S    
C7    C16   1.433057 A    
C23   C25   1.410873 A    
C88   H63   1.081760 S    
O2    C2    1.304639 A    
C24   C26   1.409688 A    
C5    C49   1.511344 S    
C7    C51   1.511025 S    
C81   H50   1.108218 S    
C26   C28   1.412037 A    
C60   C61   1.398652 A    
C36   C82   1.496722 S    
C65   H28   1.109435 S    
C96   H70   1.080960 S    
C27   C29   1.429167 A    
C76   H44   1.083554 S    
Cu2   N6    2.034632 S    
C28   C30   1.429783 A    
C62   H24   1.081887 S    
C6    C50   1.511778 S    
N2    C17   1.356895 A    
C69   C70   1.404587 A    
O8    Cu2   1.958664 S    
C82   H54   1.109201 S    
C75   C80   1.402502 A    
C35   N5    1.382133 A    
C54   C55   1.397415 A    
C25   C31   1.409585 A    
C104  C105  1.400015 A    
C10   C14   1.393839 A    
C31   C33   1.401908 A    
C51   H11   1.109973 S    
C7    C11   1.399114 A    
C43   C44   1.427653 A    
N2    N4    1.328993 A    
C46   C91   1.492502 S    
C95   H69   1.082514 S    
C9    H1    1.083464 S    
C97   C98   1.406823 A    
C97   C102  1.404946 A    
C74   H43   1.082184 S    
C38   C84   1.499114 S    
C80   H48   1.078194 S    
C41   C47   1.432862 A    
C103  C108  1.404745 A    
O5    Cu1   1.956481 S    
O6    C4    1.312513 A    
C45   C48   1.418665 A    
C59   C60   1.401475 A    
C35   C81   1.498591 S    
C106  H78   1.078748 S    
C66   H31   1.109036 S    
C8    C15   1.433428 A    
C83   H57   1.103876 S    
C25   C27   1.414066 A    
C101  H74   1.082691 S    
C94   H68   1.080222 S    
C68   H37   1.109537 S    
C47   C97   1.487586 S    
C95   C96   1.396099 A    
C31   C67   1.517604 S    
C11   C14   1.393676 A    
C102  H75   1.082906 S    
C61   C62   1.396727 A    
C84   H60   1.109927 S    
C12   C13   1.393539 A    
C37   N5    1.378423 A    
C71   C72   1.397347 A    
C50   H10   1.106405 S    
C27   C28   1.420242 A    
O1    Cu1   1.978960 S    
C54   H17   1.076082 S    
C50   H9    1.110983 S    
C20   C59   1.485677 S    
C73   C74   1.398206 A    
C64   H26   1.078844 S    
C52   H16   1.105813 S    
C55   H18   1.082164 S    
C91   C92   1.405691 A    
C104  H76   1.083026 S    
C36   N6    1.381709 A    
C51   H13   1.110926 S    
C26   C32   1.410184 A    
C89   H64   1.082505 S    
C37   C83   1.503130 S    
C11   H3    1.083438 S    
C56   H19   1.081860 S    
O6    Cu2   1.956481 S    
C23   C65   1.522879 S    
C4    C16   1.503082 S    
C8    C12   1.400014 A    
C39   C43   1.408986 A    
C24   C66   1.519019 S    
C60   H22   1.078512 S    
C105  C106  1.399357 A    
C58   H21   1.078531 S    
C53   C58   1.401986 A    
C29   C34   1.434753 A    
C13   C18   1.475084 S    
C86   C87   1.397192 A    
C36   C42   1.439414 A    
C78   C79   1.397729 A    
C75   C76   1.404821 A    
C83   H56   1.110396 S    
C62   C63   1.396863 A    
C42   C48   1.432899 A    
C40   C44   1.409309 A    
C87   H62   1.082534 S    
C57   C58   1.398477 A    
C101  C102  1.399907 A    
C19   C21   1.417341 A    
C94   C95   1.394186 A    
C85   C86   1.407983 A    
C82   H52   1.084722 S    
C39   C45   1.424464 A    
C20   C22   1.415774 A    
C105  H77   1.082355 S    
C69   C74   1.406400 A    
C108  H80   1.082256 S    
C72   H41   1.082267 S    
C22   C24   1.398196 A    
C63   C64   1.397523 A    
N3    C17   1.357294 A    
C77   H45   1.082403 S    
C38   N6    1.380861 A    
C70   H39   1.082343 S    
C46   C47   1.418362 A    
C66   H32   1.108038 S    
N4    C18   1.356800 A    
O4    Cu2   1.966624 S    
C106  C107  1.394650 A    
O2    Cu2   1.978960 S    
O7    C4    1.312880 A    
C49   H5    1.109712 S    
C87   C88   1.395176 A    
O8    C3    1.313138 A    
C86   H61   1.079902 S    
C38   C40   1.434026 A    
C99   H72   1.082314 S    
O4    C1    1.305452 A    
C56   C57   1.396621 A    
C3    C15   1.503649 S    
C68   H36   1.108091 S    
C12   H4    1.083498 S    
C1    C22   1.472198 S    
C45   C85   1.494557 S    
C107  H79   1.081464 S    
C2    C21   1.472375 S    
C77   C78   1.397987 A    
C48   C103  1.484852 S    
C100  C101  1.399008 A    
Cu1   Cu2   2.708023 S    
C93   H67   1.082087 S    
C98   H71   1.082442 S    
C67   H33   1.108557 S    
C70   C71   1.397663 A    
C83   H55   1.088041 S    
