data_mof_unit_25531.cif
_audit_creation_date              2012-12-10T17:55:29-0500
_audit_creation_method            fapswitch 2.2
_symmetry_space_group_name_H-M    P1
_symmetry_Int_Tables_number       1
_space_group_crystal_system       triclinic
_cell_length_a                    10.782881
_cell_length_b                    9.531544
_cell_length_c                    10.930834
_cell_angle_alpha                 90.042843
_cell_angle_beta                  90.14554
_cell_angle_gamma                 90.029989
_cell_volume                      1123.43974927

loop_
_atom_site_label
_atom_site_type_symbol
_atom_type_description
_atom_site_fract_x
_atom_site_fract_y
_atom_site_fract_z
_atom_type_partial_charge
C1    C     C_R   0.262685 0.499921 0.500099 0.746354
C2    C     C_R   0.737374 0.499980 0.500012 0.742655
C3    C     C_R   0.501131 0.500002 0.265277 0.826017
C4    C     C_R   0.498262 0.500078 0.734708 0.822761
C5    C     C_2   0.501790 0.384783 0.932936 -0.127868
C6    C     C_2   0.495930 0.384783 0.066869 -0.112003
C7    C     C_2   0.491458 0.502379 0.866627 -0.291808
C8    C     C_2   0.507299 0.502254 0.133333 -0.298065
C9    C     C_R   0.065476 0.460799 0.607727 -0.027268
C10   C     C_R   0.935175 0.453736 0.605500 -0.026260
C11   C     C_R   0.871513 0.499976 0.500049 -0.209413
C12   C     C_R   0.128686 0.499841 0.500093 -0.201460
C13   C     C_R   0.934787 0.545911 0.394557 -0.028998
C14   C     C_R   0.065052 0.538753 0.392400 -0.029834
C15   C     C_R   0.422748 0.074265 0.424128 -0.007257
C16   C     C_R   0.577272 0.074509 0.575862 -0.005726
C17   C     C_R   0.422721 0.925517 0.424152 -0.000141
C18   C     C_R   0.577292 0.925760 0.575833 0.003363
Cu1   Cu    Cu3+1 0.500000 0.640660 0.500000 0.961949
Cu2   Cu    Cu3+1 0.500000 0.359340 0.500000 0.957211
H1    H     H_    0.513165 0.283806 0.888180 0.169064
H2    H     H_    0.483985 0.283884 0.111504 0.168480
H3    H     H_    0.474970 0.603962 0.907640 0.158869
H4    H     H_    0.524262 0.603743 0.092428 0.154837
H5    H     H_    0.360845 0.130150 0.363287 0.132688
H6    H     H_    0.639206 0.130593 0.636680 0.138055
H7    H     H_    0.360756 0.869451 0.363366 0.125051
H8    H     H_    0.639257 0.869889 0.636615 0.133895
N1    N     N_R   0.500000 0.852070 0.500000 -0.165689
N2    N     N_R   0.500000 0.147940 0.500000 -0.167995
O1    O     O_R   0.319640 0.618740 0.499990 -0.579469
O2    O     O_R   0.680360 0.618740 0.500010 -0.576547
O3    O     O_R   0.319620 0.381170 0.499990 -0.582185
O4    O     O_R   0.680380 0.381170 0.500010 -0.574827
O5    O     O_R   0.500000 0.618750 0.321940 -0.588727
O6    O     O_R   0.500000 0.618750 0.678060 -0.577980
O7    O     O_R   0.499970 0.381180 0.321940 -0.577005
O8    O     O_R   0.500030 0.381180 0.678060 -0.590736
C19   C     C_2   0.136922 0.434924 0.722719 0.451510
H9    H     H_    0.227522 0.385844 0.719627 0.064677
O9    O     O_2   0.097549 0.473906 0.821714 -0.472887
C20   C     C_2   0.863816 0.397769 0.711613 0.476311
H10   H     H_    0.774026 0.441609 0.734625 0.036522
O10   O     O_2   0.902217 0.298309 0.770958 -0.505691
C21   C     C_2   0.863090 0.601406 0.288202 0.498134
H11   H     H_    0.773314 0.557246 0.265098 0.037673
O11   O     O_2   0.901280 0.700713 0.228661 -0.501265
C22   C     C_2   0.136022 0.564308 0.277400 0.441892
H12   H     H_    0.226654 0.613476 0.280443 0.052406
O12   O     O_2   0.096231 0.524914 0.178479 -0.473266

loop_
_geom_bond_atom_site_label_1
_geom_bond_atom_site_label_2
_ccdc_geom_bond_type
Cu2   O8    S    
C14   C22   S    
C4    O6    A    
C15   C17   A    
C10   C20   S    
C17   N1    A    
C9    C10   A    
Cu1   Cu2   S    
C3    O5    A    
Cu1   O1    S    
C2    O4    A    
C22   O12   D    
C1    O3    A    
C19   O9    D    
C18   N1    A    
Cu2   N2    S    
C13   C14   A    
C13   C21   S    
Cu2   O7    S    
C11   C13   A    
C1    C12   S    
C20   O10   D    
C4    C7    S    
C7    H3    S    
C2    C11   S    
C16   C18   A    
C22   H12   S    
C8    H4    S    
C12   C14   A    
Cu1   O5    S    
Cu1   O6    S    
C21   O11   D    
C16   H6    S    
C5    C6    S    
C9    C12   A    
Cu1   N1    S    
C15   H5    S    
C10   C11   A    
Cu2   O3    S    
C16   N2    A    
Cu2   O4    S    
C17   H7    S    
C1    O1    A    
C18   H8    S    
C3    O7    A    
C15   N2    A    
C2    O2    A    
C3    C8    S    
C20   H10   S    
C19   H9    S    
C5    C7    D    
C6    C8    D    
C21   H11   S    
Cu1   O2    S    
C9    C19   S    
C4    O8    A    
C5    H1    S    
C6    H2    S    
