data_mof_unit_37276.cif
_audit_creation_date              2012-12-10T19:00:01-0500
_audit_creation_method            fapswitch 2.2
_symmetry_space_group_name_H-M    P1
_symmetry_Int_Tables_number       1
_space_group_crystal_system       triclinic
_cell_length_a                    10.811484
_cell_length_b                    10.610241
_cell_length_c                    10.050998
_cell_angle_alpha                 87.815462
_cell_angle_beta                  91.927553
_cell_angle_gamma                 88.325077
_cell_volume                      1150.94726778

loop_
_atom_site_label
_atom_site_type_symbol
_atom_type_description
_atom_site_fract_x
_atom_site_fract_y
_atom_site_fract_z
_atom_type_partial_charge
C1    C     C_R   0.500260 0.260749 0.501929 0.961006
C2    C     C_R   0.583218 0.057562 0.586871 0.644675
C3    C     C_R   0.501544 0.871954 0.495391 -0.260788
C4    C     C_R   0.498456 0.128045 0.504607 -0.260802
C5    C     C_R   0.467546 0.606354 0.063958 -0.201192
C6    C     C_R   0.532420 0.393637 0.936046 -0.201177
C7    C     C_R   0.467678 0.605780 0.922491 0.817057
C8    C     C_R   0.532309 0.394220 0.077511 0.817128
C9    C     C_R   0.260434 0.497208 0.497257 0.920060
C10   C     C_R   0.739566 0.502791 0.502743 0.920059
C11   C     C_R   0.143891 0.673775 0.040883 0.641156
C12   C     C_R   0.499739 0.739251 0.498070 0.961000
C13   C     C_R   0.856065 0.326198 0.959088 0.641065
C14   C     C_R   0.113547 0.677095 0.175312 -0.208064
C15   C     C_R   0.886429 0.322888 0.824666 -0.208007
C16   C     C_R   0.103454 0.561808 0.249726 -0.162754
C17   C     C_R   0.896544 0.438180 0.750266 -0.162720
C18   C     C_R   0.132739 0.447305 0.190037 0.680583
C19   C     C_R   0.867266 0.552681 0.809963 0.680586
C20   C     C_R   0.176020 0.446231 0.061305 -0.240652
C21   C     C_R   0.823970 0.553749 0.938688 -0.240649
C22   C     C_R   0.175048 0.559484 0.984041 0.382380
C23   C     C_R   0.872976 0.508701 0.508340 -0.033910
C24   C     C_R   0.824920 0.440487 0.015940 0.382360
C25   C     C_R   0.929298 0.570175 0.402146 0.125186
C26   C     C_R   0.070703 0.429821 0.597851 0.125248
C27   C     C_R   0.127025 0.491297 0.491658 -0.033893
C28   C     C_R   0.943874 0.446931 0.613122 0.006205
C29   C     C_R   0.056126 0.553065 0.386874 0.006218
C30   C     C_R   0.415571 0.071563 0.417588 -0.248361
C31   C     C_R   0.584430 0.928436 0.582409 -0.248371
C32   C     C_R   0.416784 0.942437 0.413124 0.644649
F1    F     F_    0.207750 0.560611 0.855177 -0.606719
F2    F     F_    0.667393 0.113323 0.666325 -0.656295
F3    F     F_    0.792211 0.439356 0.144801 -0.606731
F4    F     F_    0.431952 0.712734 0.851948 -0.560697
F5    F     F_    0.568008 0.287258 0.148053 -0.560690
F6    F     F_    0.149373 0.782893 0.966632 -0.544312
F7    F     F_    0.850555 0.217073 0.033326 -0.544327
F8    F     F_    0.124114 0.335699 0.259765 -0.620596
F9    F     F_    0.875913 0.664293 0.740247 -0.620568
F10   F     F_    0.332615 0.886674 0.333662 -0.656292
H1    H     H_    0.349853 0.127509 0.354424 0.232443
H2    H     H_    0.847196 0.728028 0.008258 0.233813
H3    H     H_    0.877237 0.747539 0.338276 0.177692
H4    H     H_    0.878485 0.640272 0.217616 0.218905
H5    H     H_    0.122765 0.252445 0.661694 0.177682
H6    H     H_    0.121507 0.359688 0.782379 0.218896
H7    H     H_    0.365961 0.701671 0.192298 0.275341
H8    H     H_    0.510054 0.760607 0.163927 0.246411
H9    H     H_    0.633970 0.298159 0.807790 0.275417
H10   H     H_    0.489723 0.239473 0.836018 0.246320
H11   H     H_    0.650148 0.872490 0.645572 0.232432
H12   H     H_    0.090527 0.788889 0.336564 0.230477
H13   H     H_    0.016779 0.841319 0.192626 0.224531
H14   H     H_    0.909476 0.211106 0.663409 0.230468
H15   H     H_    0.983198 0.158664 0.807355 0.224534
H16   H     H_    0.277799 0.345791 0.930353 0.218361
H17   H     H_    0.152816 0.271948 0.991745 0.233812
H18   H     H_    0.722204 0.654201 0.069650 0.218375
N1    N     N_R   0.499970 0.499970 0.857200 -0.201229
N2    N     N_3   0.568496 0.278306 0.878766 -0.302088
N3    N     N_R   0.500030 0.500030 0.142800 -0.201238
N4    N     N_3   0.098178 0.797904 0.233393 -0.289397
N5    N     N_3   0.901806 0.202084 0.766576 -0.289396
N6    N     N_3   0.226322 0.329961 0.015044 -0.371729
N7    N     N_3   0.773680 0.670024 0.984957 -0.371736
N8    N     N_3   0.856230 0.655355 0.315247 -0.420117
N9    N     N_3   0.143768 0.344629 0.684743 -0.420119
N10   N     N_3   0.431329 0.721632 0.121250 -0.302081
O1    O     O_R   0.499990 0.316750 0.614620 -0.649348
O2    O     O_R   0.500010 0.683250 0.385380 -0.649339
O3    O     O_R   0.499990 0.316780 0.385290 -0.537626
O4    O     O_R   0.500010 0.683220 0.614710 -0.537644
O5    O     O_R   0.316760 0.500000 0.614660 -0.525475
O6    O     O_R   0.683240 0.500000 0.385340 -0.525480
O7    O     O_R   0.316760 0.500020 0.385330 -0.641840
O8    O     O_R   0.683240 0.499980 0.614670 -0.641801
Zn1   Zn    Zn3+2 0.500000 0.499980 0.653120 1.046860
Zn2   Zn    Zn3+2 0.500000 0.500020 0.346880 1.046860

loop_
_geom_bond_atom_site_label_1
_geom_bond_atom_site_label_2
_ccdc_geom_bond_type
C12   O4    A    
C27   C29   A    
C7    F4    S    
H6    N9    S    
O1    Zn1   S    
C10   O8    A    
C25   N8    S    
C26   C27   A    
C1    O1    A    
C6    N1    A    
C20   N6    S    
C19   C21   A    
H17   N6    S    
C11   C14   A    
H14   N5    S    
C15   N5    S    
C5    N3    A    
C18   F8    S    
H5    N9    S    
C3    C12   S    
C10   O6    A    
H16   N6    S    
C7    N1    A    
H18   N7    S    
C2    F2    S    
C12   O2    A    
C21   N7    S    
H9    N2    S    
N3    Zn2   S    
C25   C29   A    
C24   F3    S    
C5    C7    A    
O8    Zn1   S    
C6    C8    A    
C16   C29   S    
C13   C24   A    
C2    C31   A    
C11   F6    S    
C2    C4    A    
H4    N8    S    
C5    N10   S    
C14   N4    S    
H13   N4    S    
H3    N8    S    
C9    O7    A    
C23   C28   A    
C31   H11   S    
C3    C31   A    
C20   C22   A    
O4    Zn1   S    
C13   C15   A    
C14   C16   A    
C30   H1    S    
C8    F5    S    
C9    C27   S    
O7    Zn2   S    
C15   C17   A    
C22   F1    S    
C17   C28   S    
O6    Zn2   S    
H15   N5    S    
C10   C23   S    
C11   C22   A    
C26   C28   A    
H7    N10   S    
C1    C4    S    
C1    O3    A    
C6    N2    S    
H8    N10   S    
O2    Zn2   S    
H10   N2    S    
C30   C32   A    
H12   N4    S    
N1    Zn1   S    
C17   C19   A    
O3    Zn2   S    
C18   C20   A    
C23   C25   A    
C3    C32   A    
C13   F7    S    
C8    N3    A    
C16   C18   A    
C21   C24   A    
C26   N9    S    
C32   F10   S    
H2    N7    S    
C9    O5    A    
O5    Zn1   S    
C4    C30   A    
C19   F9    S    
