data_mof_unit_24271.cif
_audit_creation_date              2012-10-26T21:00:18-0400
_audit_creation_method            fapswitch 2.2
_symmetry_space_group_name_H-M    P1
_symmetry_Int_Tables_number       1
_space_group_crystal_system       triclinic
_cell_length_a                    19.313733
_cell_length_b                    8.675752
_cell_length_c                    7.512767
_cell_angle_alpha                 102.423738
_cell_angle_beta                  95.320374
_cell_angle_gamma                 93.079976
_cell_volume                      1220.55441767

loop_
_atom_site_label
_atom_site_type_symbol
_atom_type_description
_atom_site_fract_x
_atom_site_fract_y
_atom_site_fract_z
_atom_type_partial_charge
C1    C     C_R   0.497358 0.200137 0.453824 0.542408
C2    C     C_R   0.809497 0.380426 0.380511 -0.125362
C3    C     C_R   0.146596 0.499019 0.501716 -0.025385
C4    C     C_R   0.853404 0.500997 0.498276 -0.025384
C5    C     C_R   0.175819 0.376371 0.385834 -0.101654
C6    C     C_R   0.824179 0.623648 0.614151 -0.101669
C7    C     C_R   0.248481 0.372518 0.385736 0.102739
C8    C     C_R   0.751518 0.627488 0.614258 0.102724
C9    C     C_R   0.292028 0.496033 0.503969 0.047199
C10   C     C_R   0.707971 0.503969 0.496032 0.047211
C11   C     C_R   0.929756 0.500204 0.499332 0.348870
C12   C     C_R   0.502642 0.799863 0.546176 0.542414
C13   C     C_R   0.070243 0.499818 0.500656 0.348870
C14   C     C_3   0.317780 0.729858 0.928763 -0.278465
C15   C     C_3   0.682222 0.270090 0.071256 -0.278485
C16   C     C_3   0.236009 0.127752 0.135070 -0.324693
C17   C     C_3   0.763978 0.872150 0.865066 -0.324678
C18   C     C_3   0.394019 0.247240 0.930427 -0.242230
C19   C     C_3   0.605985 0.752748 0.069564 -0.242245
C20   C     C_2   0.494411 0.032282 0.428206 -0.155746
C21   C     C_2   0.505589 0.967718 0.571794 -0.155748
C22   C     C_R   0.367866 0.499135 0.501020 0.567048
C23   C     C_R   0.632134 0.500868 0.498980 0.567079
C24   C     C_R   0.262909 0.618175 0.623145 0.092403
C25   C     C_R   0.737092 0.381821 0.376865 0.092399
C26   C     C_R   0.190503 0.619578 0.619496 -0.125362
Cu1   Cu    Cu3+1 0.507710 0.517380 0.684380 0.975684
Cu2   Cu    Cu3+1 0.492290 0.482620 0.315620 0.975675
H1    H     H_    0.168862 0.715468 0.709733 0.140338
H2    H     H_    0.338730 0.614683 0.936907 0.186697
H3    H     H_    0.709491 0.145472 0.269078 0.235726
H4    H     H_    0.731785 0.260374 0.006741 0.129482
H5    H     H_    0.661263 0.385252 0.063084 0.186696
H6    H     H_    0.643672 0.174046 0.993419 0.127922
H7    H     H_    0.320183 0.199680 0.339413 0.243029
H8    H     H_    0.203914 0.186884 0.042934 0.164064
H9    H     H_    0.269892 0.050105 0.050079 0.126859
H10   H     H_    0.202274 0.053103 0.200224 0.150650
H11   H     H_    0.679846 0.800395 0.660545 0.243020
H12   H     H_    0.831140 0.284531 0.290283 0.140339
H13   H     H_    0.796051 0.812916 0.957138 0.164068
H14   H     H_    0.797735 0.946872 0.800056 0.150636
H15   H     H_    0.730089 0.949747 0.950092 0.126846
H16   H     H_    0.500357 0.227975 0.973625 0.242397
H17   H     H_    0.382754 0.230956 0.067137 0.176838
H18   H     H_    0.384386 0.131177 0.831526 0.101706
H19   H     H_    0.358616 0.331051 0.884696 0.152384
H20   H     H_    0.499648 0.772027 0.026385 0.242394
H21   H     H_    0.617245 0.769039 0.932852 0.176857
H22   H     H_    0.641387 0.668927 0.115274 0.152385
H23   H     H_    0.141519 0.282570 0.297928 0.146119
H24   H     H_    0.615624 0.868805 0.168473 0.101695
H25   H     H_    0.858478 0.717463 0.702044 0.146125
H26   H     H_    0.482454 0.961569 0.289776 0.115414
H27   H     H_    0.517546 0.038431 0.710224 0.115417
H28   H     H_    0.290512 0.854517 0.730980 0.235727
H29   H     H_    0.268218 0.739579 0.993285 0.129471
H30   H     H_    0.356336 0.825882 0.006614 0.127928
N1    N     N_R   0.027486 0.384041 0.385603 -0.230356
N2    N     N_2   0.720940 0.755789 0.726057 -0.525471
N3    N     N_2   0.465797 0.304970 0.936871 -0.357186
N4    N     N_2   0.534207 0.695027 0.063132 -0.357181
N5    N     N_R   0.972513 0.615982 0.614384 -0.230354
N6    N     N_R   0.958634 0.384210 0.384887 -0.228930
N7    N     N_R   0.041366 0.615813 0.615100 -0.228929
N8    N     N_2   0.480680 0.456420 0.038530 -0.014688
N9    N     N_2   0.519320 0.543580 0.961470 -0.014688
N10   N     N_2   0.306301 0.744505 0.740169 -0.513411
N11   N     N_2   0.693701 0.255477 0.259862 -0.513414
N12   N     N_2   0.279059 0.244217 0.273934 -0.525467
O1    O     O_R   0.505010 0.286130 0.619770 -0.480950
O2    O     O_R   0.494990 0.713870 0.380230 -0.480950
O3    O     O_R   0.491990 0.256780 0.308370 -0.525374
O4    O     O_R   0.508010 0.743220 0.691630 -0.525368
O5    O     O_R   0.406650 0.514660 0.655750 -0.483541
O6    O     O_R   0.593350 0.485340 0.344250 -0.483546
O7    O     O_R   0.393640 0.485310 0.344340 -0.502531
O8    O     O_R   0.606360 0.514690 0.655660 -0.502511

loop_
_geom_bond_atom_site_label_1
_geom_bond_atom_site_label_2
_ccdc_geom_bond_type
N5    N7    A    
C12   O4    A    
Cu2   N8    S    
C23   O6    A    
Cu1   O8    S    
C18   H19   S    
C7    N12   S    
C15   H4    S    
C13   N7    A    
N1    N6    A    
C1    O1    A    
N4    N9    S    
C24   C26   A    
C19   H24   S    
C11   N5    A    
C9    C22   S    
C19   N4    S    
C17   H14   S    
N3    N8    S    
C14   H30   S    
Cu1   O4    S    
C15   H6    S    
C3    C13   S    
C16   H9    S    
N8    N9    D    
C12   O2    A    
Cu2   O2    S    
C22   O5    A    
C14   H2    S    
Cu1   O5    S    
Cu2   O3    S    
C18   H18   S    
C15   N11   S    
C16   N12   S    
H7    N12   S    
C4    C6    A    
C11   N6    A    
C5    C7    A    
C6    C8    A    
H28   N10   S    
C12   C21   S    
C2    C4    A    
C17   H15   S    
C19   H21   S    
H20   N4    S    
C9    C24   A    
C4    C11   S    
Cu2   O7    S    
C10   C25   A    
C20   H26   S    
H16   N3    S    
C25   N11   S    
C6    H25   S    
Cu2   O6    S    
C18   H17   S    
Cu1   O1    S    
C21   H27   S    
C7    C9    A    
C14   H29   S    
C1    C20   S    
C3    C26   A    
C22   O7    A    
C3    C5    A    
C18   N3    S    
C13   N1    A    
C10   C23   S    
C1    O3    A    
C16   H8    S    
C19   H22   S    
H11   N2    S    
C2    C25   A    
C23   O8    A    
C17   H13   S    
Cu1   N9    S    
C24   N10   S    
C17   N2    S    
C2    H12   S    
H3    N11   S    
C20   C21   D    
C26   H1    S    
C8    C10   A    
Cu1   Cu2   S    
C14   N10   S    
C5    H23   S    
C15   H5    S    
C8    N2    S    
C16   H10   S    
