data_mof_unit_22310.cif
_audit_creation_date              2013-03-05T15:50:58-0500
_audit_creation_method            fapswitch 2.2
_symmetry_space_group_name_H-M    P1
_symmetry_Int_Tables_number       1
_space_group_crystal_system       triclinic
_cell_length_a                    11.701928
_cell_length_b                    10.878975
_cell_length_c                    9.645989
_cell_angle_alpha                 91.902733
_cell_angle_beta                  90.018769
_cell_angle_gamma                 94.276155
_cell_volume                      1223.88403802

loop_
_atom_site_label
_atom_site_type_symbol
_atom_site_description
_atom_site_fract_x
_atom_site_fract_y
_atom_site_fract_z
_atom_type_partial_charge
O1    O     O_R   0.499990 0.319640 0.618810 -0.545058
O2    O     O_R   0.500000 0.319660 0.381240 -0.541565
C1    C     C_R   0.502289 0.262934 0.497670 0.871566
O3    O     O_R   0.337190 0.500000 0.618790 -0.535077
O4    O     O_R   0.337200 0.500030 0.381210 -0.587372
C2    C     C_R   0.284201 0.499162 0.499983 0.836046
Cu1   Cu    Cu3+1 0.499990 0.499990 0.640660 0.992440
Cu2   Cu    Cu3+1 0.500010 0.500010 0.359340 1.038942
O5    O     O_R   0.500000 0.680340 0.618760 -0.640210
O6    O     O_R   0.500010 0.680360 0.381190 -0.475107
O7    O     O_R   0.662800 0.499970 0.618790 -0.617074
O8    O     O_R   0.662810 0.500000 0.381210 -0.534008
C3    C     C_R   0.494368 0.737410 0.503149 0.835181
C4    C     C_R   0.715652 0.498721 0.500028 0.807798
C5    C     C_1   0.162364 0.498452 0.500203 -0.115069
C6    C     C_1   0.059783 0.497942 0.500564 0.015876
C7    C     C_1   0.939893 0.497793 0.500508 0.001881
C8    C     C_1   0.837376 0.497982 0.500258 -0.151724
C9    C     C_R   0.632256 0.138839 0.699014 -0.168093
H1    H     H_    0.672115 0.228815 0.676040 0.159375
C10   C     C_R   0.651736 0.093486 0.828871 -0.178787
H2    H     H_    0.702538 0.150601 0.903457 0.180320
C11   C     C_R   0.597733 0.980532 0.865504 0.400963
C12   C     C_R   0.541024 0.904769 0.762049 -0.218621
H3    H     H_    0.498530 0.819481 0.794201 0.203058
C13   C     C_R   0.528166 0.946700 0.625610 -0.015298
C14   C     C_R   0.557162 0.072111 0.604218 0.057824
C15   C     C_R   0.505444 0.129017 0.493577 -0.258267
C16   C     C_R   0.444650 0.056843 0.389717 0.278459
C17   C     C_R   0.440383 0.928359 0.394339 0.351061
C18   C     C_R   0.484465 0.871735 0.510764 -0.282748
H4    H     H_    0.352167 0.380333 0.125666 0.207574
C19   C     C_R   0.685364 0.641197 0.139007 0.559491
C20   C     C_R   0.784297 0.666800 0.058498 -0.300361
H5    H     H_    0.864131 0.702092 0.106315 0.158212
C21   C     C_R   0.773891 0.675575 0.917616 -0.249106
H6    H     H_    0.843684 0.717780 0.857787 0.174175
C22   C     C_R   0.670129 0.640066 0.855802 -0.094657
H7    H     H_    0.660149 0.668474 0.752559 0.192856
C23   C     C_R   0.584882 0.569075 0.926208 0.088176
C24   C     C_R   0.588217 0.568867 0.075653 0.145293
N1    N     N_R   0.501070 0.501210 0.147910 -0.226152
C25   C     C_R   0.418605 0.434486 0.072099 -0.094304
C26   C     C_R   0.418771 0.433093 0.924756 0.421130
N2    N     N_R   0.501110 0.501290 0.852040 -0.258652
N3    N     N_R   0.382437 0.112709 0.282936 0.135191
O9    O     O_R   0.298804 0.180198 0.316556 -0.388567
O10   O     O_R   0.397304 0.081902 0.153103 -0.256005
N4    N     N_R   0.330902 0.358338 0.853052 0.147594
O11   O     O_R   0.226208 0.390811 0.858621 -0.365353
O12   O     O_R   0.348224 0.244350 0.820179 -0.314069
N5    N     N_R   0.595906 0.946002 0.007973 0.121183
O13   O     O_R   0.636903 0.023648 0.104333 -0.393561
O14   O     O_R   0.538295 0.845479 0.044496 -0.365804
O15   O     O_3   0.396742 0.858457 0.281385 -0.515236
C27   C     C_3   0.279229 0.825981 0.302076 0.109748
H8    H     H_    0.230521 0.910015 0.311813 0.168827
H9    H     H_    0.265639 0.771034 0.396947 0.090864
C28   C     C_3   0.234272 0.747796 0.176363 -0.238595
H10   H     H_    0.253988 0.798697 0.080119 0.252296
H11   H     H_    0.278052 0.660527 0.170342 0.232754
C29   C     C_3   0.105272 0.717602 0.184638 -0.962956
H12   H     H_    0.083039 0.667889 0.280649 0.257329
H13   H     H_    0.076378 0.657938 0.093755 0.277622
H14   H     H_    0.059900 0.803732 0.183829 0.255072
O16   O     O_3   0.682874 0.692920 0.272369 -0.560929
C30   C     C_3   0.733796 0.815993 0.286576 0.140729
H15   H     H_    0.670381 0.875341 0.333715 0.198642
H16   H     H_    0.756746 0.860048 0.187231 0.153723
C31   C     C_3   0.840666 0.820921 0.379190 -0.440052
H17   H     H_    0.888624 0.738133 0.357727 0.230581
H18   H     H_    0.897906 0.903547 0.354942 0.205641
C32   C     C_3   0.810430 0.828434 0.532869 -0.806698
H19   H     H_    0.774372 0.917809 0.559238 0.248975
H20   H     H_    0.888624 0.821148 0.596381 0.243488
H21   H     H_    0.746708 0.752338 0.558180 0.247181

loop_
_geom_bond_atom_site_label_1
_geom_bond_atom_site_label_2
_geom_bond_distance
_ccdc_geom_bond_type
C26   N4    1.426376 S    
O15   C27   1.409982 S    
C24   N1    1.410714 A    
C4    C8    1.425028 S    
C9    H1    1.082218 S    
Cu1   Cu2   2.713617 S    
C26   N2    1.378113 A    
Cu1   O7    1.916919 S    
C13   C14   1.403159 A    
C29   H12   1.109196 S    
Cu1   N2    2.038581 S    
C15   C16   1.410766 A    
C9    C10   1.386379 A    
C12   C13   1.418723 A    
O4    C2    1.302925 A    
O7    C4    1.302199 A    
C5    C6    1.199996 T    
C27   H8    1.114233 S    
C20   H5    1.080448 S    
C32   H19   1.110381 S    
O5    C3    1.298258 A    
C29   H13   1.110614 S    
C2    C5    1.425186 S    
C6    C7    1.402821 S    
N4    O12   1.300317 A    
C11   C12   1.406751 A    
C31   H17   1.109965 S    
C9    C14   1.412639 A    
O16   C30   1.426643 S    
C28   H10   1.112186 S    
C10   H2    1.082610 S    
C32   H20   1.110202 S    
O3    Cu1   1.916659 S    
N5    O14   1.300123 A    
C19   O16   1.388062 S    
C19   C20   1.409905 A    
C23   N2    1.368687 A    
N3    O10   1.300760 A    
C28   H11   1.111794 S    
C30   H15   1.107468 S    
C22   H7    1.061449 S    
C12   H3    1.074605 S    
O3    C2    1.302269 A    
O1    C1    1.304352 A    
C25   C26   1.420845 A    
C16   C17   1.397130 A    
Cu2   O8    1.916657 S    
C31   C32   1.525106 S    
C7    C8    1.199803 T    
Cu2   O6    1.966341 S    
C23   C24   1.442148 A    
O8    C4    1.303085 A    
C10   C11   1.395496 A    
C32   H21   1.105649 S    
N1    C25   1.361152 A    
N5    O13   1.301834 A    
Cu1   O5    1.980315 S    
N3    O9    1.301382 A    
C1    C15   1.459323 S    
C28   C29   1.523438 S    
C29   H14   1.111137 S    
O1    Cu1   1.966341 S    
C3    C18   1.473905 S    
O2    Cu2   1.980316 S    
Cu2   N1    2.039962 S    
O6    C3    1.315749 A    
O4    Cu2   1.916920 S    
C17   O15   1.383087 S    
C27   C28   1.528092 S    
C16   N3    1.437839 S    
C30   C31   1.533298 S    
C19   C24   1.455733 A    
C21   C22   1.376000 A    
O2    C1    1.300516 A    
C22   C23   1.404702 A    
C11   N5    1.436400 S    
C17   C18   1.414112 A    
H4    C25   1.081970 S    
C27   H9    1.114594 S    
C20   C21   1.371464 A    
C13   C18   1.425236 A    
C21   H6    1.082988 S    
N4    O11   1.300743 A    
C14   C15   1.409917 A    
C31   H18   1.111597 S    
C30   H16   1.109774 S    
