data_mof_unit_20869.cif
_audit_creation_date              2012-10-26T19:21:05-0400
_audit_creation_method            fapswitch 2.2
_symmetry_space_group_name_H-M    P1
_symmetry_Int_Tables_number       1
_space_group_crystal_system       triclinic
_cell_length_a                    9.802629
_cell_length_b                    11.045681
_cell_length_c                    13.442969
_cell_angle_alpha                 94.254785
_cell_angle_beta                  81.4998
_cell_angle_gamma                 111.244192
_cell_volume                      1341.40885978

loop_
_atom_site_label
_atom_site_type_symbol
_atom_type_description
_atom_site_fract_x
_atom_site_fract_y
_atom_site_fract_z
_atom_type_partial_charge
C1    C     C_R   0.556475 0.745461 0.507351 0.564396
C2    C     C_R   0.373268 0.474715 0.799725 -0.002001
C3    C     C_2   0.588260 0.884593 0.511563 -0.129164
C4    C     C_R   0.421002 0.482824 0.690375 0.536469
C5    C     C_2   0.483922 0.930523 0.498790 -0.161524
C6    C     C_2   0.411487 0.115394 0.489097 -0.129495
C7    C     C_2   0.515519 0.069452 0.502603 -0.163885
C8    C     C_2   0.922299 0.489560 0.491681 -0.027526
C9    C     C_2   0.076922 0.509074 0.509293 -0.026203
C10   C     C_R   0.443443 0.254530 0.492848 0.556899
C11   C     C_R   0.577345 0.509883 0.309525 0.548991
C12   C     C_R   0.432929 0.479612 0.971287 0.035719
C13   C     C_R   0.751021 0.424400 0.059378 -0.134253
C14   C     C_R   0.617559 0.499453 0.200804 -0.001321
C15   C     C_R   0.249349 0.506768 0.838007 -0.132538
C16   C     C_R   0.214597 0.521994 0.940847 -0.143317
C17   C     C_R   0.306236 0.511470 0.006863 -0.119014
C18   C     C_R   0.458676 0.450136 0.867179 0.027084
C19   C     C_R   0.534050 0.474637 0.035596 0.031017
C20   C     C_R   0.650579 0.429789 0.996896 0.050664
C21   C     C_R   0.663401 0.387481 0.896991 -0.142444
C22   C     C_R   0.567720 0.395506 0.833517 -0.121456
C23   C     C_R   0.523307 0.513058 0.137407 -0.129067
C24   C     C_R   0.734055 0.458315 0.161129 -0.136685
Cu1   Cu    Cu3+1 0.362000 0.479240 0.482530 0.931733
Cu2   Cu    Cu3+1 0.638000 0.520760 0.517470 0.929471
H1    H     H_    0.807525 0.446742 0.209403 0.120231
H2    H     H_    0.839917 0.389995 0.030141 0.104611
H3    H     H_    0.440521 0.552012 0.170394 0.118616
H4    H     H_    0.181298 0.523984 0.788131 0.124924
H5    H     H_    0.272651 0.526184 0.085374 0.102077
H6    H     H_    0.118373 0.546431 0.969512 0.115753
H7    H     H_    0.578597 0.355162 0.758348 0.147871
H8    H     H_    0.625034 0.134533 0.516465 0.154487
H9    H     H_    0.374262 0.865437 0.485242 0.156567
H10   H     H_    0.302172 0.050032 0.475229 0.104827
H11   H     H_    0.697723 0.949960 0.525116 0.103212
H12   H     H_    0.125289 0.576520 0.568348 0.143832
H13   H     H_    0.873231 0.420843 0.433509 0.143615
H14   H     H_    0.106574 0.385368 0.400102 0.201287
H15   H     H_    0.894732 0.617070 0.598232 0.203893
H16   H     H_    0.747850 0.347694 0.867647 0.107654
N1    N     N_2   0.845330 0.551960 0.543750 -0.354290
N2    N     N_2   0.154690 0.448120 0.456210 -0.353339
O1    O     O_R   0.426290 0.668220 0.490680 -0.496097
O2    O     O_R   0.659360 0.703290 0.520190 -0.484028
O3    O     O_R   0.326580 0.473880 0.629020 -0.499026
O4    O     O_R   0.559660 0.508940 0.658530 -0.496930
O5    O     O_R   0.340640 0.296710 0.479810 -0.486332
O6    O     O_R   0.573710 0.331780 0.509320 -0.504425
O7    O     O_R   0.440340 0.491060 0.341470 -0.495501
O8    O     O_R   0.673420 0.526120 0.370980 -0.496037

loop_
_geom_bond_atom_site_label_1
_geom_bond_atom_site_label_2
_ccdc_geom_bond_type
C12   C17   A    
C6    C10   S    
C2    C4    S    
C8    N1    D    
C13   H2    S    
C6    C7    D    
C8    H13   S    
Cu2   O8    S    
C2    C18   A    
Cu1   O3    S    
C19   C23   A    
C19   C20   A    
C24   H1    S    
Cu2   O4    S    
Cu1   O7    S    
C21   C22   A    
C2    C15   A    
H15   N1    S    
C1    O1    A    
C5    H9    S    
C12   C19   A    
C13   C24   A    
C9    H12   S    
C11   C14   S    
C14   C23   A    
C6    H10   S    
Cu2   N1    S    
Cu2   O6    S    
C17   H5    S    
C7    H8    S    
Cu1   O5    S    
C1    O2    A    
C11   O7    A    
Cu2   O2    S    
Cu1   O1    S    
C14   C24   A    
C21   H16   S    
C10   O6    A    
C23   H3    S    
H14   N2    S    
C20   C21   A    
Cu1   N2    S    
C15   H4    S    
C4    O4    A    
C12   C18   A    
C5    C7    S    
C22   H7    S    
C16   H6    S    
C8    C9    S    
C9    N2    D    
C11   O8    A    
C13   C20   A    
C3    C5    D    
Cu1   Cu2   S    
C18   C22   A    
C10   O5    A    
C15   C16   A    
C3    H11   S    
C16   C17   A    
C1    C3    S    
C4    O3    A    
