data_mof_unit_7975.cif
_audit_creation_date              2012-12-10T18:09:31-0500
_audit_creation_method            fapswitch 2.2
_symmetry_space_group_name_H-M    P1
_symmetry_Int_Tables_number       1
_space_group_crystal_system       triclinic
_cell_length_a                    15.361023
_cell_length_b                    15.758301
_cell_length_c                    9.790991
_cell_angle_alpha                 90.000318
_cell_angle_beta                  89.999973
_cell_angle_gamma                 89.977113
_cell_volume                      2370.04257589

loop_
_atom_site_label
_atom_site_type_symbol
_atom_type_description
_atom_site_fract_x
_atom_site_fract_y
_atom_site_fract_z
_atom_type_partial_charge
C1    C     C_R   0.118772 0.379937 0.499250 0.921579
C2    C     C_R   0.121866 0.617635 0.500207 0.935563
C3    C     C_R   0.618772 0.879937 0.500749 0.921584
C4    C     C_R   0.621867 0.117634 0.499794 0.935557
C5    C     C_3   0.092502 0.499333 0.078381 0.624535
C6    C     C_3   0.089124 0.520612 0.919002 0.616624
C7    C     C_3   0.589123 0.020619 0.080999 0.616613
C8    C     C_3   0.592503 0.999340 0.921619 0.624533
C9    C     C_R   0.876641 0.384338 0.500441 0.904304
C10   C     C_R   0.878798 0.618376 0.499725 0.920105
C11   C     C_R   0.376641 0.884338 0.499560 0.904324
C12   C     C_R   0.378797 0.118374 0.500275 0.920093
C13   C     C_3   0.850958 0.228272 0.532746 0.108157
C14   C     C_3   0.764575 0.304518 0.356285 0.121401
C15   C     C_3   0.749690 0.683014 0.631337 0.138137
C16   C     C_3   0.852200 0.777033 0.511639 0.131164
C17   C     C_3   0.264566 0.804528 0.643714 0.121393
C18   C     C_3   0.350962 0.728269 0.467289 0.108183
C19   C     C_3   0.352199 0.277031 0.488372 0.131146
C20   C     C_3   0.249691 0.183016 0.368656 0.138152
C21   C     C_3   0.188169 0.740027 0.635705 0.207252
C22   C     C_3   0.286458 0.652956 0.491296 0.166171
C23   C     C_3   0.280965 0.348129 0.482266 0.161375
C24   C     C_3   0.171367 0.245229 0.378697 0.164582
C25   C     C_3   0.786459 0.152957 0.508719 0.166189
C26   C     C_3   0.688177 0.240017 0.364291 0.207255
C27   C     C_3   0.671367 0.745229 0.621298 0.164587
C28   C     C_3   0.780966 0.848131 0.517735 0.161371
C29   C     C_3   0.728643 0.331294 0.607679 0.664469
C30   C     C_3   0.747415 0.685964 0.367335 0.645696
C31   C     C_3   0.228651 0.831285 0.392307 0.664450
C32   C     C_3   0.247407 0.185959 0.632656 0.645705
C33   C     C_3   0.806146 0.316070 0.501795 -0.343432
C34   C     C_3   0.808593 0.687824 0.499287 -0.326958
C35   C     C_3   0.306147 0.816070 0.498208 -0.343420
C36   C     C_3   0.308591 0.187822 0.500712 -0.326959
C37   C     C_3   0.190954 0.687564 0.500360 -0.352035
C38   C     C_3   0.186844 0.310143 0.497291 -0.354408
C39   C     C_3   0.690955 0.187563 0.499642 -0.352019
C40   C     C_3   0.686845 0.810143 0.502707 -0.354410
C41   C     C_3   0.175422 0.748410 0.378484 -0.305822
C42   C     C_3   0.181803 0.260017 0.631133 -0.284456
C43   C     C_3   0.675415 0.248417 0.621508 -0.305837
C44   C     C_3   0.681805 0.760017 0.368864 -0.284444
C45   C     C_3   0.951918 0.572149 0.085063 0.187214
C46   C     C_3   0.938720 0.564152 0.922686 0.160297
C47   C     C_3   0.956412 0.423300 0.080323 0.161914
C48   C     C_3   0.971245 0.417509 0.917873 0.154920
C49   C     C_3   0.438714 0.064148 0.077313 0.160300
C50   C     C_3   0.451912 0.072145 0.914937 0.187218
C51   C     C_3   0.471253 0.917507 0.082124 0.154913
C52   C     C_3   0.456418 0.923296 0.919675 0.161913
Cu1   Cu    Cu3+1 0.000100 0.500000 0.642410 1.135936
Cu2   Cu    Cu3+1 0.000100 0.500000 0.357590 1.133216
Cu3   Cu    Cu3+1 0.500100 0.000000 0.642410 1.133213
Cu4   Cu    Cu3+1 0.500100 0.000000 0.357590 1.135940
H1    H     H_    0.904902 0.219983 0.459243 0.185190
H2    H     H_    0.815492 0.276018 0.289498 0.158478
H3    H     H_    0.788302 0.706207 0.719159 0.165084
H4    H     H_    0.888715 0.779735 0.609645 0.184341
H5    H     H_    0.315478 0.776033 0.710517 0.158469
H6    H     H_    0.404890 0.719985 0.540826 0.185184
H7    H     H_    0.388721 0.279734 0.390374 0.184342
H8    H     H_    0.288306 0.206215 0.280842 0.165087
H9    H     H_    0.105465 0.762657 0.366886 0.270126
H10   H     H_    0.194445 0.715106 0.283428 0.287517
H11   H     H_    0.194108 0.304922 0.716387 0.292661
H12   H     H_    0.114483 0.236687 0.648840 0.267775
H13   H     H_    0.694434 0.215121 0.716572 0.287519
H14   H     H_    0.605457 0.262664 0.633094 0.270116
H15   H     H_    0.614487 0.736682 0.351161 0.267789
H16   H     H_    0.694102 0.804923 0.283609 0.292659
H17   H     H_    0.886041 0.569385 0.129318 0.188809
H18   H     H_    0.870789 0.541727 0.905068 0.148027
H19   H     H_    0.884923 0.429347 0.096043 0.148019
H20   H     H_    0.907878 0.401606 0.873530 0.211000
H21   H     H_    0.370785 0.041716 0.094931 0.148034
H22   H     H_    0.386036 0.069376 0.870681 0.188811
H23   H     H_    0.407888 0.901597 0.126468 0.211004
H24   H     H_    0.384928 0.929338 0.903957 0.148010
N1    N     N_3   0.001260 0.500000 0.143650 -0.354484
N2    N     N_3   0.001260 0.500000 0.856350 -0.346001
N3    N     N_3   0.501260 0.000000 0.143650 -0.346001
N4    N     N_3   0.501260 0.000000 0.856350 -0.354484
O1    O     O_R   0.091250 0.408820 0.620260 -0.514958
O2    O     O_R   0.091250 0.408820 0.379740 -0.528151
O3    O     O_R   0.091250 0.591180 0.620260 -0.522820
O4    O     O_R   0.091250 0.591180 0.379740 -0.510321
O5    O     O_R   0.591250 0.908820 0.620260 -0.528150
O6    O     O_R   0.591250 0.908820 0.379740 -0.514957
O7    O     O_R   0.591250 0.091180 0.620260 -0.510319
O8    O     O_R   0.591250 0.091180 0.379740 -0.522819
O9    O     O_R   0.908940 0.408800 0.620260 -0.541249
O10   O     O_R   0.908940 0.408800 0.379740 -0.546408
O11   O     O_R   0.908940 0.591200 0.620260 -0.537741
O12   O     O_R   0.908940 0.591200 0.379740 -0.538400
O13   O     O_R   0.408940 0.908800 0.620260 -0.546423
O14   O     O_R   0.408940 0.908800 0.379740 -0.541245
O15   O     O_R   0.408940 0.091200 0.620260 -0.538394
O16   O     O_R   0.408940 0.091200 0.379740 -0.537736
Cl1   Cl    Cl    0.901996 0.224516 0.697264 -0.311689
Cl2   Cl    Cl    0.737291 0.398946 0.262630 -0.326221
Cl3   Cl    Cl    0.721813 0.579360 0.690632 -0.315579
Cl4   Cl    Cl    0.936912 0.794996 0.389204 -0.309431
Cl5   Cl    Cl    0.237280 0.898963 0.737350 -0.326226
Cl6   Cl    Cl    0.402043 0.724506 0.302801 -0.311687
Cl7   Cl    Cl    0.436899 0.294994 0.610824 -0.309437
Cl8   Cl    Cl    0.221819 0.079364 0.309343 -0.315578
H25   H     H_    0.202942 0.695719 0.717780 0.186409
H26   H     H_    0.302954 0.623906 0.591691 0.164700
H27   H     H_    0.284865 0.378921 0.380181 0.182419
H28   H     H_    0.167666 0.279291 0.280833 0.218842
H29   H     H_    0.802965 0.123912 0.408324 0.164683
H30   H     H_    0.702957 0.195702 0.282225 0.186398
H31   H     H_    0.667665 0.779291 0.719164 0.218838
H32   H     H_    0.784863 0.878927 0.619816 0.182425
Cl9   Cl    Cl    0.081980 0.784651 0.667864 -0.293375
Cl10  Cl    Cl    0.304209 0.567105 0.375779 -0.320094
Cl11  Cl    Cl    0.302725 0.430597 0.602954 -0.328717
Cl12  Cl    Cl    0.068792 0.191396 0.393699 -0.368393
Cl13  Cl    Cl    0.804208 0.067099 0.624222 -0.320106
Cl14  Cl    Cl    0.581989 0.284638 0.332113 -0.293369
Cl15  Cl    Cl    0.568792 0.691397 0.606290 -0.368378
Cl16  Cl    Cl    0.802727 0.930592 0.397038 -0.328702
Cl17  Cl    Cl    0.758988 0.362480 0.776417 -0.418910
Cl18  Cl    Cl    0.655755 0.413592 0.555045 -0.241789
Cl19  Cl    Cl    0.688924 0.588411 0.357164 -0.301687
Cl20  Cl    Cl    0.800686 0.696863 0.206973 -0.383630
Cl21  Cl    Cl    0.155764 0.913590 0.444912 -0.241790
Cl22  Cl    Cl    0.259009 0.862450 0.223566 -0.418947
Cl23  Cl    Cl    0.300667 0.196841 0.793028 -0.383641
Cl24  Cl    Cl    0.188904 0.088410 0.642799 -0.301666
Cl25  Cl    Cl    0.997926 0.671529 0.141825 -0.277778
Cl26  Cl    Cl    0.932506 0.669956 0.852876 -0.356284
Cl27  Cl    Cl    0.976061 0.322879 0.162720 -0.369682
Cl28  Cl    Cl    0.037574 0.329168 0.868375 -0.342287
Cl29  Cl    Cl    0.432491 0.169953 0.147121 -0.356282
Cl30  Cl    Cl    0.497913 0.171528 0.858176 -0.277763
Cl31  Cl    Cl    0.537588 0.829169 0.131617 -0.342292
Cl32  Cl    Cl    0.476073 0.822878 0.837273 -0.369704
Cl33  Cl    Cl    0.171522 0.566792 0.152249 -0.342526
Cl34  Cl    Cl    0.117093 0.629802 0.893623 -0.374400
Cl35  Cl    Cl    0.150618 0.401852 0.108933 -0.390517
Cl36  Cl    Cl    0.178776 0.473271 0.834565 -0.343396
Cl37  Cl    Cl    0.617081 0.129813 0.106378 -0.374369
Cl38  Cl    Cl    0.671519 0.066806 0.847755 -0.342515
Cl39  Cl    Cl    0.678777 0.973284 0.165437 -0.343400
Cl40  Cl    Cl    0.650627 0.901863 0.891064 -0.390512

loop_
_geom_bond_atom_site_label_1
_geom_bond_atom_site_label_2
_ccdc_geom_bond_type
C16   C28   S    
C7    N3    S    
Cu3   Cu4   S    
C6    N2    S    
C29   Cl17  S    
Cu1   O11   S    
C48   H20   S    
C24   H28   S    
Cu4   O14   S    
C13   C25   S    
C14   C33   S    
C18   Cl6   S    
C50   N4    S    
C7    C8    S    
Cu1   Cu2   S    
C7    Cl37  S    
C11   O14   A    
C32   C36   S    
C17   C35   S    
C38   C42   S    
C31   Cl22  S    
C17   Cl5   S    
C19   C36   S    
C49   H21   S    
C23   Cl11  S    
C5    C6    S    
C26   C39   S    
C14   Cl2   S    
C13   H1    S    
C28   C40   S    
C29   C33   S    
C44   H15   S    
C45   H17   S    
C16   H4    S    
C52   N4    S    
C12   O15   A    
C21   Cl9   S    
C28   H32   S    
C16   C34   S    
C46   N2    S    
C5    Cl33  S    
C16   Cl4   S    
C27   H31   S    
C20   C24   S    
C19   H7    S    
C22   H26   S    
C24   C38   S    
C2    O4    A    
C12   C36   S    
C18   C35   S    
C15   C34   S    
Cu2   O12   S    
C4    O7    A    
C17   H5    S    
Cu4   O6    S    
C43   H13   S    
C8    N4    S    
C29   Cl18  S    
C29   C43   S    
C9    C33   S    
C30   C44   S    
C8    Cl40  S    
Cu3   O7    S    
C50   H22   S    
C7    Cl39  S    
C1    O1    A    
C14   H2    S    
C30   Cl20  S    
C24   Cl12  S    
Cu2   O10   S    
C30   C34   S    
Cu1   O9    S    
C51   C52   S    
Cu1   O3    S    
Cu2   O2    S    
C27   Cl15  S    
C18   H6    S    
C41   H9    S    
C45   C46   S    
C22   C37   S    
C17   C21   S    
C13   Cl1   S    
Cu1   N2    S    
C20   H8    S    
C51   N3    S    
C19   C23   S    
C26   H30   S    
C13   C33   S    
C42   H12   S    
C25   H29   S    
C46   Cl26  S    
C5    N1    S    
C15   C27   S    
C47   C48   S    
C4    C39   S    
C10   O12   A    
C27   C40   S    
Cu3   O13   S    
C28   Cl16  S    
C2    O3    A    
C10   C34   S    
C14   C26   S    
C1    C38   S    
C3    C40   S    
C43   H14   S    
C3    O6    A    
C4    O8    A    
C42   H11   S    
C31   C35   S    
C6    Cl34  S    
Cu4   O16   S    
C6    Cl36  S    
C9    O9    A    
C46   H18   S    
Cu4   N3    S    
C49   Cl29  S    
C1    O2    A    
C22   Cl10  S    
C30   Cl19  S    
C31   C41   S    
C32   Cl24  S    
C47   Cl27  S    
C18   C22   S    
C15   H3    S    
C48   Cl28  S    
C8    Cl38  S    
C21   H25   S    
C50   Cl30  S    
C41   H10   S    
C23   C38   S    
C23   H27   S    
C45   Cl25  S    
C11   O13   A    
C3    O5    A    
C49   N3    S    
C11   C35   S    
C47   H19   S    
Cu3   O5    S    
C25   C39   S    
Cu2   O4    S    
C2    C37   S    
C10   O11   A    
C52   Cl32  S    
C48   N2    S    
C44   H16   S    
C45   N1    S    
C47   N1    S    
C37   C41   S    
C51   H23   S    
C12   O16   A    
C5    Cl35  S    
C20   C36   S    
C40   C44   S    
C21   C37   S    
C39   C43   S    
C31   Cl21  S    
C49   C50   S    
Cu3   O15   S    
C32   C42   S    
Cu1   O1    S    
C26   Cl14  S    
C15   Cl3   S    
Cu3   N4    S    
C52   H24   S    
Cu4   O8    S    
C25   Cl13  S    
C9    O10   A    
Cu2   N1    S    
C32   Cl23  S    
C51   Cl31  S    
C20   Cl8   S    
C19   Cl7   S    
