data_mof_unit_54248.cif
_audit_creation_date              2012-12-11T14:13:14-0500
_audit_creation_method            fapswitch 2.2
_symmetry_space_group_name_H-M    P1
_symmetry_Int_Tables_number       1
_space_group_crystal_system       triclinic
_cell_length_a                    11.600357
_cell_length_b                    18.638848
_cell_length_c                    9.956003
_cell_angle_alpha                 89.999975
_cell_angle_beta                  110.769462
_cell_angle_gamma                 90.0
_cell_volume                      2012.76898107

loop_
_atom_site_label
_atom_site_type_symbol
_atom_type_description
_atom_site_fract_x
_atom_site_fract_y
_atom_site_fract_z
_atom_type_partial_charge
C1    C     C_R   0.072267 0.646734 0.139900 0.549923
C2    C     C_R   0.927733 0.353266 0.860100 0.549923
C3    C     C_R   0.927733 0.146734 0.860100 0.549923
C4    C     C_R   0.072267 0.853266 0.139900 0.549923
C5    C     C_R   0.393652 0.457178 0.474366 0.010110
C6    C     C_R   0.606348 0.542822 0.525635 0.010110
C7    C     C_R   0.606348 0.957178 0.525633 0.010110
C8    C     C_R   0.393651 0.042822 0.474365 0.010110
C9    C     C_2   0.408758 0.922876 0.918556 -0.115856
C10   C     C_2   0.591241 0.077124 0.081444 -0.115855
C11   C     C_2   0.591241 0.422876 0.081444 -0.115856
C12   C     C_2   0.408759 0.577124 0.918556 -0.115855
C13   C     C_2   0.490410 0.963437 0.016723 -0.144039
C14   C     C_2   0.509588 0.036563 0.983277 -0.144041
C15   C     C_2   0.509589 0.463437 0.983277 -0.144041
C16   C     C_2   0.490411 0.536563 0.016723 -0.144041
C17   C     C_2   0.004154 0.919929 0.109514 -0.010220
C18   C     C_2   0.995847 0.080071 0.890487 -0.010221
C19   C     C_2   0.995846 0.419929 0.890486 -0.010221
C20   C     C_2   0.004153 0.580071 0.109514 -0.010221
C21   C     C_2   0.030813 0.965682 0.020744 -0.161507
C22   C     C_2   0.969195 0.034321 0.979268 -0.161509
C23   C     C_2   0.969190 0.465680 0.979261 -0.161508
C24   C     C_2   0.030807 0.534320 0.020736 -0.161508
C25   C     C_R   0.469054 0.646799 0.442792 0.527963
C26   C     C_R   0.530946 0.353201 0.557208 0.527962
C27   C     C_R   0.530946 0.146799 0.557208 0.527963
C28   C     C_R   0.469054 0.853201 0.442792 0.527962
C29   C     C_R   0.376797 0.645683 0.962708 0.546363
C30   C     C_R   0.623202 0.354317 0.037292 0.546364
C31   C     C_R   0.623202 0.145683 0.037292 0.546364
C32   C     C_R   0.376797 0.854317 0.962708 0.546363
C33   C     C_R   0.507459 0.425012 0.490451 -0.037110
C34   C     C_R   0.492541 0.574988 0.509549 -0.037110
C35   C     C_R   0.492541 0.925012 0.509549 -0.037110
C36   C     C_R   0.507458 0.074989 0.490450 -0.037110
C37   C     C_R   0.284226 0.416049 0.436596 -0.076633
C38   C     C_R   0.715775 0.583951 0.563405 -0.076633
C39   C     C_R   0.715774 0.916050 0.563401 -0.076632
C40   C     C_R   0.284225 0.083951 0.436595 -0.076633
C41   C     C_R   0.175207 0.446156 0.439236 -0.093636
C42   C     C_R   0.824793 0.553844 0.560766 -0.093636
C43   C     C_R   0.824792 0.946156 0.560760 -0.093636
C44   C     C_R   0.175207 0.053844 0.439233 -0.093637
C45   C     C_R   0.174622 0.516708 0.483817 -0.087547
C46   C     C_R   0.825379 0.483292 0.516185 -0.087547
C47   C     C_R   0.825377 0.016709 0.516178 -0.087550
C48   C     C_R   0.174621 0.983292 0.483814 -0.087547
C49   C     C_R   0.280626 0.558555 0.516324 -0.074995
C50   C     C_R   0.719375 0.441445 0.483677 -0.074994
C51   C     C_R   0.719373 0.058555 0.483673 -0.074996
C52   C     C_R   0.280625 0.941445 0.516322 -0.074993
C53   C     C_R   0.389258 0.531135 0.500678 0.002380
C54   C     C_R   0.610742 0.468865 0.499323 0.002380
C55   C     C_R   0.610741 0.031135 0.499321 0.002381
C56   C     C_R   0.389258 0.968865 0.500677 0.002380
Cr1   Cr    Cr6+3 0.187610 0.750000 0.979860 1.014396
Cr2   Cr    Cr6+3 0.812390 0.250000 0.020140 1.014395
Cr3   Cr    Cr6+3 0.245810 0.750000 0.341640 1.010979
Cr4   Cr    Cr6+3 0.754190 0.250000 0.658360 1.010979
Cr5   Cr    Cr6+3 0.485760 0.750000 0.219910 1.041299
Cr6   Cr    Cr6+3 0.514240 0.250000 0.780090 1.041297
H1    H     H_    0.092300 0.414012 0.411498 0.118791
H2    H     H_    0.907700 0.585988 0.588504 0.118791
H3    H     H_    0.907699 0.914013 0.588496 0.118791
H4    H     H_    0.092299 0.085987 0.411495 0.118790
H5    H     H_    0.091942 0.539161 0.493658 0.128946
H6    H     H_    0.908058 0.460839 0.506344 0.128946
H7    H     H_    0.908055 0.039161 0.506336 0.128943
H8    H     H_    0.091941 0.960839 0.493654 0.128943
H9    H     H_    0.283002 0.360351 0.405043 0.118096
H10   H     H_    0.716998 0.639648 0.594957 0.118096
H11   H     H_    0.716998 0.860352 0.594954 0.118096
H12   H     H_    0.283002 0.139649 0.405042 0.118096
H13   H     H_    0.277131 0.611491 0.558856 0.141132
H14   H     H_    0.722869 0.388509 0.441145 0.141132
H15   H     H_    0.722867 0.111492 0.441141 0.141131
H16   H     H_    0.277130 0.888509 0.558855 0.141132
H17   H     H_    0.460386 0.056253 0.874999 0.182217
H18   H     H_    0.539611 0.943748 0.125002 0.182219
H19   H     H_    0.539612 0.556252 0.125002 0.182216
H20   H     H_    0.460388 0.443747 0.874999 0.182217
H21   H     H_    0.645024 0.055845 0.186503 0.122599
H22   H     H_    0.354977 0.944155 0.813496 0.122599
H23   H     H_    0.354977 0.555845 0.813496 0.122598
H24   H     H_    0.645023 0.444155 0.186504 0.122599
H25   H     H_    0.897543 0.048130 0.021648 0.166487
H26   H     H_    0.102471 0.951874 0.978371 0.166484
H27   H     H_    0.102460 0.548129 0.978357 0.166486
H28   H     H_    0.897536 0.451872 0.021639 0.166486
O1    O     O_R   0.267710 0.668200 0.902110 -0.523354
O2    O     O_R   0.732290 0.331800 0.097890 -0.523354
O3    O     O_R   0.732290 0.168200 0.097890 -0.523355
O4    O     O_R   0.267710 0.831800 0.902110 -0.523353
O5    O     O_R   0.099480 0.674460 0.038850 -0.509281
O6    O     O_R   0.900520 0.325540 0.961150 -0.509281
O7    O     O_R   0.900520 0.174460 0.961150 -0.509282
O8    O     O_R   0.099480 0.825540 0.038850 -0.509279
O9    O     O_R   0.116720 0.669210 0.267660 -0.513762
O10   O     O_R   0.883280 0.330790 0.732340 -0.513763
O11   O     O_R   0.883280 0.169210 0.732340 -0.513761
O12   O     O_R   0.116720 0.830790 0.267660 -0.513763
O13   O     O_R   0.366710 0.675440 0.427590 -0.514708
O14   O     O_R   0.633290 0.324560 0.572410 -0.514708
O15   O     O_R   0.633290 0.175440 0.572410 -0.514708
O16   O     O_R   0.366710 0.824560 0.427590 -0.514708
O17   O     O_R   0.534870 0.669390 0.371760 -0.509752
O18   O     O_R   0.465130 0.330610 0.628240 -0.509752
O19   O     O_R   0.465130 0.169390 0.628240 -0.509752
O20   O     O_R   0.534870 0.830610 0.371760 -0.509752
O21   O     O_R   0.453080 0.674480 0.075160 -0.493487
O22   O     O_R   0.546920 0.325520 0.924840 -0.493487
O23   O     O_R   0.546920 0.174480 0.924840 -0.493488
O24   O     O_R   0.453080 0.825520 0.075160 -0.493487
O25   O     O_3   0.306390 0.750000 0.180470 -0.245035
O26   O     O_3   0.693610 0.250000 0.819530 -0.245034
C57   C     C_1   0.086188 0.065427 0.824355 0.174282
N1    N     N_1   0.158826 0.053903 0.772081 -0.334214
C58   C     C_1   0.913803 0.934569 0.175633 0.174277
N2    N     N_1   0.841156 0.946090 0.227896 -0.334210
C59   C     C_1   0.913811 0.565428 0.175645 0.174280
N3    N     N_1   0.841171 0.553904 0.227917 -0.334213
C60   C     C_1   0.086191 0.434571 0.824358 0.174278
N4    N     N_1   0.158832 0.446094 0.772087 -0.334213

loop_
_geom_bond_atom_site_label_1
_geom_bond_atom_site_label_2
_ccdc_geom_bond_type
C32   O4    A    
C4    O8    A    
C12   C29   S    
Cr3   O9    S    
C44   H4    S    
C7    C55   A    
C24   H27   S    
C1    O9    A    
C60   N4    T    
Cr1   O25   S    
Cr6   O26   S    
C19   C60   S    
C50   C54   A    
C12   H23   S    
C5    C53   A    
Cr2   O3    S    
C38   C42   A    
C5    C37   A    
C42   C46   A    
Cr6   O18   S    
C27   O15   A    
C11   H24   S    
C15   C16   S    
C10   H21   S    
C3    C18   S    
C8    C36   A    
C9    C13   D    
C47   H7    S    
Cr2   O6    S    
C9    C32   S    
C26   O14   A    
C11   C15   D    
C10   C31   S    
C20   C24   D    
C11   C30   S    
C28   O16   A    
C4    O12   A    
Cr5   O25   S    
C23   C24   S    
C6    C38   A    
C40   C44   A    
C43   H3    S    
C25   C34   S    
C3    O11   A    
C35   C56   A    
C13   H18   S    
C2    O10   A    
C13   C14   S    
Cr2   O26   S    
C8    C56   A    
Cr2   O7    S    
C6    C54   A    
C52   H16   S    
Cr5   O20   S    
C15   H20   S    
C38   H10   S    
Cr3   O16   S    
C12   C16   D    
C28   C35   S    
Cr6   O23   S    
C30   O2    A    
C10   C14   D    
C26   O18   A    
C25   O13   A    
C39   C43   A    
C28   O20   A    
C31   O3    A    
C17   C21   D    
C6    C34   A    
C30   O22   A    
C19   C23   D    
C51   H15   S    
C46   H6    S    
C50   H14   S    
C3    O7    A    
C26   C33   S    
C45   C49   A    
C1    O5    A    
C49   H13   S    
C59   N3    T    
C23   H28   S    
C22   H25   S    
C18   C57   S    
C20   C59   S    
C4    C17   S    
Cr1   O4    S    
C37   H9    S    
Cr4   O26   S    
C41   H1    S    
Cr4   O11   S    
Cr5   O21   S    
C42   H2    S    
C29   O1    A    
C25   O17   A    
C33   C54   A    
C1    C20   S    
C7    C39   A    
Cr1   O1    S    
C2    C19   S    
C18   C22   D    
Cr3   O12   S    
C7    C35   A    
C29   O21   A    
C48   H8    S    
Cr4   O10   S    
C47   C51   A    
C58   N2    T    
C45   H5    S    
C27   C36   S    
C46   C50   A    
Cr3   O13   S    
C2    O6    A    
C36   C55   A    
Cr4   O14   S    
C57   N1    T    
Cr6   O19   S    
Cr2   O2    S    
C49   C53   A    
Cr1   O8    S    
C16   H19   S    
C40   H12   S    
C51   C55   A    
C5    C33   A    
C39   H11   S    
C37   C41   A    
Cr5   O17   S    
C21   H26   S    
C14   H17   S    
C17   C58   S    
C9    H22   S    
C44   C48   A    
C48   C52   A    
Cr6   O22   S    
C27   O19   A    
C34   C53   A    
Cr3   O25   S    
Cr1   O5    S    
Cr5   O24   S    
C41   C45   A    
C8    C40   A    
C32   O24   A    
C21   C22   S    
C43   C47   A    
C31   O23   A    
Cr4   O15   S    
C52   C56   A    
