data_mof_unit_27581.cif
_audit_creation_date              2013-03-05T15:44:01-0500
_audit_creation_method            fapswitch 2.2
_symmetry_space_group_name_H-M    P1
_symmetry_Int_Tables_number       1
_space_group_crystal_system       triclinic
_cell_length_a                    30.701868
_cell_length_b                    22.292146
_cell_length_c                    17.983149
_cell_angle_alpha                 89.535005
_cell_angle_beta                  123.416139
_cell_angle_gamma                 90.427384
_cell_volume                      10272.8745671

loop_
_atom_site_label
_atom_site_type_symbol
_atom_site_description
_atom_site_fract_x
_atom_site_fract_y
_atom_site_fract_z
_atom_type_partial_charge
C1    C     C_R   0.548517 0.580296 0.747583 0.389974
C2    C     C_R   0.465101 0.390914 0.289310 0.279415
C3    C     C_R   0.457211 0.591122 0.262877 0.341387
C4    C     C_R   0.536379 0.393567 0.716468 0.341191
C5    C     C_R   0.041452 0.094935 0.732424 0.347413
C6    C     C_R   0.959149 0.903893 0.269298 0.364639
C7    C     C_R   0.952038 0.077187 0.251523 0.401682
C8    C     C_R   0.041806 0.902228 0.731170 0.323896
N1    N     N_R   0.532970 0.559900 0.665210 -0.107211
N2    N     N_R   0.467030 0.440100 0.334790 -0.090425
N3    N     N_R   0.467030 0.559900 0.334790 -0.102513
N4    N     N_R   0.532970 0.440100 0.665210 -0.104540
N5    N     N_R   0.032970 0.059900 0.665210 -0.103776
N6    N     N_R   0.967030 0.940100 0.334790 -0.111560
N7    N     N_R   0.967030 0.059900 0.334790 -0.103862
N8    N     N_R   0.032970 0.940100 0.665210 -0.106185
C9    C     C_R   0.645956 0.578296 0.572322 -0.209738
C10   C     C_R   0.354016 0.421493 0.427667 -0.183933
C11   C     C_R   0.374623 0.610636 0.425002 -0.232980
C12   C     C_R   0.643048 0.413291 0.572458 -0.209437
C13   C     C_R   0.125377 0.110970 0.574033 -0.239097
C14   C     C_R   0.872373 0.890918 0.425497 -0.213366
C15   C     C_R   0.853835 0.076244 0.428692 -0.233108
C16   C     C_R   0.145308 0.919435 0.572670 -0.164291
H1    H     H_    0.678922 0.575315 0.640538 0.184572
H2    H     H_    0.320897 0.425075 0.359666 0.172167
H3    H     H_    0.347185 0.621192 0.355923 0.145746
H4    H     H_    0.675820 0.410272 0.640827 0.146154
H5    H     H_    0.153831 0.121186 0.642671 0.144984
H6    H     H_    0.843716 0.881337 0.356841 0.138508
H7    H     H_    0.820620 0.075952 0.360413 0.152303
H8    H     H_    0.178553 0.922010 0.640663 0.153384
N9    N     N_R   0.597900 0.559930 0.545530 -0.084266
N10   N     N_R   0.402100 0.440070 0.454470 -0.091147
N11   N     N_R   0.402100 0.559930 0.454470 -0.082644
N12   N     N_R   0.597900 0.440070 0.545530 -0.081691
N13   N     N_R   0.097900 0.059930 0.545530 -0.081797
N14   N     N_R   0.902100 0.940070 0.454470 -0.077936
N15   N     N_R   0.902100 0.059930 0.454470 -0.078766
N16   N     N_R   0.097900 0.940070 0.545530 -0.087722
C17   C     C_R   0.597847 0.573500 0.425537 0.781523
C18   C     C_R   0.401890 0.425753 0.573959 0.804560
C19   C     C_R   0.424184 0.612042 0.572401 0.760464
C20   C     C_R   0.594371 0.415787 0.425038 0.729780
C21   C     C_R   0.073949 0.113498 0.426910 0.764912
C22   C     C_R   0.920982 0.889759 0.572794 0.732219
C23   C     C_R   0.902538 0.070363 0.575296 0.781256
C24   C     C_R   0.097277 0.923585 0.425857 0.775860
N17   N     N_R   0.567170 0.559950 0.454460 -0.128072
N18   N     N_R   0.432830 0.440050 0.545540 -0.124703
N19   N     N_R   0.432830 0.559950 0.545540 -0.108812
N20   N     N_R   0.567170 0.440050 0.454460 -0.129684
N21   N     N_R   0.067170 0.059950 0.454460 -0.105102
N22   N     N_R   0.932830 0.940050 0.545540 -0.107211
N23   N     N_R   0.932830 0.059950 0.545540 -0.126563
N24   N     N_R   0.067170 0.940050 0.454460 -0.123283
C25   C     C_R   0.383972 0.587476 0.259947 -0.164689
C26   C     C_R   0.609100 0.394619 0.716910 -0.142331
C27   C     C_R   0.617789 0.584010 0.739108 -0.155327
C28   C     C_R   0.394921 0.389786 0.297664 -0.119870
C29   C     C_R   0.882767 0.085334 0.259889 -0.154148
C30   C     C_R   0.110346 0.897116 0.718925 -0.116078
C31   C     C_R   0.115233 0.090869 0.736965 -0.168959
C32   C     C_R   0.885691 0.906297 0.265707 -0.163814
H9    H     H_    0.343174 0.585667 0.236286 0.130163
H10   H     H_    0.647409 0.385596 0.731011 0.130472
H11   H     H_    0.657768 0.581139 0.758129 0.191529
H12   H     H_    0.359816 0.377075 0.293926 0.176112
H13   H     H_    0.843072 0.086299 0.242512 0.135867
H14   H     H_    0.146571 0.885977 0.726017 0.154287
H15   H     H_    0.156295 0.090837 0.762051 0.125811
H16   H     H_    0.844657 0.903880 0.240507 0.137182
N25   N     N_R   0.421470 0.559970 0.334770 -0.062905
N26   N     N_R   0.578530 0.440030 0.665230 -0.066061
N27   N     N_R   0.578530 0.559970 0.665230 -0.072451
N28   N     N_R   0.421470 0.440030 0.334770 -0.063911
N29   N     N_R   0.921470 0.059970 0.334770 -0.069068
N30   N     N_R   0.078530 0.940030 0.665230 -0.070111
N31   N     N_R   0.078530 0.059970 0.665230 -0.061890
N32   N     N_R   0.921470 0.940030 0.334770 -0.064012
C33   C     C_R   0.601155 0.597202 0.794292 -0.131291
C34   C     C_R   0.421245 0.356821 0.269048 -0.089300
C35   C     C_R   0.405116 0.608864 0.213190 -0.087792
C36   C     C_R   0.583229 0.362921 0.749239 -0.086651
C37   C     C_R   0.092676 0.115247 0.779026 -0.091777
C38   C     C_R   0.909199 0.881134 0.226007 -0.076082
C39   C     C_R   0.900481 0.097961 0.205061 -0.112647
C40   C     C_R   0.087385 0.869945 0.759151 -0.082288
C41   C     C_R   0.647509 0.586316 0.497553 -0.146468
C42   C     C_R   0.352496 0.411975 0.502116 -0.122854
C43   C     C_R   0.388958 0.646108 0.498068 -0.128336
C44   C     C_R   0.641196 0.396384 0.497018 -0.111940
C45   C     C_R   0.109669 0.147432 0.500633 -0.123470
C46   C     C_R   0.885271 0.856170 0.498807 -0.116882
C47   C     C_R   0.853029 0.081931 0.504365 -0.132758
C48   C     C_R   0.146216 0.908433 0.498029 -0.117917
Ni1   Ni    Ni4+2 0.483030 0.500000 0.604430 0.345118
Ni2   Ni    Ni4+2 0.516970 0.500000 0.395570 0.351261
Ni3   Ni    Ni4+2 0.983030 0.000000 0.604430 0.349783
Ni4   Ni    Ni4+2 0.016970 0.000000 0.395570 0.345592
Ni5   Ni    Ni4+2 0.587400 0.500000 0.604430 0.198053
Ni6   Ni    Ni4+2 0.412600 0.500000 0.395570 0.207186
Ni7   Ni    Ni4+2 0.087400 0.000000 0.604430 0.199872
Ni8   Ni    Ni4+2 0.912600 0.000000 0.395570 0.199699
C49   C     C_R   0.656411 0.320065 0.416620 -0.190374
C50   C     C_R   0.384617 0.737845 0.573922 -0.187289
C51   C     C_R   0.256813 0.393078 0.425198 -0.170124
C52   C     C_R   0.687091 0.613204 0.413068 -0.158570
C53   C     C_R   0.184102 0.875829 0.413569 -0.145163
C54   C     C_R   0.825245 0.132276 0.591222 -0.176186
C55   C     C_R   0.881838 0.763452 0.575305 -0.184437
C56   C     C_R   0.168483 0.233312 0.584535 -0.226818
C57   C     C_R   0.676255 0.355612 0.492922 0.144969
C58   C     C_R   0.368260 0.706211 0.495236 0.140410
C59   C     C_R   0.306366 0.398053 0.504666 0.125274
C60   C     C_R   0.693728 0.598213 0.494730 0.133899
C61   C     C_R   0.191656 0.892554 0.495079 0.127041
C62   C     C_R   0.811067 0.104106 0.511334 0.145148
C63   C     C_R   0.864397 0.796085 0.496489 0.128553
C64   C     C_R   0.129193 0.208613 0.502568 0.145093
C65   C     C_R   0.724464 0.342665 0.570647 -0.182361
C66   C     C_R   0.327583 0.729514 0.413221 -0.221101
C67   C     C_R   0.312818 0.382435 0.586072 -0.147172
C68   C     C_R   0.743365 0.603201 0.574026 -0.212212
C69   C     C_R   0.241535 0.887849 0.573929 -0.162997
C70   C     C_R   0.762002 0.114224 0.433715 -0.224838
C71   C     C_R   0.824617 0.772120 0.414469 -0.147801
C72   C     C_R   0.113740 0.239746 0.423321 -0.199115
C73   C     C_R   0.749801 0.289982 0.576340 0.167994
C74   C     C_R   0.296886 0.775858 0.410911 0.118831
C75   C     C_R   0.272265 0.355879 0.587665 0.070867
C76   C     C_R   0.783459 0.632612 0.573521 0.112452
C77   C     C_R   0.281693 0.859725 0.572998 0.114504
C78   C     C_R   0.732297 0.161960 0.430913 0.122254
C79   C     C_R   0.796278 0.722564 0.411967 0.164264
C80   C     C_R   0.143645 0.287521 0.424438 0.093002
C81   C     C_R   0.727840 0.251983 0.501429 0.050580
C82   C     C_R   0.308621 0.801190 0.491542 0.051850
C83   C     C_R   0.224766 0.343863 0.506632 0.041834
C84   C     C_R   0.774054 0.654543 0.492144 0.045154
C85   C     C_R   0.272230 0.838606 0.491598 0.040855
C86   C     C_R   0.752039 0.198000 0.507429 0.051017
C87   C     C_R   0.808907 0.695475 0.492524 0.036837
C88   C     C_R   0.188249 0.305576 0.506182 0.052927
C89   C     C_R   0.681868 0.268130 0.420405 0.089671
C90   C     C_R   0.354229 0.784432 0.572914 0.090757
C91   C     C_R   0.216228 0.364668 0.425350 0.109927
C92   C     C_R   0.726861 0.641362 0.411181 0.080666
C93   C     C_R   0.224113 0.849598 0.411139 0.068790
C94   C     C_R   0.797639 0.181575 0.588819 0.087848
C95   C     C_R   0.853387 0.714040 0.574180 0.100798
C96   C     C_R   0.199078 0.280519 0.586870 0.120977
C97   C     C_R   0.794889 0.272931 0.657235 -0.133360
C98   C     C_R   0.251453 0.792500 0.330110 -0.174832
C99   C     C_R   0.280380 0.335614 0.668366 -0.135818
C100  C     C_R   0.830571 0.646254 0.653690 -0.157289
C101  C     C_R   0.329548 0.847746 0.652787 -0.147838
C102  C     C_R   0.686217 0.178018 0.350830 -0.182295
C103  C     C_R   0.752357 0.703629 0.330781 -0.154759
C104  C     C_R   0.132910 0.313096 0.344486 -0.172406
C105  C     C_R   0.365713 0.810188 0.652757 -0.162950
C106  C     C_R   0.660766 0.230752 0.345823 -0.159519
C107  C     C_R   0.717670 0.663024 0.330375 -0.187395
C108  C     C_R   0.169062 0.351662 0.344967 -0.139822
C109  C     C_R   0.818259 0.218329 0.663891 -0.175801
C110  C     C_R   0.214971 0.828996 0.330276 -0.129237
C111  C     C_R   0.243679 0.298350 0.668004 -0.177705
C112  C     C_R   0.865546 0.686774 0.653988 -0.171218
H17   H     H_    0.618896 0.329386 0.356283 0.198981
H18   H     H_    0.418423 0.724174 0.637120 0.207026
H19   H     H_    0.250604 0.406680 0.362218 0.162472
H20   H     H_    0.649526 0.609816 0.351022 0.214322
H21   H     H_    0.146077 0.877883 0.352140 0.212464
H22   H     H_    0.862263 0.123392 0.652615 0.215093
H23   H     H_    0.915203 0.778061 0.638443 0.187530
H24   H     H_    0.178958 0.212756 0.646886 0.124435
H25   H     H_    0.740182 0.370810 0.628930 0.123034
H26   H     H_    0.316212 0.708536 0.351055 0.125075
H27   H     H_    0.350446 0.385288 0.648155 0.213008
H28   H     H_    0.749727 0.589604 0.637148 0.166699
H29   H     H_    0.248428 0.901892 0.637001 0.147085
H30   H     H_    0.749978 0.090247 0.373070 0.137835
H31   H     H_    0.812603 0.793985 0.352206 0.114123
H32   H     H_    0.081399 0.224754 0.359616 0.205661
H33   H     H_    0.811549 0.301361 0.715434 0.129138
H34   H     H_    0.242420 0.773933 0.267589 0.143090
H35   H     H_    0.316436 0.345550 0.731234 0.162104
H36   H     H_    0.838673 0.628914 0.716570 0.158418
H37   H     H_    0.337628 0.864345 0.715688 0.146748
H38   H     H_    0.670664 0.150667 0.291793 0.145183
H39   H     H_    0.742967 0.723285 0.268292 0.135168
H40   H     H_    0.098297 0.300274 0.281228 0.145766
H41   H     H_    0.401033 0.798321 0.715682 0.152648
H42   H     H_    0.625101 0.242759 0.283472 0.157807
H43   H     H_    0.681933 0.652062 0.267564 0.156337
H44   H     H_    0.161692 0.368018 0.282116 0.154841
H45   H     H_    0.853552 0.205975 0.726608 0.150398
H46   H     H_    0.178389 0.838172 0.267838 0.165274
H47   H     H_    0.252035 0.280039 0.730572 0.141511
H48   H     H_    0.900119 0.699924 0.717091 0.144088
C113  C     C_R   0.375693 0.635393 0.122209 0.112332
C114  C     C_R   0.600958 0.306009 0.802076 0.109619
C115  C     C_R   0.639519 0.610770 0.889226 0.143105
C116  C     C_R   0.402857 0.297285 0.227237 0.152867
C117  C     C_R   0.867548 0.118107 0.110333 0.128426
C118  C     C_R   0.103575 0.811062 0.804907 0.155187
C119  C     C_R   0.119352 0.148575 0.863528 0.120288
C120  C     C_R   0.886467 0.837768 0.153647 0.107115
C121  C     C_R   0.373740 0.692614 0.004917 -0.147515
C122  C     C_R   0.595169 0.231077 0.895581 -0.174495
C123  C     C_R   0.681211 0.595497 0.048634 -0.178562
C124  C     C_R   0.415806 0.192966 0.205488 -0.168335
C125  C     C_R   0.858532 0.158344 0.976309 -0.160556
C126  C     C_R   0.085329 0.715280 0.848470 -0.171912
C127  C     C_R   0.116037 0.221144 0.959697 -0.149175
C128  C     C_R   0.873676 0.801711 0.016621 -0.148493
C129  C     C_R   0.401379 0.667633 0.089707 -0.091560
C130  C     C_R   0.580024 0.285679 0.850401 -0.080313
C131  C     C_R   0.638955 0.585556 0.960658 -0.087009
C132  C     C_R   0.436478 0.249787 0.241170 -0.079573
C133  C     C_R   0.889944 0.139909 0.065118 -0.066545
C134  C     C_R   0.069222 0.772895 0.811771 -0.100161
C135  C     C_R   0.091712 0.190323 0.879879 -0.096454
C136  C     C_R   0.893237 0.844536 0.083182 -0.063487
C137  C     C_R   0.321118 0.629922 0.067959 -0.139424
C138  C     C_R   0.639457 0.271159 0.803915 -0.150140
C139  C     C_R   0.683573 0.642490 0.907303 -0.172907
C140  C     C_R   0.349599 0.285520 0.184099 -0.159921
C141  C     C_R   0.813020 0.117944 0.065695 -0.151977
C142  C     C_R   0.152323 0.789118 0.830041 -0.142557
C143  C     C_R   0.172445 0.139110 0.927747 -0.136808
C144  C     C_R   0.860144 0.787868 0.157717 -0.131220
C145  C     C_R   0.292095 0.656293 0.982678 0.120720
C146  C     C_R   0.656213 0.216160 0.850853 0.117692
C147  C     C_R   0.728725 0.644004 0.992524 0.125478
C148  C     C_R   0.329975 0.227272 0.161884 0.119442
C149  C     C_R   0.780517 0.137161 0.976633 0.116650
C150  C     C_R   0.165728 0.729197 0.854366 0.114689
C151  C     C_R   0.198152 0.170187 0.009162 0.118877
C152  C     C_R   0.840820 0.743428 0.091971 0.123508
C153  C     C_R   0.319382 0.689266 0.952709 0.109647
C154  C     C_R   0.633853 0.196891 0.897951 0.116252
C155  C     C_R   0.725994 0.625977 0.064997 0.119857
C156  C     C_R   0.362028 0.181951 0.163373 0.114649
C157  C     C_R   0.804085 0.158619 0.932480 0.112836
C158  C     C_R   0.134354 0.693793 0.872273 0.119393
C159  C     C_R   0.169182 0.212893 0.023060 0.112749
C160  C     C_R   0.846113 0.752321 0.018914 0.103316
C161  C     C_R   0.236666 0.658755 0.932489 -0.109587
C162  C     C_R   0.699280 0.183982 0.862069 -0.107427
C163  C     C_R   0.775026 0.668636 0.006927 -0.112172
C164  C     C_R   0.277555 0.214975 0.130451 -0.116230
C165  C     C_R   0.725798 0.143672 0.934996 -0.103973
C166  C     C_R   0.212815 0.706237 0.870459 -0.113586
C167  C     C_R   0.253013 0.166152 0.071824 -0.113843
C168  C     C_R   0.810358 0.694721 0.090416 -0.107622
C169  C     C_R   0.720099 0.194298 0.809591 0.344536
C170  C     C_R   0.204251 0.620254 0.946078 0.335583
C171  C     C_R   0.248256 0.251250 0.152269 0.364582
C172  C     C_R   0.785932 0.671150 0.939686 0.363881
C173  C     C_R   0.238650 0.731529 0.831856 0.351878
C174  C     C_R   0.697467 0.117055 0.968122 0.338781
C175  C     C_R   0.810656 0.673230 0.165680 0.328600
C176  C     C_R   0.285128 0.118521 0.075756 0.337715
C177  C     C_R   0.772933 0.182274 0.846299 -0.307526
C178  C     C_R   0.152841 0.638016 0.913914 -0.295507
C179  C     C_R   0.194034 0.249288 0.098091 -0.288066
C180  C     C_R   0.821942 0.713110 0.947055 -0.295967
C181  C     C_R   0.292021 0.722010 0.873549 -0.288339
C182  C     C_R   0.651859 0.144807 0.949873 -0.303833
C183  C     C_R   0.768302 0.638180 0.151624 -0.320043
C184  C     C_R   0.339624 0.126811 0.123497 -0.290837
H49   H     H_    0.790064 0.193235 0.808860 0.176608
H50   H     H_    0.127839 0.609047 0.923587 0.183034
H51   H     H_    0.171286 0.278413 0.112092 0.179225
H52   H     H_    0.829272 0.716944 0.894715 0.181580
H53   H     H_    0.312720 0.743244 0.847212 0.181807
H54   H     H_    0.631445 0.127000 0.978865 0.183625
H55   H     H_    0.768000 0.621215 0.207969 0.185634
H56   H     H_    0.364351 0.090603 0.128032 0.183026
H57   H     H_    0.658075 0.288869 0.772283 0.141202
H58   H     H_    0.301153 0.608716 0.094971 0.137992
H59   H     H_    0.323004 0.322297 0.168350 0.137944
H60   H     H_    0.682964 0.664925 0.853071 0.140116
H61   H     H_    0.180551 0.819056 0.831458 0.128220
H62   H     H_    0.796069 0.106469 0.102540 0.135359
H63   H     H_    0.853466 0.785410 0.210787 0.134341
H64   H     H_    0.193792 0.109823 0.911501 0.141811
H65   H     H_    0.553188 0.312132 0.856854 0.189919
H66   H     H_    0.442595 0.676469 0.130296 0.182992
H67   H     H_    0.478332 0.255879 0.280560 0.158419
H68   H     H_    0.607132 0.557338 0.949377 0.174429
H69   H     H_    0.030092 0.787158 0.788626 0.162875
H70   H     H_    0.931845 0.143771 0.098699 0.161303
H71   H     H_    0.912220 0.883859 0.078003 0.188434
H72   H     H_    0.051625 0.201065 0.829853 0.169362
H73   H     H_    0.394737 0.718166 0.982647 0.146092
H74   H     H_    0.578379 0.217009 0.932479 0.146181
H75   H     H_    0.679436 0.578266 0.103419 0.149841
H76   H     H_    0.441790 0.157550 0.212412 0.143077
H77   H     H_    0.876911 0.175114 0.943236 0.141514
H78   H     H_    0.059457 0.687516 0.857515 0.139784
H79   H     H_    0.093859 0.253875 0.969831 0.138533
H80   H     H_    0.878148 0.808537 0.961414 0.154009
N33   N     N_R   0.520332 0.569557 0.788547 0.254140
O1    O     O_R   0.486001 0.526661 0.759811 -0.259543
O2    O     O_R   0.522816 0.608210 0.844600 -0.345260
N34   N     N_R   0.488288 0.389329 0.238776 0.262060
O3    O     O_R   0.497750 0.338742 0.215011 -0.408138
O4    O     O_R   0.491631 0.438739 0.203305 -0.231611
N35   N     N_R   0.491570 0.592982 0.232921 0.252624
O5    O     O_R   0.480812 0.561218 0.164422 -0.277042
O6    O     O_R   0.524160 0.637641 0.257316 -0.417241
N36   N     N_R   0.496933 0.377373 0.731583 0.225358
O7    O     O_R   0.470533 0.328043 0.697313 -0.419808
O8    O     O_R   0.496236 0.403233 0.795495 -0.306366
N37   N     N_R   0.007355 0.098967 0.762825 0.258617
O9    O     O_R   0.021615 0.075215 0.839295 -0.279340
O10   O     O_R   0.972447 0.141183 0.730409 -0.444351
N38   N     N_R   0.997939 0.886385 0.253526 0.239048
O11   O     O_R   0.018013 0.833034 0.277943 -0.384829
O12   O     O_R   0.002604 0.915767 0.195517 -0.269047
N39   N     N_R   0.975196 0.051342 0.208132 0.241129
O13   O     O_R   0.024033 0.036011 0.254698 -0.251975
O14   O     O_R   0.945568 0.029958 0.127961 -0.378316
N40   N     N_R   0.023763 0.914442 0.788154 0.277804
O15   O     O_R   0.045150 0.888256 0.865476 -0.353885
O16   O     O_R   0.993056 0.959767 0.770524 -0.230457
N41   N     N_R   0.687136 0.211146 0.717275 0.232537
O17   O     O_R   0.706083 0.240899 0.678794 -0.434124
O18   O     O_R   0.639001 0.192436 0.669315 -0.368405
N42   N     N_R   0.220418 0.560774 0.982346 0.230505
O19   O     O_R   0.201154 0.534994 0.023393 -0.396615
O20   O     O_R   0.249414 0.529462 0.965046 -0.364304
N43   N     N_R   0.272845 0.286533 0.232324 0.224763
O21   O     O_R   0.250255 0.334556 0.235956 -0.450079
O22   O     O_R   0.314435 0.266789 0.305051 -0.389556
N44   N     N_R   0.764341 0.628159 0.868581 0.220763
O23   O     O_R   0.757983 0.642094 0.792776 -0.454712
O24   O     O_R   0.757821 0.572650 0.883557 -0.419200
N45   N     N_R   0.210759 0.763470 0.748208 0.230429
O25   O     O_R   0.234623 0.803115 0.729280 -0.440973
O26   O     O_R   0.163170 0.748155 0.686621 -0.373885
N46   N     N_R   0.711873 0.059895 0.013190 0.231180
O27   O     O_R   0.697867 0.045393 0.067395 -0.412115
O28   O     O_R   0.734246 0.019672 0.993081 -0.373196
N47   N     N_R   0.856190 0.679094 0.254866 0.232422
O29   O     O_R   0.852449 0.672555 0.323082 -0.411330
O30   O     O_R   0.902465 0.680351 0.268539 -0.353040
N48   N     N_R   0.264363 0.059661 0.042384 0.230050
O31   O     O_R   0.286552 0.024874 0.014932 -0.398696
O32   O     O_R   0.227783 0.037680 0.050519 -0.352456
F1    F     F_    0.588276 0.550571 0.348402 -0.625667
F2    F     F_    0.411079 0.447180 0.651497 -0.641722
F3    F     F_    0.444870 0.627273 0.657799 -0.687280
F4    F     F_    0.585832 0.427504 0.344175 -0.617680
F5    F     F_    0.047302 0.132454 0.341528 -0.728643
F6    F     F_    0.934875 0.878494 0.656747 -0.694242
F7    F     F_    0.912668 0.045990 0.652594 -0.635024
F8    F     F_    0.088909 0.944475 0.348297 -0.644232

loop_
_geom_bond_atom_site_label_1
_geom_bond_atom_site_label_2
_geom_bond_distance
_ccdc_geom_bond_type
N19   Ni1   1.868937 S    
N5    N31   1.398566 A    
C127  C159  1.395636 A    
C50   H18   1.077788 S    
C139  H60   1.083406 S    
C146  C162  1.421851 A    
C115  C139  1.392931 A    
C5    N37   1.426683 S    
C51   H19   1.080991 S    
C113  C137  1.404473 A    
C12   C44   1.381607 A    
C179  H51   1.084360 S    
N10   Ni6   1.832307 S    
C21   F5    1.347780 S    
C150  C166  1.408354 A    
N3    Ni2   1.868038 S    
C91   C108  1.401974 A    
C16   C48   1.381789 A    
C17   F1    1.353520 S    
C131  H68   1.079802 S    
C6    N38   1.425422 S    
C14   N14   1.332525 A    
C30   H14   1.078049 S    
C39   C117  1.491036 S    
C126  C134  1.402097 A    
C166  C173  1.422105 A    
C99   C111  1.392035 A    
C25   C35   1.394923 A    
C142  C150  1.394794 A    
N40   O15   1.300883 A    
C45   C64   1.478597 S    
C121  H73   1.084249 S    
C4    N4    1.347780 A    
C60   C68   1.405248 A    
C5    N5    1.343279 A    
C20   C44   1.371095 A    
C162  C165  1.416333 A    
C183  H55   1.083477 S    
C8    N8    1.351321 A    
C31   C37   1.391533 A    
C54   C62   1.403403 A    
C17   N17   1.334782 A    
C90   C105  1.402972 A    
C59   C67   1.406025 A    
C7    N39   1.439015 S    
N39   O13   1.298574 A    
C176  N48   1.437754 S    
C122  C154  1.396574 A    
C25   H9    1.078953 S    
C56   C64   1.405636 A    
C124  C132  1.404147 A    
N36   O7    1.301355 A    
C30   C40   1.391154 A    
C28   N28   1.328003 A    
C15   H7    1.080979 S    
C16   H8    1.079729 S    
C163  C172  1.421954 A    
C4    C36   1.399071 A    
C149  C157  1.415736 A    
C137  H58   1.074736 S    
C147  C155  1.406573 A    
N4    Ni1   1.868042 S    
C49   H17   1.081899 S    
C120  C144  1.395081 A    
N26   Ni5   1.831838 S    
C31   H15   1.080001 S    
C3    C35   1.393765 A    
C143  H64   1.077729 S    
C144  H63   1.081834 S    
C141  C149  1.406897 A    
C74   C82   1.409279 A    
C129  H66   1.074310 S    
C96   C111  1.400930 A    
C170  N42   1.438429 S    
C81   C89   1.406650 A    
C24   C48   1.381571 A    
C156  C184  1.398814 A    
C11   C43   1.385709 A    
C157  C177  1.398695 A    
C54   C94   1.378676 A    
C82   C85   1.399688 A    
N6    Ni4   1.864367 S    
C128  C160  1.397781 A    
C69   C77   1.395647 A    
C9    H1    1.079731 S    
C169  N41   1.437487 S    
C99   H35   1.083781 S    
C52   C60   1.404720 A    
C163  C168  1.407093 A    
C13   C45   1.386654 A    
N20   Ni2   1.868939 S    
C15   C47   1.381488 A    
C53   H21   1.079293 S    
N48   O31   1.301424 A    
C3    N3    1.344192 A    
N43   O21   1.301323 A    
C73   C81   1.412974 A    
C70   C78   1.389132 A    
N27   Ni5   1.847684 S    
C11   N11   1.335028 A    
N39   O14   1.301331 A    
N9    N17   1.367628 A    
C122  C130  1.390751 A    
C121  C129  1.386834 A    
C52   C92   1.385602 A    
C17   C41   1.381373 A    
C81   C86   1.390926 A    
C119  C135  1.401355 A    
C117  C141  1.402413 A    
C84   C87   1.398248 A    
C161  C170  1.427763 A    
N11   Ni6   1.848277 S    
C21   C45   1.391073 A    
N15   Ni8   1.848277 S    
C98   H34   1.083852 S    
C9    C41   1.381576 A    
C49   C57   1.404142 A    
C5    C37   1.387274 A    
C102  H38   1.083839 S    
C100  C112  1.395809 A    
C68   C76   1.394792 A    
C55   C63   1.406395 A    
C83   C88   1.400478 A    
C25   N25   1.342684 A    
C29   C39   1.389608 A    
C27   H11   1.079856 S    
C29   N29   1.334245 A    
N33   O2    1.301069 A    
C172  C180  1.392845 A    
C173  C181  1.393397 A    
N12   N20   1.367632 A    
C159  C179  1.391267 A    
C20   N20   1.329666 A    
C175  C183  1.411122 A    
C21   N21   1.346832 A    
C184  H56   1.083695 S    
C14   C46   1.381256 A    
N31   Ni7   1.847684 S    
C148  C164  1.406674 A    
N34   O4    1.299881 A    
N45   O26   1.301647 A    
N28   Ni6   1.847688 S    
N15   N23   1.367631 A    
C152  C168  1.418053 A    
C181  H53   1.084270 S    
C48   C61   1.470894 S    
C23   F7    1.355828 S    
N42   O19   1.301463 A    
C67   H27   1.079144 S    
C121  C153  1.394902 A    
C65   H25   1.083573 S    
C1    N33   1.430024 S    
N12   Ni5   1.848280 S    
C8    C40   1.401054 A    
N38   O12   1.299960 A    
N5    Ni3   1.864368 S    
C6    N6    1.340047 A    
C22   C46   1.389320 A    
C182  H54   1.083990 S    
C180  H52   1.084250 S    
N11   N19   1.367631 A    
C105  H41   1.083632 S    
C74   C98   1.400449 A    
C125  C157  1.401614 A    
C22   F6    1.345528 S    
C18   N18   1.338891 A    
C164  C167  1.412529 A    
C140  H59   1.081930 S    
C177  H49   1.083999 S    
C78   C102  1.399550 A    
C19   F3    1.344635 S    
C141  H62   1.072557 S    
C55   C95   1.394013 A    
N44   O24   1.301568 A    
N35   O6    1.301321 A    
N22   Ni3   1.864784 S    
C170  C178  1.408074 A    
C26   N26   1.344449 A    
C14   H6    1.071952 S    
C56   H24   1.080424 S    
C30   N30   1.327325 A    
C125  H77   1.083853 S    
C108  H44   1.083731 S    
C62   C70   1.397289 A    
C120  C136  1.399389 A    
C127  H79   1.084177 S    
C128  H80   1.083983 S    
C43   C58   1.475643 S    
C114  C130  1.406449 A    
C52   H20   1.078658 S    
C88   C96   1.409351 A    
N16   Ni7   1.848280 S    
C73   C97   1.399229 A    
C146  C154  1.415335 A    
N7    N29   1.398592 A    
C54   H22   1.080541 S    
C118  C134  1.407047 A    
C142  H61   1.079101 S    
C87   C95   1.408976 A    
C76   C100  1.402435 A    
C153  C181  1.392882 A    
C36   C114  1.493251 S    
C77   C101  1.402293 A    
C75   C83   1.407762 A    
C80   C104  1.403013 A    
C57   C65   1.396015 A    
N46   O27   1.301569 A    
C97   C109  1.388088 A    
C111  H47   1.083795 S    
N40   O16   1.300004 A    
C158  C178  1.398643 A    
C61   C69   1.405374 A    
C24   F8    1.350866 S    
N4    N26   1.398589 A    
C10   H2    1.079710 S    
N7    Ni4   1.868038 S    
C171  N43   1.439990 S    
C145  C161  1.422140 A    
C114  C138  1.404260 A    
C37   C119  1.473227 S    
C2    N34   1.430873 S    
C116  C132  1.405903 A    
N9    Ni5   1.832306 S    
C104  C108  1.395147 A    
C149  C165  1.421415 A    
C71   C79   1.386625 A    
C72   C80   1.393952 A    
N36   O8    1.300695 A    
C174  N46   1.439778 S    
C151  C159  1.421690 A    
N37   O10   1.300807 A    
C125  C133  1.395843 A    
C7    C39   1.402167 A    
N16   N24   1.367632 A    
C56   C96   1.390717 A    
C44   C57   1.446756 S    
C162  C169  1.417982 A    
C173  N45   1.440838 S    
C161  C166  1.411953 A    
C176  C184  1.409396 A    
C32   N32   1.347147 A    
C9    N9    1.337086 A    
C32   C38   1.387577 A    
C100  H36   1.083731 S    
N21   Ni4   1.864783 S    
C69   H29   1.081510 S    
C10   C42   1.379746 A    
C103  H39   1.083980 S    
C1    N1    1.363012 A    
C104  H40   1.083659 S    
N3    N25   1.398592 A    
C38   C120  1.457717 S    
N47   O29   1.300517 A    
N13   Ni7   1.832306 S    
C7    N7    1.355258 A    
C123  H75   1.083435 S    
C172  N44   1.438653 S    
C53   C61   1.405174 A    
C122  H74   1.084120 S    
C109  H45   1.084129 S    
C78   C86   1.413616 A    
C51   C91   1.394854 A    
N14   N22   1.367627 A    
C107  H43   1.083918 S    
C49   C89   1.381835 A    
C135  H72   1.078308 S    
C150  C158  1.407356 A    
C136  H71   1.080564 S    
C169  C177  1.401084 A    
C110  H46   1.083841 S    
C42   C59   1.472750 S    
N48   O32   1.301677 A    
C132  H67   1.080664 S    
N25   Ni6   1.831838 S    
C133  H70   1.081909 S    
C2    C34   1.404345 A    
C101  C105  1.395835 A    
C123  C131  1.405670 A    
N43   O22   1.301658 A    
C66   H26   1.080061 S    
N1    Ni1   1.864368 S    
C112  H48   1.083710 S    
C67   C75   1.389069 A    
C3    N35   1.424636 S    
C1    C33   1.400064 A    
C27   C33   1.377415 A    
C65   C73   1.385208 A    
C124  H76   1.083331 S    
C6    C38   1.376625 A    
C64   C72   1.407784 A    
C76   C84   1.410326 A    
C12   H4    1.079652 S    
C77   C85   1.410526 A    
C137  C145  1.406990 A    
C86   C94   1.406543 A    
C75   C99   1.401818 A    
C138  H57   1.075801 S    
C80   C88   1.407957 A    
C19   N19   1.344328 A    
C13   H5    1.073554 S    
C178  H50   1.083689 S    
C134  H69   1.081886 S    
C155  C183  1.400326 A    
C171  C179  1.391254 A    
C130  H65   1.074127 S    
C113  C129  1.404454 A    
C12   N12   1.334356 A    
C13   N13   1.337101 A    
C167  C176  1.429072 A    
C28   H12   1.078127 S    
N33   O1    1.298261 A    
C168  C175  1.427393 A    
C152  C160  1.422067 A    
C98   C110  1.390583 A    
N29   Ni8   1.831838 S    
C164  C171  1.421869 A    
C126  H78   1.083426 S    
C165  C174  1.421554 A    
N35   O5    1.300172 A    
C118  C142  1.394920 A    
C71   H31   1.079933 S    
N41   O17   1.298971 A    
C72   H32   1.076299 S    
C147  C163  1.405162 A    
C35   C113  1.485610 S    
C84   C92   1.408044 A    
C128  C136  1.386724 A    
C85   C93   1.407599 A    
C33   C115  1.477038 S    
C31   N31   1.345414 A    
N45   O25   1.301483 A    
C83   C91   1.410389 A    
C50   C58   1.407126 A    
C55   H23   1.079135 S    
C154  C182  1.396037 A    
C82   C90   1.408426 A    
C174  C182  1.398080 A    
C89   C106  1.402113 A    
C95   C112  1.402741 A    
C143  C151  1.407830 A    
C151  C167  1.423008 A    
N2    Ni2   1.864367 S    
N14   Ni8   1.832307 S    
N17   Ni2   1.864783 S    
C28   C34   1.389656 A    
C26   H10   1.078108 S    
C18   C42   1.380128 A    
N6    N32   1.398568 A    
C116  C140  1.394249 A    
C11   H3    1.074143 S    
C8    N40   1.436352 S    
N32   Ni8   1.847688 S    
C41   C60   1.469692 S    
C20   F4    1.351481 S    
C22   N22   1.345642 A    
N2    N28   1.398568 A    
C47   C62   1.451959 S    
N10   N18   1.367627 A    
C68   H28   1.081489 S    
C4    N36   1.423153 S    
C138  C146  1.412324 A    
C94   C109  1.401262 A    
C19   C43   1.391644 A    
C53   C93   1.386749 A    
C26   C36   1.400641 A    
N47   O30   1.301728 A    
C79   C103  1.400411 A    
C46   C63   1.471445 S    
C175  N47   1.440447 S    
C106  H42   1.084014 S    
C123  C155  1.407952 A    
N41   O18   1.301751 A    
C126  C158  1.405684 A    
C10   N10   1.339232 A    
C51   C59   1.405183 A    
C145  C153  1.419224 A    
N46   O28   1.301773 A    
C18   F2    1.351875 S    
C103  C107  1.389464 A    
C70   H30   1.083703 S    
N24   Ni4   1.868939 S    
N23   Ni3   1.868937 S    
C2    N2    1.354577 A    
C27   N27   1.320315 A    
N34   O3    1.299285 A    
C23   N23   1.326113 A    
C29   H13   1.078987 S    
C24   N24   1.336217 A    
N18   Ni1   1.864784 S    
N30   Ni7   1.831838 S    
C92   C107  1.401240 A    
C93   C110  1.401324 A    
C40   C118  1.479469 S    
C127  C135  1.384837 A    
N8    Ni3   1.868042 S    
C160  C180  1.391793 A    
C139  C147  1.389849 A    
C50   C90   1.394555 A    
C115  C131  1.406771 A    
N38   O11   1.300573 A    
C148  C156  1.405447 A    
N13   N21   1.367628 A    
C124  C156  1.406985 A    
C34   C116  1.477485 S    
C119  C143  1.401084 A    
C97   H33   1.083954 S    
C15   N15   1.338515 A    
C117  C133  1.405216 A    
C79   C87   1.408663 A    
C16   N16   1.338743 A    
N8    N30   1.398589 A    
C32   H16   1.079785 S    
N37   O9    1.300625 A    
C101  H37   1.083668 S    
C140  C148  1.392935 A    
C102  C106  1.391073 A    
C58   C66   1.404731 A    
N42   O20   1.301681 A    
N44   O23   1.301489 A    
C144  C152  1.403186 A    
C23   C47   1.367093 A    
N1    N27   1.398566 A    
C66   C74   1.388506 A    
C63   C71   1.404106 A    
