data_mof_unit_8983.cif
_audit_creation_date              2013-03-05T15:40:56-0500
_audit_creation_method            fapswitch 2.2
_symmetry_space_group_name_H-M    P1
_symmetry_Int_Tables_number       1
_space_group_crystal_system       triclinic
_cell_length_a                    27.84081
_cell_length_b                    18.823747
_cell_length_c                    16.79453
_cell_angle_alpha                 90.076743
_cell_angle_beta                  62.838586
_cell_angle_gamma                 89.881558
_cell_volume                      7830.84717692

loop_
_atom_site_label
_atom_site_type_symbol
_atom_site_description
_atom_site_fract_x
_atom_site_fract_y
_atom_site_fract_z
_atom_type_partial_charge
O1    O     O_R   0.255040 0.869590 0.478480 -0.528821
O2    O     O_R   0.744960 0.130410 0.521520 -0.587346
O3    O     O_R   0.744960 0.869590 0.521520 -0.590211
O4    O     O_R   0.255040 0.130410 0.478480 -0.526135
O5    O     O_R   0.755040 0.369590 0.478480 -0.543684
O6    O     O_R   0.244960 0.630410 0.521520 -0.605831
O7    O     O_R   0.244960 0.369590 0.521520 -0.610557
O8    O     O_R   0.755040 0.630410 0.478480 -0.531993
O9    O     O_R   0.182050 0.796550 0.624440 -0.513283
O10   O     O_R   0.817950 0.203450 0.375560 -0.521190
O11   O     O_R   0.817950 0.796550 0.375560 -0.519446
O12   O     O_R   0.182050 0.203450 0.624440 -0.511251
O13   O     O_R   0.682050 0.296550 0.624440 -0.520325
O14   O     O_R   0.317950 0.703450 0.375560 -0.528228
O15   O     O_R   0.317950 0.296550 0.375560 -0.519549
O16   O     O_R   0.682050 0.703450 0.624440 -0.516793
Cu1   Cu    Cu3+1 0.209920 0.785290 0.495070 1.135021
Cu2   Cu    Cu3+1 0.790080 0.214710 0.504930 1.076962
Cu3   Cu    Cu3+1 0.790080 0.785290 0.504930 1.076063
Cu4   Cu    Cu3+1 0.209920 0.214710 0.495070 1.119463
Cu5   Cu    Cu3+1 0.709920 0.285290 0.495070 1.069866
Cu6   Cu    Cu3+1 0.290080 0.714710 0.504930 1.068608
Cu7   Cu    Cu3+1 0.290080 0.285290 0.504930 1.023812
Cu8   Cu    Cu3+1 0.709920 0.714710 0.495070 1.121807
C1    C     C_R   0.293582 0.724850 0.330186 0.824029
C2    C     C_R   0.705660 0.273286 0.670861 0.827514
C3    C     C_R   0.707671 0.723984 0.669276 0.831012
C4    C     C_R   0.294407 0.273051 0.329091 0.828625
C5    C     C_R   0.796999 0.233147 0.328209 0.826152
C6    C     C_R   0.202657 0.766655 0.672238 0.814936
C7    C     C_R   0.203113 0.232906 0.671802 0.820583
C8    C     C_R   0.794413 0.773467 0.329234 0.821486
O17   O     O_R   0.250530 0.763330 0.367210 -0.586190
O18   O     O_R   0.749470 0.236670 0.632790 -0.585095
O19   O     O_R   0.749470 0.763330 0.632790 -0.598732
O20   O     O_R   0.250530 0.236670 0.367210 -0.599303
O21   O     O_R   0.750530 0.263330 0.367210 -0.605216
O22   O     O_R   0.249470 0.736670 0.632790 -0.582642
O23   O     O_R   0.249470 0.263330 0.632790 -0.606589
O24   O     O_R   0.750530 0.736670 0.367210 -0.595309
O25   O     O_R   0.177260 0.690030 0.513710 -0.569462
O26   O     O_R   0.822740 0.309970 0.486290 -0.573215
O27   O     O_R   0.822740 0.690030 0.486290 -0.575732
O28   O     O_R   0.177260 0.309970 0.513710 -0.562525
O29   O     O_R   0.677260 0.190030 0.513710 -0.590521
O30   O     O_R   0.322740 0.809970 0.486290 -0.561505
O31   O     O_R   0.322740 0.190030 0.486290 -0.592842
O32   O     O_R   0.677260 0.809970 0.513710 -0.564011
C9    C     C_R   0.197231 0.631721 0.525039 0.761376
C10   C     C_R   0.803545 0.368341 0.473025 0.769906
C11   C     C_R   0.803685 0.631680 0.472456 0.772068
C12   C     C_R   0.197167 0.368361 0.525240 0.769818
C13   C     C_R   0.697216 0.131711 0.524928 0.805047
C14   C     C_R   0.303654 0.868251 0.472342 0.796169
C15   C     C_R   0.303861 0.131736 0.471622 0.795884
C16   C     C_R   0.697156 0.868371 0.525125 0.786735
C17   C     C_R   0.035883 0.630126 0.549962 0.077215
C18   C     C_R   0.947985 0.370818 0.511830 0.057134
C19   C     C_R   0.950198 0.629814 0.504206 0.059642
C20   C     C_R   0.034094 0.371197 0.556587 0.064225
C21   C     C_R   0.535663 0.129944 0.547909 0.067104
C22   C     C_R   0.449432 0.870653 0.506082 0.059811
C23   C     C_R   0.454952 0.129353 0.490056 0.058040
C24   C     C_R   0.535118 0.871048 0.551841 0.066530
C25   C     C_R   0.014060 0.695637 0.539513 -0.060171
C26   C     C_R   0.966978 0.305514 0.529589 -0.078248
C27   C     C_R   0.970876 0.695500 0.516991 -0.069612
C28   C     C_R   0.010308 0.305722 0.551793 -0.087862
C29   C     C_R   0.514545 0.195314 0.535134 -0.056944
C30   C     C_R   0.468334 0.805377 0.524013 -0.063477
C31   C     C_R   0.476617 0.194895 0.500820 -0.057235
C32   C     C_R   0.511736 0.805510 0.546015 -0.063239
C33   C     C_R   0.969885 0.565295 0.519796 0.011309
C34   C     C_R   0.013038 0.435701 0.542848 0.008000
C35   C     C_R   0.013978 0.565426 0.539389 0.009006
C36   C     C_R   0.968820 0.435598 0.523545 0.004621
C37   C     C_R   0.472674 0.065065 0.510480 0.017043
C38   C     C_R   0.514286 0.935550 0.537590 0.008563
C39   C     C_R   0.515151 0.065247 0.534129 0.015866
C40   C     C_R   0.470485 0.935440 0.517247 0.009259
C41   C     C_R   0.449899 0.000135 0.502453 -0.009458
C42   C     C_R   0.537658 0.000454 0.543332 -0.007629
C43   C     C_R   0.947671 0.500322 0.510175 -0.012491
C44   C     C_R   0.036810 0.500572 0.547530 -0.010639
C45   C     C_R   0.383823 0.934964 0.471886 0.017661
C46   C     C_R   0.610807 0.065156 0.553233 0.014547
C47   C     C_R   0.610708 0.935835 0.554390 0.006244
C48   C     C_R   0.385085 0.064577 0.467664 0.018807
C49   C     C_R   0.882655 0.435111 0.476706 0.010177
C50   C     C_R   0.110767 0.565122 0.554945 -0.000739
C51   C     C_R   0.110527 0.435858 0.556306 0.009867
C52   C     C_R   0.883301 0.564780 0.474239 0.010579
C53   C     C_R   0.336282 0.934636 0.458906 -0.169159
C54   C     C_R   0.666141 0.065149 0.536083 -0.140146
C55   C     C_R   0.666104 0.935308 0.536501 -0.139323
C56   C     C_R   0.336734 0.065049 0.457248 -0.168388
C57   C     C_R   0.835939 0.434750 0.461252 -0.167155
C58   C     C_R   0.166202 0.565123 0.536648 -0.138487
C59   C     C_R   0.166120 0.435304 0.537166 -0.145302
C60   C     C_R   0.836212 0.565084 0.460092 -0.168461
C61   C     C_R   0.316210 0.999819 0.444214 -0.096054
C62   C     C_R   0.694440 0.000100 0.516871 -0.107535
C63   C     C_R   0.816363 0.499877 0.445522 -0.085563
C64   C     C_R   0.194511 0.500100 0.517011 -0.109543
C65   C     C_R   0.405738 0.999920 0.481588 0.074984
C66   C     C_R   0.586379 0.000484 0.550544 0.083557
C67   C     C_R   0.903827 0.500086 0.488388 0.067718
C68   C     C_R   0.086081 0.500509 0.552938 0.078124
C69   C     C_R   0.579360 0.873837 0.570732 -0.149212
C70   C     C_R   0.415000 0.126696 0.461156 -0.168991
C71   C     C_R   0.411777 0.872331 0.472481 -0.133895
C72   C     C_R   0.579649 0.127536 0.567503 -0.170936
C73   C     C_R   0.079008 0.373922 0.573750 -0.161092
C74   C     C_R   0.912186 0.627169 0.471326 -0.151293
C75   C     C_R   0.910613 0.372542 0.477623 -0.144801
C76   C     C_R   0.079711 0.627517 0.569789 -0.142008
H1    H     H_    0.588982 0.827621 0.598187 0.218222
H2    H     H_    0.409830 0.172571 0.428343 0.229354
H3    H     H_    0.408911 0.825072 0.439042 0.203512
H4    H     H_    0.589871 0.174705 0.591842 0.227491
H5    H     H_    0.089131 0.327691 0.600481 0.214931
H6    H     H_    0.909538 0.673085 0.435584 0.212757
H7    H     H_    0.908367 0.325477 0.443339 0.211576
H8    H     H_    0.089178 0.674296 0.596504 0.219624
C77   C     C_R   0.211745 0.749730 0.962326 -0.001698
C78   C     C_R   0.771807 0.224818 0.056340 0.003602
C79   C     C_R   0.793838 0.747078 0.034469 0.003727
C80   C     C_R   0.229478 0.222053 0.942405 0.003251
C81   C     C_R   0.715395 0.264245 0.960907 0.003824
C82   C     C_R   0.273125 0.715679 0.052450 0.001677
C83   C     C_R   0.285839 0.261452 0.038053 0.002951
C84   C     C_R   0.741577 0.697164 0.935882 0.005296
C85   C     C_R   0.262542 0.715756 0.916697 0.072354
C86   C     C_R   0.727579 0.272166 0.094739 0.070103
C87   C     C_R   0.741937 0.716484 0.078203 0.073041
C88   C     C_R   0.273466 0.269497 0.904437 0.080629
C89   C     C_R   0.764290 0.226210 0.918690 0.074621
C90   C     C_R   0.218357 0.736502 0.101641 0.068989
C91   C     C_R   0.237399 0.222700 0.079711 0.075178
C92   C     C_R   0.793179 0.729109 0.890813 0.069293
C93   C     C_R   0.296567 0.708775 0.958372 -0.023457
C94   C     C_R   0.693781 0.281180 0.052860 -0.032861
C95   C     C_R   0.720262 0.681592 0.027528 -0.020860
C96   C     C_R   0.307246 0.278592 0.946351 -0.033377
C97   C     C_R   0.786048 0.195096 0.971506 -0.025059
C98   C     C_R   0.189972 0.763095 0.055478 -0.022934
C99   C     C_R   0.215696 0.191791 0.026629 -0.031400
C100  C     C_R   0.822294 0.747338 0.939549 -0.015717
C101  C     C_R   0.134945 0.810008 0.956012 -0.031142
C102  C     C_R   0.842163 0.154144 0.068533 -0.038338
C103  C     C_R   0.869020 0.807106 0.044024 -0.041537
C104  C     C_R   0.158564 0.152584 0.930572 -0.043815
C105  C     C_R   0.636891 0.316508 0.954696 -0.042240
C106  C     C_R   0.358191 0.677914 0.050289 -0.039406
C107  C     C_R   0.363492 0.315668 0.045094 -0.043198
C108  C     C_R   0.662144 0.641972 0.933214 -0.034465
C109  C     C_R   0.109816 0.837089 0.904288 -0.155468
C110  C     C_R   0.878035 0.144726 0.107472 -0.151685
C111  C     C_R   0.890898 0.838577 0.096913 -0.156051
C112  C     C_R   0.122303 0.144011 0.892227 -0.158000
C113  C     C_R   0.611317 0.340712 0.903405 -0.155811
C114  C     C_R   0.386891 0.657356 0.098146 -0.156716
C115  C     C_R   0.388679 0.340719 0.096711 -0.158576
C116  C     C_R   0.626286 0.637177 0.892987 -0.150155
C117  C     C_R   0.126574 0.809927 0.817063 0.204476
C118  C     C_R   0.868743 0.184007 0.185089 0.210249
C119  C     C_R   0.871092 0.816275 0.186014 0.221717
C120  C     C_R   0.131542 0.183464 0.814827 0.203743
C121  C     C_R   0.630010 0.315477 0.815612 0.205384
C122  C     C_R   0.368932 0.683122 0.185360 0.215302
C123  C     C_R   0.369993 0.315681 0.184617 0.212346
C124  C     C_R   0.638927 0.675215 0.814010 0.192968
C125  C     C_R   0.175998 0.772778 0.772540 -0.188284
C126  C     C_R   0.820957 0.223383 0.229599 -0.176852
C127  C     C_R   0.817963 0.789048 0.231622 -0.174833
C128  C     C_R   0.179352 0.222587 0.770359 -0.183251
C129  C     C_R   0.683383 0.289253 0.768282 -0.187698
C130  C     C_R   0.314443 0.704269 0.235115 -0.164464
C131  C     C_R   0.316873 0.288630 0.231521 -0.175697
C132  C     C_R   0.691826 0.700081 0.762074 -0.172530
C133  C     C_R   0.201917 0.747757 0.823786 0.027930
C134  C     C_R   0.792340 0.244028 0.181553 0.027727
C135  C     C_R   0.789222 0.775051 0.181114 0.016324
C136  C     C_R   0.208191 0.242507 0.818251 0.036000
C137  C     C_R   0.714030 0.277416 0.816437 0.015159
C138  C     C_R   0.280485 0.705219 0.192177 0.015427
C139  C     C_R   0.286677 0.275601 0.182865 0.022226
C140  C     C_R   0.728668 0.702284 0.800548 0.013053
C141  C     C_R   0.182839 0.769578 0.913897 0.067342
C142  C     C_R   0.802452 0.207995 0.101908 0.072821
C143  C     C_R   0.817542 0.776018 0.086460 0.073287
C144  C     C_R   0.198441 0.205975 0.897256 0.070839
C145  C     C_R   0.688468 0.285491 0.910683 0.074343
C146  C     C_R   0.304124 0.700267 0.098134 0.071583
C147  C     C_R   0.312348 0.283618 0.088667 0.072925
C148  C     C_R   0.710317 0.681563 0.890213 0.074867
C149  C     C_R   0.112969 0.819887 0.049390 -0.161471
C150  C     C_R   0.844068 0.112177 0.997202 -0.166014
C151  C     C_R   0.899316 0.799502 0.950977 -0.139416
C152  C     C_R   0.156933 0.110128 0.001185 -0.166699
C153  C     C_R   0.611472 0.319174 0.049123 -0.144490
C154  C     C_R   0.382680 0.680299 0.956397 -0.148815
C155  C     C_R   0.388952 0.318314 0.950672 -0.144822
C156  C     C_R   0.653510 0.607525 0.013632 -0.171944
C157  C     C_R   0.140815 0.801699 0.097413 0.235186
C158  C     C_R   0.819294 0.134234 0.945686 0.235054
C159  C     C_R   0.877805 0.766763 0.899572 0.240060
C160  C     C_R   0.182418 0.131179 0.052036 0.239984
C161  C     C_R   0.639479 0.304102 0.097996 0.244821
C162  C     C_R   0.353104 0.696625 0.910427 0.234958
C163  C     C_R   0.361230 0.302310 0.901570 0.238168
C164  C     C_R   0.679772 0.629388 0.062825 0.225896
C165  C     C_R   0.243934 0.696818 0.790932 -0.132227
C166  C     C_R   0.754967 0.300900 0.208882 -0.148902
C167  C     C_R   0.733795 0.758513 0.220502 -0.144084
C168  C     C_R   0.245423 0.299222 0.791402 -0.154250
C169  C     C_R   0.769045 0.256662 0.775439 -0.146533
C170  C     C_R   0.223803 0.709857 0.239131 -0.133722
C171  C     C_R   0.231977 0.253728 0.223329 -0.151149
C172  C     C_R   0.782944 0.725592 0.754600 -0.156059
C173  C     C_R   0.274882 0.683431 0.834645 -0.134069
C174  C     C_R   0.721988 0.313144 0.168146 -0.131826
C175  C     C_R   0.710991 0.728281 0.170275 -0.130939
C176  C     C_R   0.278621 0.310919 0.831793 -0.155969
C177  C     C_R   0.792529 0.227549 0.825354 -0.130249
C178  C     C_R   0.193387 0.724594 0.194446 -0.132100
C179  C     C_R   0.209112 0.223752 0.172997 -0.138903
C180  C     C_R   0.812527 0.743355 0.799587 -0.133413
H9    H     H_    0.072726 0.839833 0.088966 0.217109
H10   H     H_    0.862954 0.060620 0.981401 0.201528
H11   H     H_    0.941832 0.812619 0.918673 0.208172
H12   H     H_    0.137660 0.058956 0.016891 0.203203
H13   H     H_    0.568688 0.329473 0.086738 0.216287
H14   H     H_    0.425957 0.674433 0.917810 0.210773
H15   H     H_    0.431579 0.329287 0.913182 0.217985
H16   H     H_    0.628603 0.561414 0.039299 0.209854
H17   H     H_    0.252355 0.663552 0.733824 0.173175
H18   H     H_    0.751954 0.338417 0.259691 0.173785
H19   H     H_    0.706629 0.770181 0.289488 0.187032
H20   H     H_    0.248068 0.337175 0.741403 0.165314
H21   H     H_    0.795787 0.263627 0.705469 0.213425
H22   H     H_    0.201993 0.700044 0.310199 0.181085
H23   H     H_    0.204793 0.260635 0.293183 0.192457
H24   H     H_    0.805143 0.730539 0.683314 0.221771
H25   H     H_    0.306590 0.644011 0.806257 0.181227
H26   H     H_    0.694571 0.357920 0.190907 0.198757
H27   H     H_    0.668242 0.716656 0.203549 0.187282
H28   H     H_    0.305791 0.355738 0.809513 0.177131
H29   H     H_    0.834194 0.210202 0.790773 0.186893
H30   H     H_    0.150041 0.723423 0.233041 0.184702
H31   H     H_    0.167667 0.205846 0.207287 0.185001
H32   H     H_    0.849509 0.771672 0.761544 0.205718
O33   O     O_R   0.051640 0.926880 0.885090 -0.532134
O34   O     O_R   0.948360 0.073120 0.114910 -0.520376
O35   O     O_R   0.948360 0.926880 0.114910 -0.530042
O36   O     O_R   0.051640 0.073120 0.885090 -0.524229
O37   O     O_R   0.551640 0.426880 0.885090 -0.534967
O38   O     O_R   0.448360 0.573120 0.114910 -0.521685
O39   O     O_R   0.448360 0.426880 0.114910 -0.527178
O40   O     O_R   0.551640 0.573120 0.885090 -0.533132
Cu9   Cu    Cu3+1 0.495240 0.500000 0.924150 1.072534
Cu10  Cu    Cu3+1 0.504760 0.500000 0.075850 1.083264
Cu11  Cu    Cu3+1 0.995240 0.000000 0.924150 1.078296
Cu12  Cu    Cu3+1 0.004760 0.000000 0.075850 1.090739
C181  C     C_R   0.930265 0.898109 0.063198 0.801749
C182  C     C_R   0.075323 0.095027 0.932023 0.839132
C183  C     C_R   0.070437 0.898149 0.936493 0.794708
C184  C     C_R   0.924777 0.095219 0.067909 0.843834
C185  C     C_R   0.429507 0.398756 0.063546 0.815853
C186  C     C_R   0.576130 0.593713 0.932141 0.835313
C187  C     C_R   0.570410 0.398685 0.936511 0.795670
C188  C     C_R   0.429218 0.601053 0.063746 0.840917
O41   O     O_R   0.940620 0.926560 0.986760 -0.599603
O42   O     O_R   0.059380 0.073440 0.013240 -0.589345
O43   O     O_R   0.059380 0.926560 0.013240 -0.604141
O44   O     O_R   0.940620 0.073440 0.986760 -0.593946
O45   O     O_R   0.440620 0.426560 0.986760 -0.598321
O46   O     O_R   0.559380 0.573440 0.013240 -0.600551
O47   O     O_R   0.559380 0.426560 0.013240 -0.606848
O48   O     O_R   0.440620 0.573440 0.986760 -0.595898
C189  C     C_2   0.532994 0.736374 0.559730 0.354448
H33   H     H_    0.505286 0.695843 0.601323 0.127763
O49   O     O_2   0.581195 0.722774 0.520964 -0.517667
C190  C     C_2   0.457486 0.264097 0.482902 0.362618
H34   H     H_    0.442875 0.304932 0.534308 0.096745
O50   O     O_2   0.461082 0.277487 0.409289 -0.470212
C191  C     C_2   0.442693 0.736484 0.521392 0.367323
H35   H     H_    0.467251 0.689160 0.495014 0.079101
O51   O     O_2   0.393747 0.731387 0.552108 -0.500425
C192  C     C_2   0.535103 0.264868 0.548728 0.387725
H36   H     H_    0.546841 0.305546 0.497564 0.094005
O52   O     O_2   0.536136 0.278691 0.618896 -0.460291
C193  C     C_2   0.030912 0.236696 0.567199 0.345724
H37   H     H_    0.002798 0.197420 0.610972 0.099429
O53   O     O_2   0.078867 0.221774 0.527607 -0.508207
C194  C     C_2   0.947715 0.764698 0.507713 0.339437
H38   H     H_    0.973961 0.809728 0.477091 0.105578
O54   O     O_2   0.899041 0.772846 0.537438 -0.536954
C195  C     C_2   0.941682 0.236443 0.526337 0.320324
H39   H     H_    0.966321 0.188957 0.501668 0.100163
O55   O     O_2   0.892904 0.231332 0.554524 -0.536798
C196  C     C_2   0.036928 0.764919 0.548501 0.383579
H40   H     H_    0.010137 0.807795 0.586615 0.117223
O56   O     O_2   0.085472 0.775806 0.509710 -0.510884
C197  C     C_2   0.278708 0.999786 0.403653 0.456043
H41   H     H_    0.294974 0.999902 0.331385 0.057668
O57   O     O_2   0.229846 0.999842 0.450494 -0.460203
C198  C     C_2   0.754111 0.999803 0.462051 0.472048
H42   H     H_    0.780158 0.000498 0.494323 0.105207
O58   O     O_2   0.774023 0.998627 0.380501 -0.536584
C199  C     C_2   0.780182 0.499768 0.402435 0.442224
H43   H     H_    0.797578 0.499506 0.330004 0.041698
O59   O     O_2   0.731154 0.499983 0.447377 -0.471158
C200  C     C_2   0.254119 0.499937 0.461431 0.473872
H44   H     H_    0.280494 0.497217 0.493011 0.093226
O60   O     O_2   0.273620 0.503383 0.380043 -0.541586
Br1   Br    Br    0.075862 0.808956 0.767193 -0.441649
Br2   Br    Br    0.924286 0.196053 0.223537 -0.459169
Br3   Br    Br    0.922362 0.808762 0.234518 -0.459585
Br4   Br    Br    0.075879 0.196025 0.776690 -0.461138
Br5   Br    Br    0.577549 0.303860 0.770552 -0.385707
Br6   Br    Br    0.422356 0.699339 0.227497 -0.455951
Br7   Br    Br    0.422240 0.305495 0.230661 -0.393119
Br8   Br    Br    0.581384 0.703872 0.785460 -0.455058
Br9   Br    Br    0.112912 0.846615 0.213477 -0.447423
Br10  Br    Br    0.824012 0.070455 0.852612 -0.497519
Br11  Br    Br    0.931212 0.733089 0.784494 -0.542355
Br12  Br    Br    0.178442 0.066525 0.143610 -0.439782
Br13  Br    Br    0.596855 0.300936 0.226137 -0.445907
Br14  Br    Br    0.395560 0.716122 0.784653 -0.522398
Br15  Br    Br    0.403860 0.299071 0.773474 -0.485915
Br16  Br    Br    0.666682 0.574070 0.167283 -0.501288

loop_
_geom_bond_atom_site_label_1
_geom_bond_atom_site_label_2
_geom_bond_distance
_ccdc_geom_bond_type
C150  C158  1.393289 A    
Cu2   Cu5   2.664369 S    
C64   C200  1.486964 S    
C120  Br4   1.942386 S    
C123  C131  1.416868 A    
C70   H2    1.069242 S    
C46   C66   1.406357 A    
O33   C183  1.313068 A    
C183  O43   1.295124 A    
C122  C130  1.413268 A    
O37   Cu9   1.959233 S    
C31   C190  1.488504 S    
C179  H31   1.082636 S    
C190  H34   1.085341 S    
C77   C98   1.418000 A    
Cu6   O22   1.959431 S    
C119  Br3   1.944767 S    
C104  C152  1.414447 A    
C153  C161  1.395078 A    
C122  Br6   1.941239 S    
C82   C93   1.413106 A    
C151  H11   1.082434 S    
C166  C174  1.391854 A    
C118  Br2   1.942238 S    
C191  O51   1.221128 D    
O3    Cu3   1.960792 S    
C50   C76   1.409770 A    
C102  C110  1.432597 A    
C19   C33   1.404673 A    
C55   C62   1.409308 A    
C187  O47   1.290897 A    
C152  C160  1.393992 A    
C33   C35   1.408544 A    
C36   C43   1.414206 A    
O25   C9    1.282457 A    
C17   C76   1.404610 A    
C105  C153  1.411836 A    
C37   C39   1.408932 A    
C135  C167  1.409368 A    
C118  C126  1.401641 A    
C75   H7    1.073336 S    
C3    C132  1.483566 S    
C53   C61   1.415095 A    
C72   H4    1.068965 S    
C1    C130  1.479031 S    
C81   C94   1.413527 A    
C3    O19   1.277501 A    
C200  H44   1.085615 S    
Cu12  O42   1.970246 S    
C81   C89   1.407771 A    
C105  C113  1.419931 A    
Cu8   O32   1.967750 S    
C168  C176  1.391303 A    
C102  C142  1.411431 A    
C38   C42   1.409116 A    
O34   C184  1.303899 A    
C156  C164  1.392260 A    
O13   Cu5   1.956157 S    
C57   C63   1.413978 A    
C194  H38   1.085136 S    
C23   C31   1.421494 A    
C167  H19   1.077583 S    
C82   C90   1.416929 A    
C106  C114  1.421278 A    
C8    O24   1.293245 A    
C127  C135  1.431511 A    
C128  C136  1.422035 A    
C83   C147  1.419321 A    
O2    C13   1.304279 A    
C80   C99   1.407149 A    
C87   C175  1.401657 A    
C101  C141  1.410926 A    
C175  H27   1.082064 S    
C156  H16   1.072683 S    
Cu3   O19   1.961629 S    
Cu9   O48   1.963846 S    
O10   Cu2   1.956157 S    
C63   C199  1.484525 S    
Cu10  O47   1.963849 S    
C111  C119  1.403147 A    
C112  C120  1.416159 A    
C130  C138  1.427082 A    
O5    Cu5   1.965595 S    
C78   C86   1.412579 A    
C104  C144  1.412314 A    
C30   C191  1.491858 S    
C134  C142  1.407643 A    
C33   C43   1.413587 A    
C96   C163  1.412621 A    
C16   C55   1.488480 S    
C49   C75   1.414375 A    
C112  C182  1.488684 S    
C126  C134  1.422452 A    
C18   C36   1.403071 A    
C138  C170  1.408147 A    
C22   C30   1.421406 A    
C34   C36   1.408889 A    
C22   C40   1.403086 A    
C166  H18   1.080134 S    
O7    C12   1.303525 A    
Cu2   O26   1.971935 S    
Cu9   Cu10  2.679123 S    
C38   C40   1.408599 A    
C35   C44   1.410561 A    
C61   C197  1.484420 S    
C90   C178  1.405401 A    
C78   C142  1.417568 A    
C89   C177  1.396749 A    
C100  C159  1.424278 A    
C19   C27   1.421765 A    
C45   C53   1.436276 A    
C22   C71   1.399458 A    
C86   C174  1.400299 A    
C47   C55   1.430324 A    
C27   C194  1.491820 S    
C113  C121  1.402495 A    
O33   Cu11  1.959233 S    
O16   C3    1.309954 A    
C87   C95   1.410252 A    
O29   C13   1.281762 A    
C188  O48   1.290523 A    
C155  C163  1.395642 A    
O38   Cu10  1.959230 S    
C165  C173  1.386325 A    
C98   C157  1.418291 A    
C107  C155  1.411979 A    
C121  C129  1.414602 A    
Cu4   O28   1.967750 S    
C78   C97   1.407596 A    
C198  O58   1.220762 D    
Cu5   O29   1.971935 S    
C7    C128  1.488876 S    
C8    C127  1.491350 S    
C41   C65   1.424008 A    
C92   C180  1.399129 A    
Cu7   O31   1.967750 S    
C168  H20   1.079970 S    
C84   C148  1.428917 A    
C109  C117  1.413508 A    
C107  C115  1.421560 A    
C157  Br9   1.930879 S    
C30   C32   1.415731 A    
C79   C143  1.421621 A    
C80   C144  1.418422 A    
C103  C111  1.415977 A    
C193  H37   1.085438 S    
Cu2   O18   1.959431 S    
C88   C176  1.400051 A    
Cu4   Cu7   2.668745 S    
C28   C193  1.489143 S    
C184  O44   1.291868 A    
C185  O45   1.292622 A    
C20   C28   1.419809 A    
O9    C6    1.307893 A    
O26   C10   1.284294 A    
C181  O41   1.297120 A    
O11   C8    1.299703 A    
C199  O59   1.221564 D    
O12   C7    1.307699 A    
O13   C2    1.303564 A    
C116  C124  1.404714 A    
Cu11  O41   1.970246 S    
C115  C123  1.404993 A    
C119  C127  1.416703 A    
C2    C129  1.491112 S    
C11   C60   1.502529 S    
C120  C128  1.403496 A    
C13   C54   1.486798 S    
C24   C38   1.411554 A    
C138  C146  1.409502 A    
C34   C44   1.409228 A    
O40   Cu9   1.965018 S    
C39   C42   1.410633 A    
C95   C164  1.408487 A    
C149  H9    1.075062 S    
C189  O49   1.220948 D    
C73   H5    1.074182 S    
C62   C198  1.486959 S    
O1    Cu1   1.965595 S    
O14   Cu6   1.956157 S    
C190  O50   1.220626 D    
C50   C68   1.406173 A    
C196  O56   1.220913 D    
C48   C65   1.409695 A    
C24   C69   1.406275 A    
C21   C39   1.409108 A    
O7    Cu7   1.960792 S    
O8    Cu8   1.960794 S    
C170  C178  1.391760 A    
C42   C66   1.415824 A    
O40   C186  1.315954 A    
C99   C160  1.409587 A    
C83   C91   1.408651 A    
Cu9   O45   1.970246 S    
C163  Br15  1.925790 S    
C133  C165  1.413126 A    
C32   C189  1.489646 S    
C94   C161  1.412969 A    
C51   C59   1.429927 A    
C21   C72   1.406346 A    
C169  C177  1.389510 A    
C48   C56   1.434452 A    
C149  C157  1.392542 A    
C5    C126  1.487111 S    
C69   H1    1.074287 S    
Cu11  Cu12  2.679123 S    
O11   Cu3   1.957135 S    
C115  C185  1.491488 S    
C89   C97   1.409710 A    
C108  C148  1.413151 A    
C79   C87   1.412319 A    
C80   C88   1.413168 A    
C136  C168  1.413047 A    
C131  C139  1.436005 A    
C200  O60   1.220734 D    
O6    Cu6   1.965593 S    
C129  C137  1.435741 A    
C29   C192  1.488459 S    
C172  C180  1.389089 A    
C91   C179  1.395886 A    
C192  H36   1.085296 S    
C14   C53   1.501978 S    
C132  C140  1.441013 A    
C133  C141  1.415863 A    
C176  H28   1.081217 S    
C25   C27   1.415565 A    
C85   C173  1.397097 A    
C136  C144  1.407652 A    
C17   C35   1.409995 A    
O37   C187  1.308689 A    
O38   C188  1.310328 A    
O39   C185  1.308897 A    
C79   C100  1.419834 A    
C48   C70   1.412148 A    
C124  C132  1.407117 A    
C84   C95   1.405373 A    
C194  O54   1.220811 D    
C59   C64   1.409910 A    
O31   C15   1.288769 A    
C125  C133  1.431792 A    
C56   C61   1.413676 A    
Cu1   O17   1.959429 S    
C106  C154  1.404327 A    
Cu3   O27   1.967750 S    
C164  Br16  1.928091 S    
C140  C172  1.417892 A    
C159  Br11  1.927973 S    
C15   C56   1.504797 S    
C161  Br13  1.926698 S    
O35   C181  1.304102 A    
C60   C63   1.413268 A    
C170  H22   1.080168 S    
C167  C175  1.388388 A    
C195  H39   1.085437 S    
C155  H15   1.080124 S    
C86   C94   1.418739 A    
C153  H13   1.080358 S    
C191  H35   1.084968 S    
C114  C122  1.399689 A    
C37   C41   1.412405 A    
C114  C188  1.489073 S    
O30   C14   1.285572 A    
Cu6   O30   1.971935 S    
O4    C15   1.310943 A    
C123  Br7   1.943399 S    
O5    C10   1.311285 A    
C110  C118  1.414796 A    
C178  H30   1.078398 S    
C116  C186  1.489788 S    
C76   H8    1.074244 S    
C51   C68   1.406887 A    
C17   C25   1.419665 A    
C82   C146  1.421875 A    
C47   C69   1.409032 A    
C84   C92   1.417895 A    
C85   C93   1.417598 A    
Cu1   Cu6   2.664369 S    
C186  O46   1.280793 A    
Cu3   Cu8   2.668745 S    
C88   C96   1.419195 A    
C174  H26   1.081311 S    
O10   C5    1.307086 A    
O27   C11   1.286888 A    
O15   C4    1.304481 A    
C182  O42   1.293098 A    
C19   C74   1.400391 A    
C44   C68   1.415516 A    
O14   C1    1.294190 A    
C4    C131  1.492872 S    
C169  H21   1.074445 S    
C124  Br8   1.945762 S    
C107  C147  1.407251 A    
C49   C67   1.410601 A    
Cu4   O20   1.961628 S    
C45   C71   1.413929 A    
Cu5   O21   1.959429 S    
O35   Cu12  1.965018 S    
C4    O20   1.289065 A    
C197  H41   1.084608 S    
O36   Cu11  1.965018 S    
C5    O21   1.283700 A    
C171  C179  1.389117 A    
C101  C109  1.434758 A    
C93   C162  1.420957 A    
C102  C150  1.414665 A    
C83   C96   1.412554 A    
C180  H32   1.074717 S    
Cu10  O46   1.970246 S    
C26   C28   1.416010 A    
C199  H43   1.084636 S    
C104  C112  1.433163 A    
C121  Br5   1.940050 S    
O2    Cu2   1.965593 S    
O39   Cu10  1.965018 S    
C92   C100  1.432100 A    
C139  C171  1.417400 A    
C113  C187  1.487330 S    
C172  H24   1.071894 S    
C91   C99   1.410767 A    
C137  C169  1.416553 A    
C71   H3    1.073786 S    
C90   C98   1.426516 A    
C165  H17   1.076774 S    
C58   C64   1.409138 A    
C154  H14   1.081771 S    
C117  C125  1.413048 A    
C160  Br12  1.925825 S    
C26   C195  1.492694 S    
C20   C34   1.411559 A    
C29   C31   1.415191 A    
C46   C54   1.432196 A    
C9    C58   1.485668 S    
C18   C26   1.421951 A    
C7    O23   1.286451 A    
C6    C125  1.503139 S    
O15   Cu7   1.957135 S    
O16   Cu8   1.957135 S    
O12   Cu4   1.957135 S    
C20   C73   1.406621 A    
C154  C162  1.395898 A    
C45   C65   1.409671 A    
C97   C158  1.408938 A    
C2    O18   1.286416 A    
C109  C183  1.505768 S    
Cu12  O43   1.963849 S    
C110  C184  1.485704 S    
C103  C151  1.403353 A    
C158  Br10  1.925852 S    
C197  O57   1.221631 D    
C189  H33   1.084895 S    
C51   C73   1.409077 A    
C49   C57   1.437771 A    
C74   H6    1.074381 S    
C46   C72   1.412077 A    
O1    C14   1.309801 A    
O3    C16   1.304630 A    
C52   C67   1.409938 A    
C77   C85   1.414840 A    
C151  C159  1.398541 A    
C105  C145  1.405540 A    
C171  H23   1.074504 S    
C195  O55   1.221198 D    
O8    C11   1.311489 A    
C140  C148  1.407418 A    
O9    Cu1   1.956157 S    
C18   C75   1.399761 A    
C108  C156  1.417349 A    
C198  H42   1.085676 S    
C52   C60   1.435122 A    
C134  C166  1.413320 A    
C23   C37   1.406666 A    
C21   C29   1.420813 A    
O32   C16   1.284915 A    
O36   C182  1.304155 A    
C196  H40   1.085204 S    
C10   C57   1.502564 S    
C177  H29   1.082761 S    
C139  C147  1.416020 A    
C137  C145  1.416117 A    
C40   C41   1.414636 A    
C135  C143  1.415936 A    
C81   C145  1.417870 A    
C150  H10   1.076367 S    
O4    Cu4   1.960794 S    
C25   C196  1.489825 S    
C111  C181  1.489227 S    
C12   C59   1.487246 S    
C23   C70   1.402960 A    
C193  O53   1.221056 D    
O28   C12   1.285573 A    
C47   C66   1.407358 A    
C173  H25   1.081348 S    
Cu7   O23   1.961629 S    
C103  C143  1.405860 A    
Cu8   O24   1.961628 S    
C43   C67   1.425364 A    
C192  O52   1.219590 D    
C24   C32   1.420022 A    
O6    C9    1.303072 A    
Cu1   O25   1.971935 S    
C117  Br1   1.942913 S    
O34   Cu12  1.959230 S    
C106  C146  1.407393 A    
C152  H12   1.076540 S    
C108  C116  1.441254 A    
Cu11  O44   1.963846 S    
C1    O17   1.289459 A    
C162  Br14  1.928220 S    
C77   C141  1.430352 A    
C6    O22   1.289854 A    
C52   C74   1.412959 A    
C50   C58   1.429457 A    
C54   C62   1.409602 A    
C101  C149  1.411042 A    
