data_mof_unit_60331.cif
_audit_creation_date              2012-10-26T21:09:26-0400
_audit_creation_method            fapswitch 2.2
_symmetry_space_group_name_H-M    P1
_symmetry_Int_Tables_number       1
_space_group_crystal_system       triclinic
_cell_length_a                    15.99874
_cell_length_b                    14.773479
_cell_length_c                    11.728968
_cell_angle_alpha                 90.00022
_cell_angle_beta                  89.984156
_cell_angle_gamma                 90.00007
_cell_volume                      2772.22416316

loop_
_atom_site_label
_atom_site_type_symbol
_atom_type_description
_atom_site_fract_x
_atom_site_fract_y
_atom_site_fract_z
_atom_type_partial_charge
C1    C     C_R   0.340833 0.500000 0.500020 0.548324
C2    C     C_R   0.442572 0.047901 0.433151 0.362837
C3    C     C_R   0.442573 0.952099 0.433151 0.362816
C4    C     C_R   0.557427 0.047901 0.566849 0.362816
C5    C     C_1   0.500000 0.802681 0.500000 0.288388
C6    C     C_1   0.500000 0.197319 0.500000 0.288388
C7    C     C_1   0.500008 0.500000 0.162003 0.014490
C8    C     C_1   0.499992 0.500000 0.837997 0.014490
C9    C     C_1   0.500003 0.500000 0.059755 -0.002304
C10   C     C_1   0.499997 0.500000 0.940245 -0.002304
C11   C     C_R   0.956382 0.582076 0.495399 -0.089907
C12   C     C_R   0.659166 0.500000 0.499980 0.548324
C13   C     C_R   0.043617 0.417924 0.504601 -0.089907
C14   C     C_R   0.043619 0.582076 0.495400 -0.089921
C15   C     C_R   0.956381 0.417924 0.504600 -0.089921
C16   C     C_R   0.912790 0.500000 0.499999 0.036179
C17   C     C_R   0.087210 0.500000 0.500001 0.036179
C18   C     C_1   0.823338 0.500000 0.499993 -0.031913
C19   C     C_1   0.176662 0.500000 0.500007 -0.031913
C20   C     C_1   0.251708 0.500000 0.500014 0.007245
C21   C     C_1   0.748292 0.500000 0.499986 0.007245
C22   C     C_R   0.500000 0.902879 0.500000 -0.097849
C23   C     C_R   0.500000 0.097121 0.500000 -0.097850
C24   C     C_R   0.500011 0.500000 0.283431 0.546436
C25   C     C_R   0.499989 0.500000 0.716569 0.546436
C26   C     C_R   0.557427 0.952099 0.566849 0.362837
Cu1   Cu    Cu3+1 0.500000 0.589220 0.500000 1.076149
Cu2   Cu    Cu3+1 0.500000 0.410780 0.500000 1.076149
F1    F     F_    0.613783 0.092672 0.632451 -0.551212
F2    F     F_    0.386217 0.907328 0.367549 -0.551211
F3    F     F_    0.386217 0.092671 0.367550 -0.551122
F4    F     F_    0.613783 0.907329 0.632450 -0.551122
H1    H     H_    0.077010 0.645825 0.491827 0.140024
H2    H     H_    0.922990 0.354174 0.508173 0.140024
H3    H     H_    0.922993 0.645826 0.491826 0.139704
H4    H     H_    0.077006 0.354174 0.508174 0.139704
N1    N     N_1   0.500000 0.276710 0.500000 -0.162157
N2    N     N_1   0.500000 0.723290 0.500000 -0.162157
O1    O     O_R   0.380310 0.575320 0.500020 -0.486707
O2    O     O_R   0.619690 0.424680 0.499980 -0.486707
O3    O     O_R   0.619690 0.575320 0.499980 -0.486700
O4    O     O_R   0.380310 0.424680 0.500020 -0.486699
O5    O     O_R   0.500010 0.575340 0.337190 -0.486446
O6    O     O_R   0.499990 0.424660 0.662810 -0.486446
O7    O     O_R   0.499990 0.575340 0.662810 -0.486356
O8    O     O_R   0.500010 0.424660 0.337190 -0.486356

loop_
_geom_bond_atom_site_label_1
_geom_bond_atom_site_label_2
_ccdc_geom_bond_type
C12   O2    A    
C3    F2    S    
C4    C26   A    
C26   F4    S    
C12   O3    A    
Cu1   O5    S    
C18   C21   T    
C11   C16   A    
Cu1   O3    S    
C15   H2    S    
C4    F1    S    
C13   C17   A    
C24   O8    A    
Cu1   O7    S    
C14   H1    S    
C11   H3    S    
C2    C3    A    
C6    N1    T    
C5    N2    T    
C8    C25   S    
C14   C17   A    
Cu2   O8    S    
Cu2   N1    S    
C6    C23   S    
C25   O6    A    
Cu2   O4    S    
C17   C19   S    
C9    C10   S    
C13   C15   A    
C11   C14   A    
C1    O1    A    
Cu1   N2    S    
C19   C20   T    
C15   C16   A    
C25   O7    A    
C1    O4    A    
Cu1   Cu2   S    
C13   H4    S    
C16   C18   S    
C22   C26   A    
C2    C23   A    
C7    C9    T    
C24   O5    A    
Cu2   O2    S    
C3    C22   A    
C4    C23   A    
C12   C21   S    
Cu2   O6    S    
C8    C10   T    
C5    C22   S    
C7    C24   S    
Cu1   O1    S    
C2    F3    S    
C1    C20   S    
