data_mof_unit_15198.cif
_audit_creation_date              2012-12-10T19:02:40-0500
_audit_creation_method            fapswitch 2.2
_symmetry_space_group_name_H-M    P1
_symmetry_Int_Tables_number       1
_space_group_crystal_system       triclinic
_cell_length_a                    9.546383
_cell_length_b                    10.815525
_cell_length_c                    13.898983
_cell_angle_alpha                 90.920722
_cell_angle_beta                  85.255979
_cell_angle_gamma                 90.35423
_cell_volume                      1429.94017312

loop_
_atom_site_label
_atom_site_type_symbol
_atom_type_description
_atom_site_fract_x
_atom_site_fract_y
_atom_site_fract_z
_atom_type_partial_charge
C1    C     C_R   0.500518 0.737546 0.499636 0.797499
C2    C     C_3   0.237055 0.927085 0.486101 -0.111162
C3    C     C_R   0.932301 0.417186 0.443294 0.245867
C4    C     C_R   0.477814 0.499811 0.682805 0.819298
C5    C     C_R   0.918718 0.574173 0.561623 -0.076299
C6    C     C_R   0.067496 0.573970 0.561788 -0.097955
C7    C     C_R   0.080090 0.417405 0.443246 0.227929
C8    C     C_3   0.100233 0.406446 0.335768 -0.525580
C9    C     C_3   0.940865 0.407970 0.335264 -0.173462
C10   C     C_R   0.499864 0.262366 0.500031 0.798157
C11   C     C_R   0.522197 0.501695 0.317272 0.827568
C12   C     C_1   0.465625 0.496320 0.785508 -0.185547
C13   C     C_1   0.534066 0.511656 0.214994 -0.217312
C14   C     C_2   0.547642 0.535000 0.025045 0.444434
C15   C     C_2   0.443464 0.486188 0.975707 0.020999
C16   C     C_1   0.455648 0.492114 0.871988 0.053255
C17   C     C_1   0.541512 0.522252 0.128963 -0.164303
C18   C     C_3   0.312981 0.423062 0.022553 -0.458782
C19   C     C_3   0.180199 0.496032 0.005397 -0.333500
C20   C     C_3   0.049389 0.434654 0.054090 -0.858738
C21   C     C_3   0.871579 0.291402 0.293288 -0.337795
C22   C     C_3   0.908248 0.167542 0.337525 -0.337866
C23   C     C_R   0.392278 0.934722 0.460062 0.106133
C24   C     C_3   0.818069 0.062880 0.300308 -0.854788
C25   C     C_3   0.729719 0.679735 0.028122 0.077799
C26   C     C_3   0.842104 0.745436 0.963536 -0.810191
C27   C     C_3   0.151426 0.863398 0.409261 -0.352731
C28   C     C_3   0.207928 0.883334 0.303539 -0.308824
C29   C     C_3   0.119717 0.812526 0.234008 -0.877802
C30   C     C_R   0.503873 0.870499 0.494073 -0.117029
C31   C     C_R   0.623678 0.936638 0.517747 -0.220893
C32   C     C_R   0.622397 0.065323 0.519249 -0.209798
C33   C     C_R   0.502351 0.129013 0.495416 -0.091335
C34   C     C_R   0.391555 0.062001 0.460461 0.066907
C35   C     C_3   0.236640 0.068276 0.486391 -0.477463
Cu1   Cu    Cu3+1 0.359330 0.500020 0.500000 0.929729
Cu2   Cu    Cu3+1 0.640670 0.499980 0.500000 0.933914
H1    H     H_    0.117910 0.635998 0.610225 0.136756
H2    H     H_    0.857494 0.636258 0.610006 0.142407
H3    H     H_    0.042140 0.336471 0.030239 0.256467
H4    H     H_    0.053030 0.439457 0.133525 0.253645
H5    H     H_    0.954194 0.483454 0.034736 0.259816
H6    H     H_    0.188850 0.591787 0.034792 0.218556
H7    H     H_    0.168180 0.501152 0.926676 0.225569
H8    H     H_    0.305498 0.328720 0.990319 0.202892
H9    H     H_    0.317363 0.411078 0.101384 0.212893
H10   H     H_    0.839350 0.976043 0.337804 0.243963
H11   H     H_    0.704564 0.084426 0.314317 0.259337
H12   H     H_    0.150345 0.490000 0.302194 0.201405
H13   H     H_    0.843007 0.048470 0.221456 0.246851
H14   H     H_    0.019763 0.144817 0.317088 0.204374
H15   H     H_    0.891082 0.172677 0.417404 0.217594
H16   H     H_    0.755964 0.303572 0.302954 0.220003
H17   H     H_    0.900683 0.286666 0.214312 0.193976
H18   H     H_    0.781692 0.636863 0.088027 0.150944
H19   H     H_    0.652321 0.749933 0.058123 0.140577
H20   H     H_    0.793463 0.791473 0.903766 0.248879
H21   H     H_    0.895622 0.816332 0.006338 0.198354
H22   H     H_    0.921378 0.677929 0.932593 0.249480
H23   H     H_    0.151945 0.318578 0.311309 0.188874
H24   H     H_    0.122946 0.711714 0.247644 0.251618
H25   H     H_    0.008942 0.843996 0.242479 0.255447
H26   H     H_    0.162380 0.828869 0.158497 0.239357
H27   H     H_    0.206839 0.983172 0.286331 0.208149
H28   H     H_    0.317812 0.849585 0.291681 0.216480
H29   H     H_    0.149740 0.762522 0.422959 0.218706
H30   H     H_    0.041082 0.896121 0.420255 0.190777
H31   H     H_    0.903915 0.494097 0.302838 0.171719
H32   H     H_    0.715225 0.889597 0.540019 0.158223
H33   H     H_    0.712780 0.114421 0.543077 0.160984
H34   H     H_    0.210450 0.109783 0.559332 0.187113
H35   H     H_    0.180757 0.110220 0.428385 0.182053
H36   H     H_    0.211511 0.889423 0.559573 0.144918
N1    N     N_R   0.852140 0.499070 0.499400 -0.197957
N2    N     N_R   0.148050 0.499110 0.499400 -0.183531
O1    O     O_R   0.381190 0.680360 0.500000 -0.589998
O2    O     O_R   0.618770 0.680320 0.499990 -0.585666
O3    O     O_R   0.364410 0.500000 0.637850 -0.579690
O4    O     O_R   0.602000 0.499960 0.637840 -0.565900
O5    O     O_R   0.381230 0.319680 0.500010 -0.574694
O6    O     O_R   0.618810 0.319640 0.500000 -0.586085
O7    O     O_R   0.398000 0.500040 0.362160 -0.574209
O8    O     O_R   0.635590 0.500000 0.362150 -0.591372
O9    O     O_3   0.663591 0.588723 0.973103 -0.580393

loop_
_geom_bond_atom_site_label_1
_geom_bond_atom_site_label_2
_ccdc_geom_bond_type
C2    C35   S    
C15   C18   S    
Cu2   N1    S    
C29   H26   S    
C7    N2    A    
C1    O2    A    
C19   C20   S    
C25   H19   S    
C14   O9    S    
C20   H4    S    
C7    C8    S    
Cu2   O4    S    
C5    C6    A    
Cu1   Cu2   S    
C18   C19   S    
C3    C7    A    
C30   C31   A    
C20   H3    S    
C15   C16   S    
C34   C35   S    
C5    N1    A    
C3    N1    A    
Cu1   O1    S    
C12   C16   T    
Cu1   O7    S    
C8    C9    S    
C25   O9    S    
C6    H1    S    
C2    C27   S    
C4    C12   S    
C26   H22   S    
C35   H34   S    
C21   C22   S    
C24   H10   S    
C14   C17   S    
Cu2   O6    S    
C18   H9    S    
C19   H6    S    
C11   O7    A    
C24   H13   S    
C29   H24   S    
C24   H11   S    
C23   C30   A    
C6    N2    A    
C4    O4    A    
Cu1   O5    S    
C10   O5    A    
C32   H33   S    
C11   O8    A    
C25   C26   S    
Cu2   O2    S    
C4    O3    A    
C3    C9    S    
Cu1   N2    S    
C31   C32   A    
C23   C34   A    
C33   C34   A    
C26   H21   S    
C2    H36   S    
C28   H27   S    
C35   H35   S    
C5    H2    S    
C22   C24   S    
C18   H8    S    
C27   C28   S    
C19   H7    S    
C22   H15   S    
C29   H25   S    
C28   C29   S    
C1    O1    A    
C25   H18   S    
C20   H5    S    
C10   O6    A    
C13   C17   T    
C32   C33   A    
C28   H28   S    
C9    H31   S    
C27   H29   S    
Cu1   O3    S    
C8    H23   S    
C21   H16   S    
C11   C13   S    
C9    C21   S    
C21   H17   S    
C1    C30   S    
C10   C33   S    
C26   H20   S    
C27   H30   S    
C31   H32   S    
C2    C23   S    
C14   C15   D    
Cu2   O8    S    
C8    H12   S    
C22   H14   S    
