data_mof_unit_18594.cif
_audit_creation_date              2012-12-10T17:31:50-0500
_audit_creation_method            fapswitch 2.2
_symmetry_space_group_name_H-M    P1
_symmetry_Int_Tables_number       1
_space_group_crystal_system       triclinic
_cell_length_a                    12.094334
_cell_length_b                    11.538037
_cell_length_c                    12.695868
_cell_angle_alpha                 91.086183
_cell_angle_beta                  95.392765
_cell_angle_gamma                 84.071535
_cell_volume                      1754.29171519

loop_
_atom_site_label
_atom_site_type_symbol
_atom_type_description
_atom_site_fract_x
_atom_site_fract_y
_atom_site_fract_z
_atom_type_partial_charge
C1    C     C_R   0.475196 0.511924 0.298924 0.865225
C2    C     C_R   0.975146 0.537818 0.539126 -0.031209
C3    C     C_R   0.501398 0.281919 0.498612 0.894108
C4    C     C_R   0.498530 0.718089 0.501093 0.897295
C5    C     C_1   0.503877 0.161112 0.498380 -0.214942
C6    C     C_1   0.495863 0.838904 0.500953 -0.204727
C7    C     C_1   0.501868 0.059117 0.498991 -0.002322
C8    C     C_1   0.497681 0.940916 0.500146 -0.004830
C9    C     C_R   0.545370 0.460512 0.813765 -0.135662
C10   C     C_R   0.453840 0.532906 0.184984 -0.153718
C11   C     C_R   0.350814 0.487540 0.020497 -0.223974
C12   C     C_R   0.524728 0.485785 0.700597 0.863138
C13   C     C_R   0.646225 0.512221 0.977117 -0.235133
C14   C     C_R   0.350148 0.514565 0.127897 0.130419
C15   C     C_R   0.648655 0.476274 0.872017 0.135526
C16   C     C_R   0.542206 0.563248 0.129474 0.104155
C17   C     C_R   0.454587 0.435468 0.868277 0.101709
C18   C     C_R   0.546141 0.521879 0.025350 0.049917
C19   C     C_R   0.450439 0.478838 0.971828 0.038303
C20   C     C_3   0.370669 0.353755 0.819868 -0.404568
C21   C     C_3   0.429198 0.240560 0.778232 -0.822241
C22   C     C_3   0.624063 0.647140 0.177512 -0.411354
C23   C     C_R   0.045886 0.597683 0.611365 0.101864
C24   C     C_3   0.562931 0.759337 0.218256 -0.823765
C25   C     C_3   0.761492 0.450250 0.827717 -0.366809
C26   C     C_3   0.844018 0.370691 0.899976 -0.913925
C27   C     C_3   0.241083 0.523028 0.180400 -0.340373
C28   C     C_3   0.134034 0.547068 0.106103 -0.967396
C29   C     C_3   0.787902 0.290108 0.372340 -0.327992
C30   C     C_3   0.716054 0.303525 0.266486 -0.809448
C31   C     C_3   0.224445 0.692807 0.646054 -0.375173
C32   C     C_3   0.193365 0.808269 0.588132 -0.884946
C33   C     C_3   0.004858 0.652171 0.713734 -0.418615
C34   C     C_R   0.955435 0.401208 0.391834 0.058600
C35   C     C_3   0.047435 0.574504 0.808262 -0.911173
C36   C     C_3   0.001803 0.337094 0.296157 -0.429353
C37   C     C_3   0.072273 0.221521 0.324660 -0.881160
C38   C     C_R   0.160676 0.596985 0.592890 0.280190
C39   C     C_R   0.842007 0.398414 0.411883 0.242936
C40   C     C_R   0.141533 0.457932 0.454343 -0.112729
C41   C     C_R   0.856763 0.548213 0.541571 -0.113740
C42   C     C_R   0.024121 0.466430 0.460323 -0.011433
H1    H     H_    0.273850 0.472719 0.974809 0.159326
H2    H     H_    0.509057 0.804225 0.152496 0.252766
H3    H     H_    0.510304 0.741155 0.281569 0.245460
H4    H     H_    0.624645 0.818546 0.251063 0.245065
H5    H     H_    0.682869 0.605716 0.241295 0.231458
H6    H     H_    0.676433 0.676107 0.118007 0.195169
H7    H     H_    0.877453 0.419326 0.970129 0.254070
H8    H     H_    0.803125 0.295710 0.926264 0.271086
H9    H     H_    0.915768 0.335937 0.856222 0.246980
H10   H     H_    0.754122 0.402368 0.751523 0.238830
H11   H     H_    0.797424 0.533195 0.815489 0.208171
H12   H     H_    0.723718 0.528088 0.021906 0.149641
H13   H     H_    0.140770 0.621386 0.053526 0.275808
H14   H     H_    0.116563 0.468345 0.058242 0.262210
H15   H     H_    0.062160 0.570388 0.153461 0.250602
H16   H     H_    0.237053 0.441136 0.223651 0.206954
H17   H     H_    0.240269 0.597295 0.237448 0.230351
H18   H     H_    0.742985 0.232994 0.210804 0.219357
H19   H     H_    0.627493 0.294722 0.277723 0.261672
H20   H     H_    0.723934 0.387826 0.228608 0.249940
H21   H     H_    0.853238 0.217613 0.362037 0.179092
H22   H     H_    0.748224 0.249927 0.434171 0.215890
H23   H     H_    0.813059 0.609991 0.591206 0.144624
H24   H     H_    0.103479 0.838063 0.591108 0.244551
H25   H     H_    0.243224 0.876027 0.625899 0.251474
H26   H     H_    0.210904 0.798534 0.503942 0.277861
H27   H     H_    0.210091 0.704907 0.730428 0.182780
H28   H     H_    0.314242 0.674131 0.651616 0.264407
H29   H     H_    0.013675 0.612722 0.881012 0.258820
H30   H     H_    0.019087 0.486551 0.794975 0.271803
H31   H     H_    0.139890 0.565127 0.820689 0.248885
H32   H     H_    0.029996 0.741201 0.727453 0.211840
H33   H     H_    0.913691 0.666031 0.714313 0.192549
H34   H     H_    0.182229 0.401988 0.397674 0.168636
H35   H     H_    0.138908 0.205362 0.270079 0.250734
H36   H     H_    0.112022 0.222022 0.407094 0.265090
H37   H     H_    0.020522 0.147416 0.315644 0.249222
H38   H     H_    0.934488 0.320572 0.233892 0.222608
H39   H     H_    0.052578 0.395048 0.256990 0.206449
H40   H     H_    0.365904 0.183354 0.744919 0.244297
H41   H     H_    0.482416 0.257746 0.715144 0.246772
H42   H     H_    0.482099 0.193944 0.843645 0.251896
H43   H     H_    0.317803 0.325350 0.879167 0.195851
H44   H     H_    0.312443 0.397094 0.756587 0.233379
N1    N     N_R   0.792200 0.479100 0.480660 -0.121901
N2    N     N_R   0.207800 0.520900 0.519340 -0.132156
O1    O     O_R   0.578300 0.494420 0.341180 -0.593203
O2    O     O_R   0.421700 0.505580 0.658820 -0.636064
O3    O     O_R   0.390690 0.507830 0.353590 -0.636722
O4    O     O_R   0.609310 0.492170 0.646410 -0.632899
O5    O     O_R   0.593810 0.327740 0.493800 -0.624137
O6    O     O_R   0.406190 0.672260 0.506200 -0.620883
O7    O     O_R   0.406190 0.341150 0.506220 -0.600764
O8    O     O_R   0.593810 0.658850 0.493780 -0.604584
Zn1   Zn    Zn3+2 0.625270 0.491050 0.491710 0.924336
Zn2   Zn    Zn3+2 0.374730 0.508950 0.508290 0.913877

loop_
_geom_bond_atom_site_label_1
_geom_bond_atom_site_label_2
_ccdc_geom_bond_type
C22   H6    S    
C29   H21   S    
C20   H44   S    
C34   C42   A    
C39   N1    A    
C28   H14   S    
O7    Zn2   S    
C7    C8    S    
C28   H15   S    
C37   H37   S    
C11   C19   A    
C13   C18   A    
C24   H3    S    
C12   O2    A    
C36   C37   S    
C25   H11   S    
C26   H8    S    
C11   C14   A    
C15   C25   S    
O6    Zn2   S    
C2    C41   A    
C17   C20   S    
C18   C19   A    
C33   C35   S    
C4    O8    A    
C33   H33   S    
C31   H28   S    
C21   H41   S    
C23   C33   S    
C30   H18   S    
C1    O1    A    
C11   H1    S    
C14   C27   S    
C32   H26   S    
C40   C42   A    
C22   H5    S    
C29   H22   S    
C35   H29   S    
C1    O3    A    
C20   H43   S    
C28   H13   S    
O4    Zn1   S    
C41   N1    A    
C34   C39   A    
C4    C6    S    
C36   H38   S    
C26   H7    S    
C5    C7    T    
C6    C8    T    
C25   C26   S    
C37   H35   S    
C40   H34   S    
O1    Zn1   S    
C29   C30   S    
C31   C32   S    
C21   H42   S    
C36   H39   S    
O8    Zn1   S    
C29   C39   S    
C3    O5    A    
C21   H40   S    
C32   H25   S    
C4    O6    A    
C9    C17   A    
C35   H30   S    
C30   H20   S    
C10   C14   A    
C24   H2    S    
C22   C24   S    
O5    Zn1   S    
C2    C23   A    
C32   H24   S    
C13   H12   S    
C35   H31   S    
C16   C22   S    
C12   O4    A    
C1    C10   S    
C3    C5    S    
C27   H16   S    
C41   H23   S    
C23   C38   A    
C37   H36   S    
C31   C38   S    
C24   H4    S    
C40   N2    A    
C13   C15   A    
C9    C15   A    
C25   H10   S    
C27   H17   S    
C26   H9    S    
C2    C42   A    
C17   C19   A    
C3    O7    A    
C34   C36   S    
O3    Zn2   S    
C9    C12   S    
C33   H32   S    
C31   H27   S    
C20   C21   S    
C16   C18   A    
C30   H19   S    
C38   N2    A    
C27   C28   S    
C10   C16   A    
O2    Zn2   S    
N2    Zn2   S    
N1    Zn1   S    
