data_mof_unit_25002.cif
_audit_creation_date              2013-03-05T15:40:46-0500
_audit_creation_method            fapswitch 2.2
_symmetry_space_group_name_H-M    P1
_symmetry_Int_Tables_number       1
_space_group_crystal_system       triclinic
_cell_length_a                    16.673668
_cell_length_b                    16.673693
_cell_length_c                    16.824732
_cell_angle_alpha                 67.71991
_cell_angle_beta                  67.719977
_cell_angle_gamma                 67.858514
_cell_volume                      3853.78369162

loop_
_atom_site_label
_atom_site_type_symbol
_atom_site_description
_atom_site_fract_x
_atom_site_fract_y
_atom_site_fract_z
_atom_type_partial_charge
O1    O     O_R   0.124540 0.978640 0.385460 -0.553647
O2    O     O_R   0.875460 0.021360 0.614540 -0.561728
O3    O     O_R   0.978640 0.385460 0.124540 -0.551487
O4    O     O_R   0.021360 0.614540 0.875460 -0.559921
O5    O     O_R   0.385460 0.124540 0.978640 -0.568009
O6    O     O_R   0.614540 0.875460 0.021360 -0.597091
O7    O     O_R   0.614540 0.021360 0.875460 -0.559920
O8    O     O_R   0.385460 0.978640 0.124540 -0.551489
O9    O     O_R   0.875460 0.614540 0.021360 -0.597087
O10   O     O_R   0.124540 0.385460 0.978640 -0.568009
O11   O     O_R   0.021360 0.875460 0.614540 -0.561744
O12   O     O_R   0.978640 0.124540 0.385460 -0.553740
Cu1   Cu    Cu3+1 0.995180 0.995180 0.424630 1.120770
Cu2   Cu    Cu3+1 0.004820 0.004820 0.575370 1.115767
Cu3   Cu    Cu3+1 0.995180 0.424630 0.995180 1.136192
Cu4   Cu    Cu3+1 0.004820 0.575370 0.004820 1.114968
Cu5   Cu    Cu3+1 0.424630 0.995180 0.995180 1.136192
Cu6   Cu    Cu3+1 0.575370 0.004820 0.004820 1.114958
C1    C     C_R   0.030125 0.827922 0.564074 0.826647
C2    C     C_R   0.972073 0.171912 0.435334 0.854031
C3    C     C_R   0.827842 0.564223 0.029086 0.810471
C4    C     C_R   0.172237 0.436208 0.969544 0.902156
C5    C     C_R   0.564620 0.028672 0.828164 0.824378
C6    C     C_R   0.429981 0.986375 0.168525 0.868907
C7    C     C_R   0.436208 0.172237 0.969544 0.902164
C8    C     C_R   0.564223 0.827842 0.029086 0.810473
C9    C     C_R   0.986375 0.429981 0.168525 0.868894
C10   C     C_R   0.028676 0.564619 0.828163 0.824362
C11   C     C_R   0.171912 0.972070 0.435334 0.853904
C12   C     C_R   0.827924 0.030110 0.564080 0.826800
O13   O     O_R   0.013780 0.867370 0.487190 -0.574868
O14   O     O_R   0.986220 0.132630 0.512810 -0.575226
O15   O     O_R   0.867370 0.487190 0.013780 -0.564532
O16   O     O_R   0.132630 0.512810 0.986220 -0.524361
O17   O     O_R   0.487190 0.013780 0.867370 -0.577561
O18   O     O_R   0.512810 0.986220 0.132630 -0.576706
O19   O     O_R   0.512810 0.132630 0.986220 -0.524367
O20   O     O_R   0.487190 0.867370 0.013780 -0.564533
O21   O     O_R   0.986220 0.512810 0.132630 -0.576698
O22   O     O_R   0.013780 0.487190 0.867370 -0.577557
O23   O     O_R   0.132630 0.986220 0.512810 -0.575234
O24   O     O_R   0.867370 0.013780 0.487190 -0.575002
H1    H     H_    0.335246 0.049764 0.694160 0.195454
H2    H     H_    0.583053 0.125785 0.264408 0.191271
H3    H     H_    0.101528 0.678507 0.328583 0.190146
H4    H     H_    0.937032 0.325912 0.658777 0.191872
H5    H     H_    0.690059 0.334815 0.050741 0.199385
H6    H     H_    0.311293 0.666485 0.942478 0.182470
H7    H     H_    0.325929 0.937000 0.658777 0.191874
H8    H     H_    0.678484 0.101566 0.328585 0.190196
H9    H     H_    0.666485 0.311296 0.942475 0.182468
H10   H     H_    0.334814 0.690058 0.050744 0.199384
H11   H     H_    0.125779 0.583059 0.264407 0.191261
H12   H     H_    0.049795 0.335237 0.694155 0.195454
C13   C     C_R   0.447272 0.073191 0.706677 0.332297
C14   C     C_R   0.486543 0.075920 0.258514 0.348278
C15   C     C_R   0.096316 0.698755 0.447663 0.332207
C16   C     C_R   0.933714 0.303465 0.543044 0.330626
C17   C     C_R   0.704029 0.448170 0.069815 0.326573
C18   C     C_R   0.296761 0.552531 0.925002 0.367960
C19   C     C_R   0.303474 0.933695 0.543042 0.330641
C20   C     C_R   0.698739 0.096354 0.447666 0.332133
C21   C     C_R   0.552531 0.296762 0.925001 0.367956
C22   C     C_R   0.448170 0.704029 0.069817 0.326594
C23   C     C_R   0.075918 0.486546 0.258513 0.348282
C24   C     C_R   0.073211 0.447268 0.706673 0.332297
C25   C     C_R   0.535261 0.049775 0.536480 0.035224
C26   C     C_R   0.444032 0.017350 0.445150 0.037697
C27   C     C_R   0.049788 0.535255 0.536477 0.035212
C28   C     C_R   0.017362 0.444024 0.445149 0.037697
C29   C     C_R   0.542532 0.542532 0.022823 0.032989
C30   C     C_R   0.458784 0.458784 0.971041 0.035924
C31   C     C_R   0.570007 0.061448 0.443419 0.023138
C32   C     C_R   0.411683 0.003176 0.538525 0.020308
C33   C     C_R   0.029781 0.451544 0.581900 0.019232
C34   C     C_R   0.052790 0.519408 0.396596 0.019639
C35   C     C_R   0.454967 0.586541 0.012033 0.018774
C36   C     C_R   0.546478 0.414936 0.981420 0.025517
C37   C     C_R   0.519411 0.052787 0.396596 0.019636
C38   C     C_R   0.451553 0.029759 0.581904 0.019234
C39   C     C_R   0.414935 0.546478 0.981421 0.025512
C40   C     C_R   0.586540 0.454968 0.012031 0.018773
C41   C     C_R   0.003197 0.411672 0.538523 0.020311
C42   C     C_R   0.061448 0.570006 0.443418 0.023136
C43   C     C_R   0.406160 0.046356 0.665834 -0.268349
C44   C     C_R   0.537113 0.084629 0.303190 -0.248648
C45   C     C_R   0.086737 0.651204 0.400102 -0.251794
C46   C     C_R   0.958949 0.343382 0.586526 -0.262856
C47   C     C_R   0.664501 0.406790 0.041468 -0.260251
C48   C     C_R   0.336901 0.594476 0.952045 -0.200625
C49   C     C_R   0.343395 0.958923 0.586526 -0.262860
C50   C     C_R   0.651193 0.086764 0.400104 -0.251817
C51   C     C_R   0.594476 0.336902 0.952043 -0.200620
C52   C     C_R   0.406789 0.664501 0.041471 -0.260267
C53   C     C_R   0.084627 0.537115 0.303189 -0.248641
C54   C     C_R   0.046382 0.406153 0.665829 -0.268341
C55   C     C_R   0.542180 0.060195 0.675272 -0.023918
C56   C     C_R   0.425797 0.021650 0.305322 -0.034847
C57   C     C_R   0.069181 0.671587 0.542580 -0.026127
C58   C     C_R   0.963728 0.323371 0.448278 -0.032941
C59   C     C_R   0.674694 0.543380 0.053800 -0.018956
C60   C     C_R   0.326000 0.457296 0.941797 0.001534
C61   C     C_R   0.323376 0.963719 0.448277 -0.032923
C62   C     C_R   0.671588 0.069176 0.542585 -0.026093
C63   C     C_R   0.457296 0.326001 0.941797 0.001538
C64   C     C_R   0.543380 0.674694 0.053800 -0.018953
C65   C     C_R   0.021653 0.425795 0.305322 -0.034848
C66   C     C_R   0.060212 0.542176 0.675268 -0.023912
C67   C     C_R   0.596993 0.048864 0.728902 -0.073832
C68   C     C_R   0.388194 0.991646 0.261903 -0.104848
C69   C     C_R   0.052106 0.727617 0.597069 -0.073948
C70   C     C_R   0.961787 0.270454 0.399375 -0.062721
C71   C     C_R   0.728026 0.596715 0.047715 -0.078363
C72   C     C_R   0.272235 0.403690 0.949568 -0.045478
C73   C     C_R   0.270455 0.961785 0.399374 -0.062734
C74   C     C_R   0.727619 0.052089 0.597076 -0.073843
C75   C     C_R   0.403690 0.272236 0.949568 -0.045484
C76   C     C_R   0.596715 0.728026 0.047715 -0.078356
C77   C     C_R   0.991646 0.388193 0.261903 -0.104859
C78   C     C_R   0.048877 0.596991 0.728898 -0.073845
C79   C     C_R   0.688543 0.044032 0.688653 -0.186702
C80   C     C_R   0.308554 0.966337 0.308905 -0.174408
C81   C     C_R   0.044053 0.688539 0.688646 -0.186627
C82   C     C_R   0.966336 0.308555 0.308907 -0.174414
C83   C     C_R   0.687657 0.687657 0.045085 -0.255835
C84   C     C_R   0.312502 0.312502 0.952835 -0.158182
H13   H     H_    0.731015 0.030129 0.730231 0.199576
H14   H     H_    0.273576 0.954173 0.273687 0.219830
H15   H     H_    0.030154 0.731010 0.730223 0.199587
H16   H     H_    0.954169 0.273578 0.273690 0.219826
H17   H     H_    0.728810 0.728809 0.037005 0.187096
H18   H     H_    0.271097 0.271098 0.962105 0.202015
C85   C     C_R   0.583477 0.058935 0.584981 -0.010646
C86   C     C_R   0.398487 0.999730 0.399725 -0.009039
C87   C     C_R   0.058949 0.583473 0.584977 -0.010621
C88   C     C_R   0.999738 0.398483 0.399725 -0.009033
C89   C     C_R   0.587046 0.587046 0.043177 -0.010656
C90   C     C_R   0.413891 0.413892 0.951717 -0.005648
N1    N     N_R   0.390580 0.128546 0.766262 0.153510
O25   O     O_R   0.309512 0.121714 0.812183 -0.315979
O26   O     O_R   0.415927 0.193122 0.766984 -0.311923
N2    N     N_R   0.484348 0.136822 0.171577 0.122774
O27   O     O_R   0.555660 0.162640 0.117651 -0.366918
O28   O     O_R   0.406938 0.181339 0.154709 -0.396565
N3    N     N_R   0.147355 0.763958 0.398677 0.144696
O29   O     O_R   0.144813 0.811542 0.317462 -0.315233
O30   O     O_R   0.206003 0.766911 0.430339 -0.309518
N4    N     N_R   0.868769 0.252431 0.595295 0.143063
O31   O     O_R   0.806466 0.258237 0.563080 -0.295866
O32   O     O_R   0.864895 0.208622 0.678642 -0.311562
N5    N     N_R   0.761537 0.391877 0.127441 0.153117
O33   O     O_R   0.807561 0.310300 0.122699 -0.317242
O34   O     O_R   0.760675 0.418451 0.191289 -0.328699
N6    N     N_R   0.237755 0.608122 0.868770 0.137411
O35   O     O_R   0.237524 0.581127 0.805712 -0.321728
O36   O     O_R   0.191507 0.689588 0.873733 -0.307652
N7    N     N_R   0.252439 0.868751 0.595287 0.143058
O37   O     O_R   0.208646 0.864859 0.678641 -0.311551
O38   O     O_R   0.258222 0.806469 0.563057 -0.295993
N8    N     N_R   0.763900 0.147454 0.398699 0.144762
O39   O     O_R   0.767037 0.205845 0.430556 -0.309702
O40   O     O_R   0.811168 0.145321 0.317324 -0.315062
N9    N     N_R   0.608122 0.237756 0.868770 0.137410
O41   O     O_R   0.689588 0.191508 0.873732 -0.307653
O42   O     O_R   0.581126 0.237524 0.805712 -0.321723
N10   N     N_R   0.391877 0.761533 0.127447 0.153083
O43   O     O_R   0.418458 0.760673 0.191290 -0.328726
O44   O     O_R   0.310294 0.807547 0.122718 -0.317328
N11   N     N_R   0.136817 0.484357 0.171574 0.122768
O45   O     O_R   0.181347 0.406948 0.154706 -0.396560
O46   O     O_R   0.162618 0.555676 0.117644 -0.366912
N12   N     N_R   0.128561 0.390580 0.766265 0.153507
O47   O     O_R   0.193133 0.415930 0.766990 -0.311933
O48   O     O_R   0.121729 0.309513 0.812186 -0.315975

loop_
_geom_bond_atom_site_label_1
_geom_bond_atom_site_label_2
_geom_bond_distance
_ccdc_geom_bond_type
N10   O44   1.301700 A    
C13   C43   1.401364 A    
N7    O37   1.301669 A    
C56   C68   1.427556 A    
C15   N3    1.439296 S    
H11   C53   1.077553 S    
C59   C71   1.431812 A    
N11   O45   1.301269 A    
C66   C78   1.432150 A    
N9    O41   1.301656 A    
C42   C45   1.411044 A    
C55   C85   1.415074 A    
C1    O13   1.291202 A    
C34   C42   1.426594 A    
N3    O29   1.301881 A    
C11   O23   1.285736 A    
C29   C89   1.421176 A    
C12   C74   1.492590 S    
C77   C82   1.392770 A    
O10   C4    1.299490 A    
C4    O16   1.281241 A    
C21   N9    1.440697 S    
O11   C1    1.303635 A    
C38   C43   1.404093 A    
C40   C47   1.407013 A    
O12   C2    1.306785 A    
C24   N12   1.440779 S    
N9    O42   1.301818 A    
O9    Cu4   1.943464 S    
N4    O32   1.301669 A    
C70   C82   1.393451 A    
O10   Cu3   1.943463 S    
C34   C53   1.404429 A    
C17   C47   1.403047 A    
C72   C84   1.400242 A    
O11   Cu2   1.942732 S    
C16   N4    1.440483 S    
C3    O15   1.278450 A    
C10   O22   1.278788 A    
C36   C51   1.407288 A    
C26   C32   1.409569 A    
Cu3   Cu4   2.646258 S    
C15   C57   1.420654 A    
C35   C52   1.407016 A    
C13   N1    1.440780 S    
C60   C90   1.411960 A    
C36   C40   1.419371 A    
C30   C36   1.412082 A    
H5    C47   1.081241 S    
H3    C45   1.077127 S    
C7    O19   1.281241 A    
C63   C90   1.411961 A    
C2    C70   1.485801 S    
C33   C41   1.416462 A    
C9    O21   1.279895 A    
C20   C50   1.402864 A    
C22   N10   1.441152 S    
N5    O33   1.301698 A    
H10   C52   1.081241 S    
C25   C31   1.411066 A    
C76   C83   1.398801 A    
C14   C56   1.417945 A    
C21   C63   1.421164 A    
C75   C84   1.400242 A    
H12   C54   1.082147 S    
C30   C39   1.412085 A    
C78   C81   1.400015 A    
C29   C40   1.412615 A    
Cu4   O16   1.947728 S    
C1    C69   1.492604 S    
C26   C37   1.418220 A    
C30   C90   1.420456 A    
C41   C46   1.406140 A    
C11   C73   1.485808 S    
O2    Cu2   1.942729 S    
C27   C87   1.421298 A    
C73   C80   1.393448 A    
C32   C38   1.416458 A    
Cu1   Cu2   2.668606 S    
C64   C76   1.431811 A    
C28   C88   1.423230 A    
H2    C44   1.077547 S    
C63   C75   1.430423 A    
H7    C49   1.082121 S    
C18   C60   1.421164 A    
C65   C77   1.427557 A    
Cu1   O24   1.947814 S    
N3    O30   1.301399 A    
N12   O48   1.301702 A    
C33   C54   1.404095 A    
H4    C46   1.082123 S    
O6    Cu6   1.943466 S    
C62   C85   1.413655 A    
C23   C53   1.397382 A    
C69   C81   1.401559 A    
C17   C59   1.422065 A    
C6    C68   1.479832 S    
N4    O31   1.301393 A    
C66   C87   1.415080 A    
C3    C71   1.488349 S    
C10   C78   1.490291 S    
C24   C66   1.422898 A    
C59   C89   1.412490 A    
C8    O20   1.278449 A    
C64   C89   1.412491 A    
C20   C62   1.420677 A    
C15   C45   1.402792 A    
C23   N11   1.434663 S    
H1    C43   1.082146 S    
C32   C49   1.406151 A    
O4    Cu4   1.960185 S    
C61   C73   1.431320 A    
C65   C88   1.414395 A    
C60   C72   1.430421 A    
C19   N7    1.440491 S    
C55   C67   1.432148 A    
C83   H17   1.083312 S    
C14   C44   1.397391 A    
C84   H18   1.083278 S    
O7    Cu6   1.960186 S    
C57   C69   1.430136 A    
C13   C55   1.422898 A    
O1    C11   1.306781 A    
Cu5   Cu6   2.646256 S    
C31   C37   1.426617 A    
C16   C58   1.421853 A    
C6    O18   1.279894 A    
O5    Cu5   1.943466 S    
C22   C64   1.422066 A    
C28   C41   1.409573 A    
N6    O35   1.301818 A    
H9    C51   1.081168 S    
Cu2   O23   1.947814 S    
O5    C7    1.299488 A    
C39   C48   1.407286 A    
H8    C50   1.077108 S    
C58   C70   1.431323 A    
C17   N5    1.441147 S    
C28   C34   1.418204 A    
N10   O43   1.301887 A    
C20   N8    1.439404 S    
O1    Cu1   1.942729 S    
C19   C61   1.421844 A    
C29   C35   1.412615 A    
O3    Cu3   1.960184 S    
N12   O47   1.301878 A    
C24   C54   1.401366 A    
C2    O14   1.285727 A    
C56   C86   1.414388 A    
C25   C85   1.421284 A    
N6    O36   1.301656 A    
C61   C86   1.419672 A    
C12   O24   1.291197 A    
C25   C38   1.411508 A    
C8    C76   1.488350 S    
C31   C50   1.411068 A    
Cu2   O14   1.947813 S    
C7    C75   1.489558 S    
N1    O25   1.301703 A    
C79   H13   1.083284 S    
C9    C77   1.479841 S    
C21   C51   1.403244 A    
C5    O17   1.278773 A    
O8    Cu5   1.960184 S    
C57   C87   1.413660 A    
O2    C12   1.303620 A    
N8    O39   1.301253 A    
C62   C74   1.430135 A    
C26   C86   1.423234 A    
C14   N2    1.434669 S    
C27   C42   1.411075 A    
C82   H16   1.083830 S    
N1    O26   1.301878 A    
O9    C3    1.300889 A    
O6    C8    1.300891 A    
Cu6   O18   1.961034 S    
O7    C5    1.301169 A    
O3    C9    1.294773 A    
O8    C6    1.294771 A    
C23   C65   1.417946 A    
C27   C33   1.411505 A    
C67   C79   1.400003 A    
N2    O28   1.301275 A    
Cu5   O20   1.947731 S    
N5    O34   1.301884 A    
C80   H14   1.083831 S    
Cu1   O13   1.947814 S    
C18   N6    1.440697 S    
Cu3   O22   1.961035 S    
C81   H15   1.083285 S    
Cu4   O21   1.961034 S    
C22   C52   1.403049 A    
C19   C49   1.403183 A    
C4    C72   1.489554 S    
C71   C83   1.398801 A    
O12   Cu1   1.942732 S    
N7    O38   1.301403 A    
C35   C39   1.419373 A    
O4    C10   1.301174 A    
N2    O27   1.301514 A    
Cu6   O19   1.947732 S    
C18   C48   1.403247 A    
H6    C48   1.081168 S    
C74   C79   1.401542 A    
Cu5   O17   1.961036 S    
C16   C46   1.403177 A    
Cu3   O15   1.947729 S    
C37   C44   1.404435 A    
C68   C80   1.392769 A    
C58   C88   1.419667 A    
C5    C67   1.490259 S    
N8    O40   1.301715 A    
N11   O46   1.301517 A    
