data_mof_unit_34013.cif
_audit_creation_date              2013-03-05T16:10:47-0500
_audit_creation_method            fapswitch 2.2
_symmetry_space_group_name_H-M    P1
_symmetry_Int_Tables_number       1
_space_group_crystal_system       triclinic
_cell_length_a                    22.416945
_cell_length_b                    7.094072
_cell_length_c                    19.413407
_cell_angle_alpha                 90.014202
_cell_angle_beta                  99.655469
_cell_angle_gamma                 90.013665
_cell_volume                      3043.53004653

loop_
_atom_site_label
_atom_site_type_symbol
_atom_site_description
_atom_site_fract_x
_atom_site_fract_y
_atom_site_fract_z
_atom_type_partial_charge
O1    O     O_R   0.443980 0.494320 0.557430 -0.593295
O2    O     O_R   0.556020 0.994320 0.442570 -0.586835
O3    O     O_R   0.441210 0.822520 0.414610 -0.573460
O4    O     O_R   0.558790 0.322520 0.585390 -0.590364
C1    C     C_R   0.426348 0.655337 0.388936 0.970467
C2    C     C_R   0.573507 0.155138 0.611141 0.961384
O5    O     O_R   0.436920 0.823940 0.555180 -0.585743
O6    O     O_R   0.563080 0.323940 0.444820 -0.591117
O7    O     O_R   0.551700 0.995760 0.584140 -0.579332
O8    O     O_R   0.448300 0.495760 0.415860 -0.591904
C3    C     C_R   0.421676 0.655405 0.574857 0.979424
C4    C     C_R   0.578319 0.155407 0.425135 0.979861
O9    O     O_3   0.537660 0.661290 0.509340 -0.278797
O10   O     O_3   0.462340 0.161290 0.490660 -0.277755
V1    V     V_3+5 0.493010 0.935560 0.498270 1.205647
V2    V     V_3+5 0.506990 0.435560 0.501730 1.189546
C5    C     C_R   0.753527 0.933517 0.211026 0.505384
C6    C     C_R   0.246352 0.433458 0.788824 0.504386
C7    C     C_R   0.792471 0.087084 0.203358 -0.236578
C8    C     C_R   0.207462 0.587067 0.796556 -0.236021
C9    C     C_R   0.787374 0.253020 0.240957 -0.195629
C10   C     C_R   0.212588 0.752999 0.758989 -0.196180
H1    H     H_    0.816978 0.370940 0.235361 0.199243
H2    H     H_    0.183016 0.870939 0.764624 0.199015
C11   C     C_R   0.744942 0.271295 0.286079 0.571782
C12   C     C_R   0.255007 0.771241 0.713850 0.570123
C13   C     C_R   0.705539 0.118618 0.294198 -0.328060
C14   C     C_R   0.294375 0.618551 0.705691 -0.327877
C15   C     C_R   0.710234 0.949285 0.255843 0.502690
C16   C     C_R   0.289633 0.449196 0.743991 0.498958
C17   C     C_1   0.838015 0.078422 0.157660 0.110995
C18   C     C_1   0.161941 0.578440 0.842285 0.111306
C19   C     C_1   0.660942 0.134790 0.341131 0.091512
C20   C     C_1   0.339004 0.634762 0.658799 0.086012
C21   C     C_1   0.623563 0.145784 0.379735 -0.251020
C22   C     C_1   0.376409 0.645776 0.620228 -0.253317
C23   C     C_1   0.876063 0.070923 0.119818 -0.266358
C24   C     C_1   0.123913 0.570942 0.880153 -0.265390
C25   C     C_R   0.630336 0.100903 0.805648 0.273902
C26   C     C_R   0.365142 0.718813 0.195951 0.285340
H3    H     H_    0.715732 0.108977 0.921532 0.167790
H4    H     H_    0.281498 0.679856 0.079540 0.169621
C27   C     C_R   0.615186 0.144501 0.679128 -0.505011
C28   C     C_R   0.384452 0.649782 0.320968 -0.531945
C29   C     C_R   0.910429 0.044298 0.759861 0.456441
C30   C     C_R   0.088239 0.568712 0.240235 0.525830
C31   C     C_R   0.872183 0.013300 0.695988 -0.343164
C32   C     C_R   0.124139 0.607955 0.304922 -0.482817
C33   C     C_R   0.809406 0.010637 0.691344 0.581044
C34   C     C_R   0.186414 0.644855 0.310597 0.586668
C35   C     C_R   0.782517 0.067725 0.749659 -0.026131
C36   C     C_R   0.215354 0.622260 0.251294 0.071743
C37   C     C_R   0.821310 0.080429 0.816023 -0.035025
C38   C     C_R   0.177595 0.603308 0.184493 -0.074732
C39   C     C_R   0.718490 0.100586 0.745442 -0.001822
C40   C     C_R   0.280064 0.635054 0.255147 0.020882
C41   C     C_R   0.693751 0.097619 0.808150 -0.161705
C42   C     C_R   0.303229 0.674991 0.192980 -0.195238
C43   C     C_R   0.732922 0.099302 0.872805 -0.029001
C44   C     C_R   0.264560 0.662944 0.128177 -0.016117
C45   C     C_R   0.795311 0.098242 0.876533 -0.137172
C46   C     C_R   0.203634 0.620329 0.123971 -0.133572
C47   C     C_R   0.679169 0.147539 0.681981 0.424590
C48   C     C_R   0.322390 0.599462 0.317446 0.519176
C49   C     C_R   0.591143 0.118468 0.741493 0.417280
C50   C     C_R   0.405254 0.711408 0.259710 0.420300
C51   C     C_R   0.885301 0.068694 0.820750 -0.280588
C52   C     C_R   0.114182 0.574346 0.179412 -0.281554
H5    H     H_    0.891420 0.977171 0.650105 0.172689
H6    H     H_    0.102830 0.618688 0.350891 0.151842
H7    H     H_    0.823072 0.106178 0.927783 0.084263
H8    H     H_    0.176587 0.607714 0.072448 0.087182
O11   O     O_R   0.051730 0.724670 0.084120 -0.591023
O12   O     O_R   0.948270 0.224670 0.915880 -0.588392
O13   O     O_R   0.063080 0.393540 0.944820 -0.585665
O14   O     O_R   0.936920 0.893540 0.055180 -0.586858
C53   C     C_R   0.078194 0.562066 0.924974 0.960947
C54   C     C_R   0.921801 0.062061 0.075021 0.960057
O15   O     O_R   0.058800 0.395030 0.085390 -0.586910
O16   O     O_R   0.941200 0.895030 0.914610 -0.591126
O17   O     O_R   0.943980 0.223310 0.057440 -0.577562
O18   O     O_R   0.056020 0.723310 0.942560 -0.577549
C55   C     C_R   0.072905 0.563764 0.111295 1.037076
C56   C     C_R   0.926996 0.063432 0.888731 1.041197
O19   O     O_3   0.962360 0.556290 0.990650 -0.281056
O20   O     O_3   0.037640 0.056290 0.009350 -0.279706
V3    V     V_3+5 0.006980 0.281990 0.001730 1.214795
V4    V     V_3+5 0.993020 0.781990 0.998270 1.211453
O21   O     O_3   0.673550 0.794066 0.260057 -0.641183
H9    H     H_    0.644965 0.818324 0.292631 0.329657
O22   O     O_3   0.326264 0.293932 0.739715 -0.639223
H10   H     H_    0.354741 0.317990 0.707000 0.328916
O23   O     O_3   0.777150 0.929445 0.632000 -0.690211
H11   H     H_    0.741315 0.865605 0.645030 0.321267
O24   O     O_3   0.217522 0.724371 0.371166 -0.708572
H12   H     H_    0.190584 0.733049 0.406688 0.325475
O25   O     O_3   0.755770 0.764433 0.175957 -0.667920
H13   H     H_    0.787879 0.768273 0.146745 0.318230
O26   O     O_3   0.244066 0.264353 0.823841 -0.666303
H14   H     H_    0.211949 0.268178 0.853042 0.318814
O27   O     O_3   0.744185 0.441186 0.320871 -0.688551
H15   H     H_    0.712508 0.440327 0.350666 0.336822
O28   O     O_3   0.255787 0.941115 0.679082 -0.692875
H16   H     H_    0.287413 0.940168 0.649220 0.336077
O29   O     O_3   0.529558 0.110145 0.742731 -0.666359
H17   H     H_    0.505908 0.138612 0.696256 0.314958
O30   O     O_3   0.464626 0.765152 0.259333 -0.669487
H18   H     H_    0.490900 0.726697 0.303137 0.316060
N1    N     N_R   0.604787 0.080223 0.868378 0.265110
O31   O     O_R   0.617337 0.932071 0.907643 -0.339297
O32   O     O_R   0.564018 0.198311 0.882297 -0.258950
N2    N     N_R   0.387752 0.777470 0.134285 0.265500
O33   O     O_R   0.364283 0.923056 0.098953 -0.351353
O34   O     O_R   0.435801 0.698675 0.117682 -0.256274
O35   O     O_3   0.704720 0.208774 0.625750 -0.707751
H19   H     H_    0.673246 0.253216 0.587377 0.315789
O36   O     O_3   0.302818 0.500160 0.370887 -0.705427
H20   H     H_    0.336672 0.474314 0.409238 0.318356
O37   O     O_3   0.972655 0.038518 0.764891 -0.749795
H21   H     H_    0.982979 0.019570 0.717656 0.324081
O38   O     O_3   0.026786 0.536325 0.234612 -0.754904
H22   H     H_    0.015617 0.537276 0.281925 0.325949

loop_
_geom_bond_atom_site_label_1
_geom_bond_atom_site_label_2
_geom_bond_distance
_ccdc_geom_bond_type
O23   H11   0.991189 S    
C13   C15   1.426337 A    
C5    C15   1.412310 A    
C28   C50   1.417406 A    
O24   H12   0.991802 S    
O1    C3    1.314209 A    
C50   O30   1.385592 S    
O16   C56   1.314460 A    
O2    C4    1.314158 A    
C2    O7    1.305970 A    
C15   O21   1.384791 S    
O25   H13   0.988611 S    
C27   C47   1.426221 A    
C26   N2    1.437669 S    
C13   C19   1.465718 S    
O5    C3    1.317567 A    
O27   H15   0.988239 S    
C3    C22   1.452598 S    
C7    C9    1.399709 A    
O14   C54   1.317662 A    
N1    O32   1.301201 A    
O12   C56   1.314800 A    
O20   V4    2.181740 S    
C34   O24   1.382585 S    
C41   C43   1.406037 A    
C38   C52   1.423209 A    
C42   C44   1.405514 A    
O35   H19   0.987957 S    
C25   C41   1.414422 A    
C44   C46   1.387733 A    
C29   C31   1.401486 A    
C31   H5    1.083464 S    
C5    C7    1.419274 A    
C37   C45   1.401858 A    
C33   C35   1.427491 A    
C39   C47   1.428924 A    
C29   C51   1.402794 A    
C34   C36   1.422129 A    
O30   H18   0.988263 S    
C40   C48   1.429001 A    
C30   O38   1.382688 S    
C6    C16   1.412292 A    
C18   C24   1.216624 T    
O12   V3    1.984634 S    
O14   V4    1.973446 S    
C35   C39   1.442868 A    
C27   C49   1.417519 A    
C47   O35   1.385036 S    
C45   H7    1.082867 S    
C32   C34   1.406321 A    
C7    C17   1.461862 S    
C51   C56   1.484261 S    
O6    V2    1.973481 S    
C26   C50   1.403596 A    
O15   V3    1.999076 S    
C25   C49   1.404178 A    
C11   O27   1.382929 S    
C49   O29   1.386027 S    
N2    O33   1.301342 A    
C36   C38   1.431068 A    
O19   V3    2.182261 S    
C30   C32   1.401025 A    
C43   C45   1.388300 A    
C26   C42   1.413935 A    
H3    C43   1.081788 S    
C31   C33   1.395107 A    
H4    C44   1.081847 S    
O22   H10   0.987923 S    
O20   V3    1.739089 S    
O5    V1    1.973462 S    
C38   C46   1.402092 A    
C28   C48   1.426713 A    
C48   O36   1.384926 S    
C17   C23   1.216624 T    
C35   C37   1.431188 A    
O4    V2    1.999423 S    
O11   V4    1.984934 S    
C30   C52   1.401581 A    
C12   O28   1.382925 S    
O26   H14   0.988609 S    
O6    C4    1.317545 A    
C46   H8    1.082854 S    
O1    V2    1.962288 S    
C4    C21   1.452586 S    
O2    V1    1.962257 S    
O13   C53   1.317715 A    
O38   H22   0.991721 S    
O17   V3    1.962082 S    
N2    O34   1.301216 A    
O4    C2    1.309151 A    
C1    C28   1.486247 S    
C8    C10   1.399718 A    
C2    C27   1.485624 S    
C9    H1    1.084419 S    
C10   H2    1.084418 S    
C6    O26   1.384176 S    
O3    V1    1.998879 S    
C8    C18   1.461858 S    
O19   V4    1.738719 S    
O13   V3    1.973426 S    
C9    C11   1.402994 A    
C52   C55   1.483233 S    
C32   H6    1.083221 S    
C16   O22   1.384789 S    
O3    C1    1.307607 A    
O37   H21   0.991789 S    
C24   C53   1.452782 S    
C11   C13   1.422845 A    
O29   H17   0.987721 S    
C12   C14   1.422844 A    
C39   C41   1.420028 A    
O7    V1    1.988962 S    
C1    O8    1.308118 A    
O16   V4    1.999622 S    
O8    V2    1.989275 S    
O36   H20   0.987152 S    
O15   C55   1.316017 A    
C54   O17   1.314943 A    
C29   O37   1.382505 S    
C53   O18   1.314958 A    
O18   V4    1.962116 S    
C14   C16   1.426342 A    
C19   C21   1.216759 T    
C20   C22   1.216758 T    
C40   C42   1.420133 A    
C6    C8    1.419272 A    
C37   C51   1.424422 A    
C14   C20   1.465712 S    
C25   N1    1.437569 S    
C10   C12   1.403001 A    
O9    V2    1.738996 S    
O28   H16   0.988242 S    
O10   V1    1.739366 S    
C33   O23   1.379091 S    
O21   H9    0.987934 S    
N1    O31   1.301301 A    
C23   C54   1.452783 S    
C5    O25   1.384169 S    
O11   C55   1.312691 A    
C36   C40   1.442791 A    
