data_mof_unit_45489.cif
_audit_creation_date              2013-03-05T15:54:00-0500
_audit_creation_method            fapswitch 2.2
_symmetry_space_group_name_H-M    P1
_symmetry_Int_Tables_number       1
_space_group_crystal_system       triclinic
_cell_length_a                    15.764224
_cell_length_b                    10.683829
_cell_length_c                    9.979039
_cell_angle_alpha                 91.020222
_cell_angle_beta                  91.748638
_cell_angle_gamma                 93.079576
_cell_volume                      1677.16541341

loop_
_atom_site_label
_atom_site_type_symbol
_atom_site_description
_atom_site_fract_x
_atom_site_fract_y
_atom_site_fract_z
_atom_type_partial_charge
O1    O     O_R   0.500000 0.316780 0.614690 -0.563862
O2    O     O_R   0.499990 0.316750 0.385360 -0.643989
C1    C     C_R   0.509041 0.261590 0.499200 0.936889
O3    O     O_R   0.377150 0.500020 0.614720 -0.607147
O4    O     O_R   0.377140 0.499990 0.385380 -0.638865
C2    C     C_R   0.338597 0.500761 0.498202 0.918946
Zn1   Zn    Zn3+2 0.500010 0.500020 0.653130 1.062668
Zn2   Zn    Zn3+2 0.499990 0.499980 0.346870 1.050537
O5    O     O_R   0.500010 0.683250 0.614640 -0.626508
O6    O     O_R   0.500000 0.683220 0.385310 -0.584907
O7    O     O_R   0.622860 0.500010 0.614620 -0.562585
O8    O     O_R   0.622850 0.499980 0.385280 -0.578536
C3    C     C_R   0.494334 0.739764 0.501927 0.888442
C4    C     C_R   0.661360 0.503839 0.501823 0.921565
C5    C     C_3   0.050509 0.434430 0.629125 0.326781
C6    C     C_3   0.040222 0.447586 0.368390 0.383652
C7    C     C_3   0.945253 0.479355 0.365702 0.004461
H1    H     H_    0.940513 0.561955 0.301035 0.210498
C8    C     C_1   0.750136 0.511649 0.506473 0.018981
C9    C     C_3   0.083483 0.510706 0.502340 -0.309096
C10   C     C_3   0.949463 0.424127 0.619991 0.366651
C11   C     C_3   0.917294 0.519291 0.510675 -0.326016
C12   C     C_3   0.956829 0.657808 0.540884 0.280873
C13   C     C_3   0.057862 0.655022 0.516673 0.319201
C14   C     C_1   0.825447 0.517169 0.509638 0.232068
C15   C     C_1   0.174713 0.505723 0.496315 0.199769
C16   C     C_1   0.249813 0.502845 0.494863 -0.010935
H2    H     H_    0.475124 0.107938 0.288861 0.204740
C17   C     C_R   0.592817 0.121784 0.723380 0.182036
C18   C     C_R   0.586280 0.072512 0.852483 0.240648
C19   C     C_R   0.533258 0.964141 0.871704 0.262986
C20   C     C_R   0.497107 0.899405 0.758375 -0.182960
H3    H     H_    0.456335 0.816987 0.774435 0.221517
C21   C     C_R   0.509652 0.944279 0.627634 0.030127
C22   C     C_R   0.543412 0.066361 0.614835 0.024594
C23   C     C_R   0.521371 0.129096 0.496293 -0.064474
C24   C     C_R   0.491179 0.061980 0.381490 -0.081560
H4    H     H_    0.458767 0.883055 0.294961 0.230955
C25   C     C_R   0.478550 0.934378 0.386110 -0.082382
C26   C     C_R   0.489135 0.874059 0.507783 -0.103402
C27   C     C_R   0.374917 0.361903 0.136874 -0.181817
H5    H     H_    0.384112 0.339187 0.239471 0.232084
C28   C     C_R   0.299644 0.317871 0.072208 0.249822
C29   C     C_R   0.291839 0.330705 0.934338 -0.196845
H6    H     H_    0.236866 0.285692 0.882242 0.251598
C30   C     C_R   0.363591 0.363721 0.860686 0.311246
C31   C     C_R   0.435222 0.431931 0.925498 0.000072
C32   C     C_R   0.437282 0.432090 0.069630 0.054992
N1    N     N_R   0.499210 0.498800 0.142780 -0.146833
C33   C     C_R   0.558883 0.569450 0.075181 0.343734
C34   C     C_R   0.559304 0.568496 0.932374 0.283434
N2    N     N_R   0.499180 0.498720 0.857170 -0.160517
Br1   Br    Br    0.902479 0.253245 0.575671 -0.172551
Br2   Br    Br    0.097443 0.506671 0.799906 -0.241048
Br3   Br    Br    0.896723 0.446080 0.795152 -0.140728
Br4   Br    Br    0.900716 0.777395 0.420048 -0.209362
Br5   Br    Br    0.681413 0.247044 0.693668 -0.321812
N3    N     N_R   0.628852 0.137904 0.963759 0.264298
O9    O     O_R   0.710180 0.129425 0.984815 -0.206752
O10   O     O_R   0.586608 0.208646 0.042266 -0.359479
N4    N     N_R   0.518249 0.915831 0.003383 0.218512
O11   O     O_R   0.570137 0.945556 0.104125 -0.313612
O12   O     O_R   0.454455 0.836245 0.022099 -0.407159
Br6   Br    Br    0.641614 0.676802 0.173123 -0.236956
Br7   Br    Br    0.101529 0.271527 0.654981 -0.194450
N5    N     N_R   0.235112 0.249176 0.144198 0.252247
O13   O     O_R   0.247023 0.225246 0.270638 -0.330839
O14   O     O_R   0.166049 0.203715 0.082267 -0.234713
N6    N     N_R   0.373483 0.277539 0.752850 0.240656
O15   O     O_R   0.412728 0.177210 0.782018 -0.406997
O16   O     O_R   0.315742 0.267980 0.656654 -0.354425
Br8   Br    Br    0.643408 0.671598 0.844498 -0.279248
Br9   Br    Br    0.091580 0.497642 0.199113 -0.234622
Br10  Br    Br    0.054061 0.267091 0.346236 -0.100915
Br11  Br    Br    0.867553 0.360348 0.261762 -0.178886
Br12  Br    Br    0.133635 0.759352 0.639898 -0.205442
Br13  Br    Br    0.092655 0.752790 0.359986 -0.223117
N7    N     N_R   0.932530 0.700712 0.676368 0.266031
O17   O     O_R   0.985903 0.719438 0.777154 -0.213791
O18   O     O_R   0.853429 0.722746 0.696867 -0.268174

loop_
_geom_bond_atom_site_label_1
_geom_bond_atom_site_label_2
_geom_bond_distance
_ccdc_geom_bond_type
N5    O14   1.301769 A    
C33   Br6   1.921764 S    
C27   H5    1.063810 S    
C19   N4    1.441891 S    
C22   C23   1.413313 A    
C12   Br4   1.995014 S    
Zn1   O7    1.985869 S    
C15   C16   1.186471 T    
C6    Br10  1.961651 S    
C1    C23   1.439039 S    
C23   C24   1.397834 A    
Zn1   N2    2.036855 S    
O4    C2    1.295673 A    
O7    C4    1.295254 A    
N7    O18   1.302902 A    
N3    O10   1.301261 A    
C5    Br7   1.973905 S    
N6    O16   1.301405 A    
C21   C22   1.391497 A    
N4    O12   1.301711 A    
O5    C3    1.288998 A    
C30   N6    1.421440 S    
C9    C13   1.619713 S    
C6    C7    1.552325 S    
C3    C26   1.441761 S    
C11   C14   1.446569 S    
C12   C13   1.619970 S    
C2    C16   1.400362 S    
C6    C9    1.602948 S    
N5    O13   1.301856 A    
C10   C11   1.594368 S    
C27   C28   1.388615 A    
N6    O15   1.299152 A    
O3    Zn1   1.962850 S    
C29   C30   1.400401 A    
C33   C34   1.425147 A    
C5    C9    1.601983 S    
C34   N2    1.370418 A    
C5    Br2   1.965288 S    
H4    C25   1.082507 S    
O3    C2    1.295804 A    
C25   C26   1.394426 A    
C10   Br3   1.973973 S    
N7    O17   1.297152 A    
C13   Br12  1.974798 S    
N3    O9    1.301079 A    
C6    Br9   1.965724 S    
O1    C1    1.300405 A    
C20   C21   1.413834 A    
C28   C29   1.387442 A    
C17   C18   1.404967 A    
C31   C32   1.437639 A    
Zn2   O8    1.962848 S    
C7    H1    1.106900 S    
C32   N1    1.362751 A    
C17   Br5   1.915221 S    
C21   C26   1.419942 A    
C34   Br8   1.920570 S    
C29   H6    1.082304 S    
Zn1   O5    2.001622 S    
C30   C31   1.440375 A    
O1    Zn1   1.988208 S    
C4    C8    1.396793 S    
C19   C20   1.404485 A    
O2    Zn2   2.001623 S    
O8    C4    1.294332 A    
O6    C3    1.309307 A    
O4    Zn2   1.985869 S    
C31   N2    1.404508 A    
C17   C22   1.416543 A    
C7    C11   1.583153 S    
C20   H3    1.079193 S    
O2    C1    1.296600 A    
C24   C25   1.368907 A    
C10   Br1   1.970593 S    
C18   C19   1.410555 A    
C9    C15   1.445055 S    
H2    C24   1.083891 S    
C28   N5    1.439716 S    
C18   N3    1.431105 S    
C27   C32   1.399335 A    
C12   N7    1.487670 S    
N4    O11   1.300431 A    
C8    C14   1.184948 T    
C13   Br13  1.971196 S    
C5    C10   1.590511 S    
Zn2   O6    1.988209 S    
N1    C33   1.374871 A    
C7    Br11  1.975074 S    
C11   C12   1.594659 S    
Zn2   N1    2.036094 S    
