data_mof_unit_43684.cif
_audit_creation_date              2012-12-10T18:58:43-0500
_audit_creation_method            fapswitch 2.2
_symmetry_space_group_name_H-M    P1
_symmetry_Int_Tables_number       1
_space_group_crystal_system       triclinic
_cell_length_a                    12.988577
_cell_length_b                    10.807169
_cell_length_c                    9.559205
_cell_angle_alpha                 89.579325
_cell_angle_beta                  96.144268
_cell_angle_gamma                 90.431022
_cell_volume                      1334.04855657

loop_
_atom_site_label
_atom_site_type_symbol
_atom_type_description
_atom_site_fract_x
_atom_site_fract_y
_atom_site_fract_z
_atom_type_partial_charge
C1    C     C_R   0.500653 0.262584 0.500668 0.810836
C2    C     C_R   0.027982 0.520919 0.562853 0.174546
C3    C     C_R   0.972601 0.477216 0.437440 0.176332
C4    C     C_R   0.865352 0.467035 0.428479 -0.264449
C5    C     C_R   0.867765 0.547128 0.665255 -0.205863
C6    C     C_R   0.975169 0.555231 0.676423 -0.212177
C7    C     C_R   0.470303 0.061805 0.610542 0.129911
C8    C     C_R   0.509799 0.129906 0.504352 -0.127172
C9    C     C_R   0.567632 0.069517 0.410013 -0.250856
C10   C     C_R   0.574028 0.939746 0.410617 0.143634
C11   C     C_R   0.515955 0.871338 0.503456 -0.123749
C12   C     C_R   0.300630 0.499399 0.473721 0.800152
C13   C     C_R   0.472379 0.934884 0.608964 0.095981
C14   C     C_3   0.367477 0.923432 0.658420 -0.460694
C15   C     C_3   0.365098 0.063998 0.659986 -0.478293
C16   C     C_R   0.564365 0.577792 0.082266 0.246135
C17   C     C_R   0.430954 0.430457 0.064924 -0.077725
C18   C     C_R   0.431071 0.430265 0.916176 -0.079617
C19   C     C_R   0.563819 0.578360 0.934679 0.269532
C20   C     C_3   0.678837 0.579410 0.944410 -0.520910
C21   C     C_3   0.679815 0.576347 0.102382 -0.504765
C22   C     C_R   0.504976 0.737603 0.500278 0.808729
C23   C     C_R   0.699496 0.499687 0.526297 0.789444
C24   C     C_R   0.812421 0.503251 0.541325 -0.048844
C25   C     C_R   0.187952 0.495627 0.458685 -0.049890
C26   C     C_R   0.025305 0.444837 0.322905 -0.217462
C27   C     C_R   0.132689 0.454676 0.333230 -0.200020
C28   C     C_R   0.135312 0.529370 0.572783 -0.273853
Cu1   Cu    Cu3+1 0.499990 0.499980 0.640670 0.938251
Cu2   Cu    Cu3+1 0.500010 0.500020 0.359330 0.934898
H1    H     H_    0.823348 0.430421 0.333858 0.138610
H2    H     H_    0.370572 0.881164 0.765148 0.201283
H3    H     H_    0.305619 0.104324 0.580605 0.191928
H4    H     H_    0.366705 0.102785 0.767596 0.195649
H5    H     H_    0.376466 0.372162 0.113235 0.134520
H6    H     H_    0.376778 0.371647 0.853085 0.137063
H7    H     H_    0.710677 0.493484 0.903152 0.220284
H8    H     H_    0.709447 0.667561 0.904132 0.188592
H9    H     H_    0.710434 0.487889 0.148565 0.213248
H10   H     H_    0.713931 0.661071 0.153340 0.200677
H11   H     H_    0.828231 0.577601 0.752333 0.149955
H12   H     H_    0.983618 0.411786 0.225921 0.135240
H13   H     H_    0.016708 0.589523 0.772918 0.135223
H14   H     H_    0.172568 0.427903 0.244378 0.149356
H15   H     H_    0.177803 0.562238 0.669420 0.150392
H16   H     H_    0.607769 0.123580 0.336454 0.155361
H17   H     H_    0.309372 0.881794 0.578121 0.191606
N1    N     N_R   0.500660 0.500930 0.148010 -0.184313
N2    N     N_R   0.500660 0.500890 0.852110 -0.185622
O1    O     O_R   0.500000 0.319640 0.618810 -0.575432
O2    O     O_R   0.500010 0.319680 0.381230 -0.585044
O3    O     O_R   0.348990 0.499960 0.599490 -0.588716
O4    O     O_R   0.349000 0.500000 0.361910 -0.587270
O5    O     O_R   0.499990 0.680320 0.618770 -0.578072
O6    O     O_R   0.500000 0.680360 0.381190 -0.580628
O7    O     O_R   0.651000 0.500000 0.638090 -0.587667
O8    O     O_R   0.651010 0.500040 0.400510 -0.582236
C29   C     C_3   0.646206 0.880205 0.317024 -0.405145
C30   C     C_3   0.741301 0.827726 0.404892 -0.806597
H18   H     H_    0.718570 0.754742 0.477758 0.241331
H19   H     H_    0.795086 0.787391 0.335166 0.235044
H20   H     H_    0.782975 0.902474 0.467431 0.249144
H21   H     H_    0.605572 0.808067 0.250326 0.219149
H22   H     H_    0.673945 0.949294 0.242603 0.191047

loop_
_geom_bond_atom_site_label_1
_geom_bond_atom_site_label_2
_ccdc_geom_bond_type
C30   H18   S    
C23   C24   S    
C15   H4    S    
C16   C21   S    
Cu1   O7    S    
C25   C27   A    
C1    C8    S    
C20   H8    S    
C9    C10   A    
C19   N2    A    
C11   C22   S    
C12   O4    A    
C21   H9    S    
C17   N1    A    
C12   C25   S    
Cu2   O2    S    
Cu1   O5    S    
C2    C28   A    
C16   N1    A    
C7    C15   S    
C2    C3    A    
C22   O6    A    
C23   O7    A    
C22   O5    A    
C2    C6    A    
C13   C14   S    
C25   C28   A    
C20   H7    S    
C11   C13   A    
C26   C27   A    
C14   H17   S    
C5    C24   A    
Cu1   O1    S    
C16   C19   A    
Cu2   N1    S    
C12   O3    A    
C1    O1    A    
C17   C18   A    
C9    H16   S    
C6    H13   S    
C29   H22   S    
C5    C6    A    
C4    C24   A    
Cu2   O4    S    
C28   H15   S    
C30   H19   S    
C4    H1    S    
C7    C8    A    
C10   C11   A    
Cu1   Cu2   S    
C3    C4    A    
Cu2   O8    S    
C7    C13   A    
C20   C21   S    
C26   H12   S    
Cu2   O6    S    
C29   H21   S    
C23   O8    A    
C5    H11   S    
C14   C15   S    
C30   H20   S    
Cu1   N2    S    
C1    O2    A    
C17   H5    S    
C10   C29   S    
C29   C30   S    
C18   H6    S    
C27   H14   S    
C15   H3    S    
C3    C26   A    
C19   C20   S    
C18   N2    A    
C14   H2    S    
C8    C9    A    
Cu1   O3    S    
C21   H10   S    
