data_mof_unit_24476.cif
_audit_creation_date              2012-10-26T19:24:19-0400
_audit_creation_method            fapswitch 2.2
_symmetry_space_group_name_H-M    P1
_symmetry_Int_Tables_number       1
_space_group_crystal_system       triclinic
_cell_length_a                    27.790273
_cell_length_b                    10.768659
_cell_length_c                    9.603059
_cell_angle_alpha                 90.118575
_cell_angle_beta                  90.129859
_cell_angle_gamma                 92.556929
_cell_volume                      2870.97420431

loop_
_atom_site_label
_atom_site_type_symbol
_atom_type_description
_atom_site_fract_x
_atom_site_fract_y
_atom_site_fract_z
_atom_type_partial_charge
C1    C     C_R   0.498912 0.262662 0.499866 0.596843
C2    C     C_R   0.972774 0.387637 0.490112 -0.013085
C3    C     C_R   0.976504 0.616278 0.491815 0.049394
C4    C     C_R   0.407531 0.500004 0.499852 0.528039
C5    C     C_R   0.949280 0.501433 0.491565 0.010387
C6    C     C_R   0.944571 0.276025 0.476362 -0.127754
C7    C     C_R   0.894061 0.274627 0.473227 0.263460
C8    C     C_R   0.870459 0.387549 0.485012 0.060724
C9    C     C_R   0.898169 0.500681 0.494668 -0.073667
C10   C     C_R   0.874752 0.613578 0.508449 0.024925
C11   C     C_R   0.824329 0.612336 0.510730 0.435952
C12   C     C_R   0.278561 0.491976 0.624328 -0.041854
C13   C     C_R   0.819692 0.391569 0.487033 0.449286
C14   C     C_R   0.721785 0.510068 0.627937 0.307204
C15   C     C_R   0.671170 0.509250 0.626998 -0.139054
C16   C     C_R   0.498868 0.737032 0.500103 0.523642
C17   C     C_R   0.670966 0.496976 0.374694 -0.147739
C18   C     C_R   0.721082 0.497488 0.375128 -0.107475
C19   C     C_R   0.746519 0.503821 0.501009 0.278718
C20   C     C_R   0.023709 0.388864 0.502433 0.024646
C21   C     C_R   0.050845 0.503182 0.489549 -0.003994
C22   C     C_R   0.027361 0.616871 0.473770 0.057338
C23   C     C_R   0.253668 0.504106 0.498549 0.243165
C24   C     C_R   0.048539 0.279496 0.528895 -0.132043
C25   C     C_R   0.106088 0.723616 0.440109 -0.102269
C26   C     C_R   0.951987 0.726170 0.516736 -0.089156
C27   C     C_R   0.902069 0.725005 0.522887 -0.108996
C28   C     C_R   0.592488 0.500725 0.500178 0.561285
C29   C     C_R   0.055605 0.725749 0.437615 0.222351
C30   C     C_R   0.419458 0.120764 0.628205 -0.145416
C31   C     C_R   0.381744 0.052168 0.690938 -0.105660
C32   C     C_R   0.381398 0.921939 0.691752 0.266094
C33   C     C_R   0.419265 0.861784 0.629311 -0.024631
C34   C     C_R   0.101893 0.503419 0.491692 -0.041299
C35   C     C_R   0.458149 0.929850 0.566632 -0.032488
C36   C     C_R   0.458304 0.060909 0.566029 -0.038394
C37   C     C_R   0.496599 0.128347 0.499330 0.049745
C38   C     C_R   0.533214 0.067594 0.429920 0.226575
C39   C     C_R   0.532531 0.938362 0.430685 -0.135516
C40   C     C_R   0.176129 0.394998 0.518846 0.399123
C41   C     C_R   0.496175 0.870405 0.500218 -0.022773
C42   C     C_R   0.564160 0.665002 0.144652 -0.088697
C43   C     C_R   0.595552 0.745475 0.072834 -0.166796
C44   C     C_R   0.595551 0.745446 0.929343 -0.162335
C45   C     C_R   0.125596 0.392423 0.515581 0.034698
C46   C     C_R   0.564123 0.665031 0.856777 -0.087262
C47   C     C_R   0.531513 0.581120 0.925578 0.159764
C48   C     C_R   0.531519 0.581071 0.075130 0.161833
C49   C     C_R   0.469981 0.422919 0.073486 0.008956
C50   C     C_R   0.469996 0.422938 0.925618 0.007125
C51   C     C_R   0.179883 0.612725 0.472906 0.406326
C52   C     C_R   0.279165 0.515072 0.373344 -0.054630
C53   C     C_R   0.329295 0.513455 0.373619 -0.137339
C54   C     C_R   0.328730 0.490901 0.625012 -0.126285
C55   C     C_R   0.098499 0.281551 0.535654 -0.107022
C56   C     C_R   0.129361 0.614394 0.469611 -0.009418
C57   C     C_R   0.354563 0.501339 0.499515 0.004227
C58   C     C_R   0.645529 0.502315 0.500609 -0.019471
Cu1   Cu    Cu3+1 0.500000 0.499990 0.640660 0.932837
Cu2   Cu    Cu3+1 0.500000 0.500010 0.359340 0.962802
H1    H     H_    0.347206 0.481381 0.723571 0.133520
H2    H     H_    0.417278 0.761311 0.628663 0.163707
H3    H     H_    0.561052 0.890310 0.379339 0.094786
H4    H     H_    0.567184 0.672995 0.254403 0.175007
H5    H     H_    0.620056 0.808453 0.129288 0.132470
H6    H     H_    0.620076 0.808348 0.873490 0.142109
H7    H     H_    0.567078 0.672978 0.747045 0.182110
H8    H     H_    0.445392 0.359714 0.870108 0.111301
H9    H     H_    0.115818 0.195318 0.556418 0.166802
H10   H     H_    0.651975 0.513899 0.724793 0.120349
H11   H     H_    0.961132 0.188166 0.463192 0.102321
H12   H     H_    0.260042 0.524189 0.275782 0.131360
H13   H     H_    0.030206 0.191109 0.549495 0.117992
H14   H     H_    0.348198 0.521945 0.275372 0.136222
H15   H     H_    0.970710 0.813902 0.538713 0.180660
H16   H     H_    0.058599 0.896190 0.366828 0.326123
H17   H     H_    0.592498 0.079694 0.321571 0.327426
H18   H     H_    0.320465 0.906889 0.790105 0.334390
H19   H     H_    0.445364 0.359702 0.128312 0.117580
H20   H     H_    0.725199 0.520077 0.829846 0.320648
H21   H     H_    0.889468 0.093621 0.453630 0.322064
H22   H     H_    0.127194 0.807679 0.415389 0.158472
H23   H     H_    0.652189 0.491897 0.275750 0.151923
H24   H     H_    0.884976 0.812181 0.540219 0.172256
H25   H     H_    0.740308 0.492759 0.277433 0.139318
H26   H     H_    0.417260 0.220743 0.627135 0.128323
H27   H     H_    0.352520 0.100814 0.737538 0.110519
H28   H     H_    0.258976 0.483508 0.721443 0.131411
N1    N     N_R   0.202096 0.504115 0.497586 -0.397696
N2    N     N_R   0.798076 0.502615 0.499503 -0.389151
N3    N     N_R   0.500460 0.501210 0.147910 -0.242319
N4    N     N_R   0.500480 0.501290 0.852040 -0.242497
O1    O     O_R   0.500000 0.319640 0.618810 -0.507906
O2    O     O_R   0.569730 0.499970 0.618800 -0.518449
O3    O     O_R   0.569740 0.499990 0.381230 -0.508196
O4    O     O_2   0.199176 0.289205 0.541713 -0.495028
O5    O     O_3   0.033815 0.829812 0.387927 -0.721162
O6    O     O_3   0.569813 0.136726 0.365070 -0.672036
O7    O     O_3   0.344392 0.850800 0.751041 -0.685983
O8    O     O_3   0.747855 0.516059 0.750485 -0.653673
O9    O     O_3   0.867500 0.163531 0.459264 -0.613644
O10   O     O_2   0.791908 0.285907 0.477485 -0.388367
O11   O     O_2   0.206631 0.718764 0.452219 -0.478444
O12   O     O_2   0.801591 0.719942 0.523499 -0.457213
O13   O     O_R   0.500000 0.319660 0.381240 -0.457454
O14   O     O_R   0.430260 0.500010 0.618770 -0.517647
O15   O     O_R   0.430270 0.500030 0.381200 -0.507287
O16   O     O_R   0.500000 0.680340 0.618760 -0.526369
O17   O     O_R   0.500000 0.680360 0.381190 -0.515594

loop_
_geom_bond_atom_site_label_1
_geom_bond_atom_site_label_2
_ccdc_geom_bond_type
C10   C27   A    
C34   C56   A    
C8    C13   A    
C22   C29   A    
C13   N2    A    
C47   N4    A    
C44   H6    S    
C35   C36   A    
C25   C56   A    
C38   O6    S    
C7    C8    A    
C39   C41   A    
H21   O9    S    
C24   C55   A    
C12   C23   A    
C26   C27   A    
C28   O3    A    
C27   H24   S    
C40   O4    S    
C18   C19   A    
C38   C39   A    
C31   C32   A    
C24   H13   S    
C51   O11   S    
C28   O2    A    
C51   C56   A    
Cu2   O17   S    
C20   C24   A    
C8    C9    A    
C48   N3    A    
C4    C57   S    
C23   N1    S    
C11   O12   S    
Cu1   O2    S    
C40   N1    A    
C30   H26   S    
C9    C10   A    
C1    C37   S    
C17   C58   A    
Cu1   Cu2   S    
C21   C22   A    
H20   O8    S    
C2    C6    A    
C49   N3    A    
C44   C46   A    
C16   O17   A    
C26   H15   S    
C53   H14   S    
C25   C29   A    
C6    H11   S    
C4    O15   A    
Cu1   O14   S    
C31   H27   S    
C12   H28   S    
C2    C20   A    
C18   H25   S    
C53   C57   A    
C33   H2    S    
C21   C34   A    
H16   O5    S    
C4    O14   A    
C49   H19   S    
C17   H23   S    
C43   C44   A    
C5    C9    A    
C37   C38   A    
C52   H12   S    
C47   C48   A    
C43   H5    S    
C17   C18   A    
H17   O6    S    
C34   C45   A    
C42   C48   A    
C55   H9    S    
Cu2   O15   S    
C29   O5    S    
C50   N4    A    
C25   H22   S    
C15   C58   A    
C2    C5    A    
C42   C43   A    
C42   H4    S    
C52   C53   A    
Cu2   N3    S    
C15   H10   S    
C46   C47   A    
C36   C37   A    
C14   C19   A    
C3    C26   A    
C3    C5    A    
C14   O8    S    
C6    C7    A    
C54   H1    S    
C28   C58   S    
C39   H3    S    
Cu1   O16   S    
C32   O7    S    
C30   C36   A    
C40   C45   A    
C32   C33   A    
C46   H7    S    
C19   N2    S    
C51   N1    A    
C11   N2    A    
C23   C52   A    
C30   C31   A    
C33   C35   A    
Cu1   N4    S    
C35   C41   A    
C10   C11   A    
C16   O16   A    
Cu2   O3    S    
C20   C21   A    
C45   C55   A    
C1    O1    A    
C49   C50   A    
C7    O9    S    
H18   O7    S    
C14   C15   A    
C3    C22   A    
Cu1   O1    S    
C13   O10   S    
C50   H8    S    
C16   C41   S    
C12   C54   A    
Cu2   O13   S    
C1    O13   A    
C54   C57   A    
