data_mof_unit_43644.cif
_audit_creation_date              2012-12-10T18:22:20-0500
_audit_creation_method            fapswitch 2.2
_symmetry_space_group_name_H-M    P1
_symmetry_Int_Tables_number       1
_space_group_crystal_system       triclinic
_cell_length_a                    14.995887
_cell_length_b                    14.009651
_cell_length_c                    15.731164
_cell_angle_alpha                 89.933745
_cell_angle_beta                  90.169287
_cell_angle_gamma                 89.89634
_cell_volume                      3304.8932411

loop_
_atom_site_label
_atom_site_type_symbol
_atom_type_description
_atom_site_fract_x
_atom_site_fract_y
_atom_site_fract_z
_atom_type_partial_charge
C1    C     C_R   0.326505 0.500089 0.499868 0.885470
C2    C     C_R   0.907097 0.585727 0.516051 0.111453
C3    C     C_R   0.953569 0.501544 0.494496 0.050776
C4    C     C_R   0.499924 0.500062 0.338125 0.918634
C5    C     C_R   0.907244 0.417402 0.472759 0.105804
C6    C     C_R   0.953430 0.669137 0.536999 -0.170681
C7    C     C_R   0.046084 0.669038 0.537415 -0.211910
C8    C     C_R   0.092633 0.585503 0.516972 0.115021
C9    C     C_R   0.046350 0.501366 0.495159 0.065920
C10   C     C_R   0.092842 0.416892 0.474541 0.118491
C11   C     C_R   0.046473 0.333913 0.452284 -0.229306
C12   C     C_3   0.593861 0.510432 0.951143 -0.398083
C13   C     C_R   0.953808 0.334247 0.451145 -0.163645
C14   C     C_R   0.184868 0.584438 0.518289 -0.254078
C15   C     C_R   0.230681 0.500401 0.498517 -0.071969
C16   C     C_R   0.673496 0.500062 0.499222 0.904927
C17   C     C_R   0.185094 0.416955 0.476680 -0.258023
C18   C     C_R   0.567699 0.797149 0.460470 0.057748
C19   C     C_R   0.569841 0.202491 0.463976 0.067708
C20   C     C_R   0.433297 0.798745 0.539468 -0.064128
C21   C     C_R   0.432688 0.201355 0.538522 -0.075086
C22   C     C_R   0.432725 0.899154 0.540297 0.067930
C23   C     C_3   0.593541 0.510548 0.049130 -0.401236
C24   C     C_R   0.432255 0.100882 0.539609 0.064713
C25   C     C_R   0.502540 0.949344 0.500118 0.029672
C26   C     C_R   0.502777 0.050454 0.500627 0.026766
C27   C     C_R   0.570656 0.898365 0.458116 -0.175002
C28   C     C_R   0.574361 0.101235 0.464528 -0.176437
C29   C     C_R   0.363758 0.950108 0.579975 -0.215655
C30   C     C_R   0.363295 0.050093 0.579271 -0.217273
C31   C     C_R   0.647616 0.049875 0.430026 0.335172
C32   C     C_R   0.640060 0.949527 0.416910 0.280580
C33   C     C_R   0.499973 0.499940 0.661735 0.910033
C34   C     C_1   0.498335 0.499662 0.825484 -0.100777
C35   C     C_3   0.440018 0.584960 0.049226 -0.425408
C36   C     C_3   0.457180 0.404853 0.049785 -0.431827
C37   C     C_3   0.455490 0.404474 0.950960 -0.147377
C38   C     C_3   0.438032 0.584146 0.950394 -0.151823
C39   C     C_1   0.499214 0.499773 0.750329 -0.169910
C40   C     C_3   0.497014 0.500181 0.082450 0.302109
C41   C     C_3   0.497329 0.499752 0.916976 0.261107
C42   C     C_R   0.494336 0.313613 0.911373 0.155284
C43   C     C_R   0.448185 0.269253 0.843941 -0.153195
C44   C     C_R   0.482710 0.187727 0.804724 -0.115071
C45   C     C_1   0.497899 0.500333 0.173893 -0.081421
C46   C     C_R   0.563505 0.148943 0.832410 -0.101141
C47   C     C_R   0.609881 0.191585 0.899366 -0.131077
C48   C     C_R   0.575839 0.273348 0.938635 -0.149747
C49   C     C_R   0.458260 0.681159 0.909738 0.153989
C50   C     C_R   0.404476 0.713466 0.841842 -0.154919
C51   C     C_R   0.422443 0.800141 0.801335 -0.114908
C52   C     C_R   0.493940 0.856209 0.828187 -0.100919
C53   C     C_R   0.547648 0.825647 0.895600 -0.134042
C54   C     C_R   0.530246 0.738754 0.936142 -0.144337
C55   C     C_1   0.498901 0.500237 0.249221 -0.156213
C56   C     C_R   0.814978 0.417883 0.473614 -0.208595
C57   C     C_R   0.769268 0.500725 0.496825 -0.097304
C58   C     C_R   0.814888 0.584679 0.517051 -0.214637
H1    H     H_    0.367859 0.566927 0.932585 0.117105
H2    H     H_    0.380622 0.759147 0.570441 0.124204
H3    H     H_    0.379266 0.241039 0.568345 0.132249
H4    H     H_    0.309785 0.912584 0.611067 0.133098
H5    H     H_    0.309060 0.087746 0.609947 0.139322
H6    H     H_    0.370681 0.578581 0.073767 0.165214
H7    H     H_    0.387917 0.396686 0.074095 0.164695
H8    H     H_    0.495624 0.343723 0.076196 0.178882
H9    H     H_    0.466381 0.653157 0.074956 0.184861
H10   H     H_    0.623541 0.578096 0.072860 0.185692
H11   H     H_    0.635775 0.450924 0.073220 0.176694
H12   H     H_    0.383574 0.405853 0.932778 0.115819
H13   H     H_    0.624899 0.576923 0.926986 0.178508
H14   H     H_    0.637148 0.452095 0.927272 0.179370
H15   H     H_    0.778717 0.354151 0.455879 0.214646
H16   H     H_    0.778766 0.648848 0.534567 0.171999
H17   H     H_    0.918055 0.734070 0.553365 0.170276
H18   H     H_    0.891610 0.070818 0.407920 0.372487
H19   H     H_    0.703183 0.994176 0.239958 0.352448
H20   H     H_    0.385785 0.298520 0.820769 0.115367
H21   H     H_    0.446887 0.154787 0.752629 0.131130
H22   H     H_    0.590268 0.085932 0.801917 0.126366
H23   H     H_    0.081290 0.733910 0.554059 0.150514
H24   H     H_    0.672496 0.161340 0.920829 0.140762
H25   H     H_    0.613469 0.304454 0.990269 0.128524
H26   H     H_    0.349113 0.670830 0.819251 0.114005
H27   H     H_    0.380980 0.823691 0.748902 0.121275
H28   H     H_    0.507715 0.923277 0.796691 0.125048
H29   H     H_    0.603046 0.869284 0.916405 0.139579
H30   H     H_    0.573198 0.717223 0.988017 0.133623
H31   H     H_    0.220881 0.648723 0.535455 0.153553
H32   H     H_    0.221313 0.352344 0.460717 0.161754
H33   H     H_    0.081823 0.268931 0.436045 0.155123
H34   H     H_    0.918673 0.269552 0.433957 0.202897
H35   H     H_    0.620238 0.754599 0.433074 0.199772
H36   H     H_    0.620750 0.244483 0.433288 0.190757
N1    N     N_R   0.500070 0.750030 0.500040 -0.122478
N2    N     N_R   0.500070 0.249970 0.500040 -0.121148
O1    O     O_R   0.367860 0.580280 0.500020 -0.630511
O2    O     O_2   0.765414 0.175500 0.492202 -0.365400
O3    O     O_3   0.838125 0.031244 0.418612 -0.449604
O4    O     O_2   0.782500 0.838092 0.387545 -0.241129
O5    O     O_2   0.655448 0.818887 0.291527 -0.339583
O6    O     O_3   0.754531 0.967104 0.271643 -0.440171
O7    O     O_R   0.367860 0.419720 0.500020 -0.635160
O8    O     O_R   0.500020 0.580310 0.377140 -0.598866
O9    O     O_R   0.500020 0.419690 0.377140 -0.620538
O10   O     O_R   0.632160 0.580270 0.499980 -0.632548
O11   O     O_R   0.632160 0.419730 0.499980 -0.623103
O12   O     O_R   0.500010 0.580240 0.622850 -0.615635
O13   O     O_R   0.500010 0.419760 0.622850 -0.608383
O14   O     O_2   0.752302 0.164985 0.337173 -0.331979
S1    S     S_3+6 0.752317 0.108668 0.418563 0.013765
S2    S     S_3+6 0.709262 0.890150 0.341296 0.066451
Zn1   Zn    Zn3+2 0.500020 0.607200 0.499990 0.964876
Zn2   Zn    Zn3+2 0.500020 0.392800 0.499990 0.961381

loop_
_geom_bond_atom_site_label_1
_geom_bond_atom_site_label_2
_ccdc_geom_bond_type
O12   Zn1   S    
C54   H30   S    
C22   C29   A    
C23   H11   S    
C5    C56   A    
O6    S2    S    
C51   H27   S    
C50   H26   S    
C7    C8    A    
O11   Zn2   S    
C38   C49   S    
C53   C54   A    
O2    S1    D    
O5    S2    D    
C33   O12   A    
C12   C23   S    
C29   C30   A    
C36   C37   S    
C24   C26   A    
C36   H8    S    
C10   C17   A    
C49   C54   A    
C56   C57   A    
C47   H24   S    
C37   C42   S    
O14   S1    D    
C36   C40   S    
C16   O11   A    
C46   C47   A    
C47   C48   A    
C8    C9    A    
C22   C25   A    
C35   H6    S    
C1    C15   S    
C20   H2    S    
C9    C10   A    
C1    O7    A    
C21   H3    S    
C16   O10   A    
C38   H1    S    
C12   H14   S    
C37   H12   S    
C18   N1    A    
N2    Zn2   S    
H19   O6    S    
C2    C6    A    
C34   C41   S    
C44   C46   A    
C44   H21   S    
C40   C45   S    
C17   H32   S    
O10   Zn1   S    
C51   C52   A    
O9    Zn2   S    
C6    H17   S    
C35   C38   S    
C38   C41   S    
C1    O1    A    
C36   H7    S    
C42   C48   A    
C25   C26   A    
C34   C39   T    
C43   H20   S    
C23   H10   S    
C43   C44   A    
C14   H31   S    
C12   C41   S    
C3    C9    A    
C31   C32   A    
C35   H9    S    
O3    S1    S    
O7    Zn2   S    
C50   C51   A    
C53   H29   S    
C33   C39   S    
C19   C28   A    
C19   H36   S    
O13   Zn2   S    
C7    H23   S    
C20   N1    A    
C20   C22   A    
O4    S2    D    
C4    C55   S    
C33   O13   A    
C42   C43   A    
O1    Zn1   S    
C52   C53   A    
C58   H16   S    
H18   O3    S    
C15   C17   A    
C29   H4    S    
C8    C14   A    
C56   H15   S    
C32   S2    S    
C27   C32   A    
C5    C13   A    
C12   H13   S    
C28   C31   A    
C18   C27   A    
C3    C5    A    
C2    C58   A    
C6    C7    A    
C21   N2    A    
C25   C27   A    
C4    O9    A    
C26   C28   A    
C48   H25   S    
C52   H28   S    
C35   C40   S    
C13   H34   S    
C46   H22   S    
C11   C13   A    
C57   C58   A    
N1    Zn1   S    
C4    O8    A    
C2    C3    A    
C16   C57   S    
C37   C41   S    
C24   C30   A    
C10   C11   A    
O8    Zn1   S    
C11   H33   S    
C45   C55   T    
C49   C50   A    
C21   C24   A    
C18   H35   S    
C31   S1    S    
C14   C15   A    
C30   H5    S    
C19   N2    A    
C23   C40   S    
