data_mof_unit_11802.cif
_audit_creation_date              2013-03-05T15:57:24-0500
_audit_creation_method            fapswitch 2.2
_symmetry_space_group_name_H-M    P1
_symmetry_Int_Tables_number       1
_space_group_crystal_system       triclinic
_cell_length_a                    12.990016
_cell_length_b                    13.059447
_cell_length_c                    15.285996
_cell_angle_alpha                 115.769683
_cell_angle_beta                  64.116619
_cell_angle_gamma                 96.575606
_cell_volume                      2091.91129472

loop_
_atom_site_label
_atom_site_type_symbol
_atom_site_description
_atom_site_fract_x
_atom_site_fract_y
_atom_site_fract_z
_atom_type_partial_charge
C1    C     C_R   0.018671 0.833702 0.034159 -0.122611
H1    H     H_    0.056214 0.897442 0.082354 0.090418
N1    N     N_R   0.037320 0.720000 0.995830 -0.043580
C2    C     C_R   0.697575 0.412796 0.211885 -0.105980
H2    H     H_    0.639055 0.357742 0.183854 0.124424
N2    N     N_R   0.790770 0.446140 0.151990 -0.049458
C3    C     C_R   0.739516 0.577881 0.947456 -0.168220
H3    H     H_    0.747312 0.625134 0.902470 0.095385
N3    N     N_R   0.824900 0.517970 0.936430 -0.043177
C4    C     C_R   0.992024 0.709558 0.310842 0.321377
N4    N     N_R   0.003190 0.648180 0.211390 -0.083974
C5    C     C_R   0.661655 0.477934 0.044237 -0.075652
H4    H     H_    0.603755 0.431904 0.086682 0.154280
N5    N     N_R   0.774330 0.457010 0.995830 -0.060130
C6    C     C_R   0.069918 0.811353 0.215567 -0.192992
H5    H     H_    0.112901 0.876281 0.190570 0.121348
N6    N     N_R   0.053760 0.709130 0.151980 -0.055347
C7    C     C_R   0.795591 0.502900 0.309198 -0.101959
H6    H     H_    0.823445 0.534717 0.372315 0.168256
N7    N     N_R   0.853840 0.498830 0.211390 -0.044795
C8    C     C_R   0.924780 0.748831 0.932278 -0.142229
H7    H     H_    0.879929 0.735052 0.883748 0.089645
N8    N     N_R   0.974250 0.667320 0.936430 -0.039054
C9    C     C_R   0.944500 0.853765 0.998386 0.132097
C10   C     C_R   0.699214 0.448123 0.309946 0.012102
C11   C     C_R   0.637533 0.558964 0.019765 0.198453
C12   C     C_R   0.029118 0.813755 0.315895 -0.081703
C13   C     C_R   0.321092 0.580017 0.011654 -0.185692
H8    H     H_    0.363314 0.646410 0.988362 0.104638
N9    N     N_R   0.225670 0.542990 0.004170 -0.036563
C14   C     C_R   0.911883 0.197991 0.787820 -0.114847
H9    H     H_    0.864574 0.134455 0.813052 0.099645
N10   N     N_R   0.946240 0.290870 0.848020 -0.044590
C15   C     C_R   0.217402 0.439272 0.687255 -0.098439
H10   H     H_    0.193223 0.391546 0.622262 0.118717
N11   N     N_R   0.146160 0.501170 0.788610 -0.046102
C16   C     C_R   0.091347 0.251020 0.051633 -0.118574
H11   H     H_    0.149369 0.266147 0.088607 0.118293
N12   N     N_R   0.025750 0.332680 0.063570 -0.037868
C17   C     C_R   0.992096 0.167152 0.955519 -0.090085
H12   H     H_    0.958287 0.104199 0.903006 0.092916
N13   N     N_R   0.962680 0.280000 0.004170 -0.049800
C18   C     C_R   0.320334 0.530759 0.780873 -0.159728
H13   H     H_    0.389941 0.567788 0.801632 0.101147
N14   N     N_R   0.209230 0.553860 0.848010 -0.039212
C19   C     C_R   0.244250 0.480083 0.107454 -0.053160
H14   H     H_    0.222480 0.449726 0.168328 0.200866
N15   N     N_R   0.175100 0.482030 0.063570 -0.052838
C20   C     C_R   0.989957 0.302507 0.696244 -0.165885
H15   H     H_    0.014887 0.337292 0.638037 0.094194
N16   N     N_R   0.996810 0.351820 0.788610 -0.037646
Ni1   Ni    Ni4+2 0.130310 0.630310 0.000000 0.209034
Ni2   Ni    Ni4+2 0.869690 0.369690 0.000000 0.211353
Ni3   Ni    Ni4+2 0.985660 0.509480 0.863750 0.209083
Ni4   Ni    Ni4+2 0.014340 0.490520 0.136250 0.283325
C21   C     C_R   0.335656 0.542154 0.076333 0.017674
C22   C     C_R   0.940414 0.204521 0.692356 0.068092
C23   C     C_R   0.326316 0.460728 0.679858 0.061012
C24   C     C_R   0.073798 0.145012 0.982950 0.026086
H16   H     H_    0.535763 0.913360 0.132478 0.119483
C25   C     C_R   0.401961 0.860993 0.246273 -0.095723
H17   H     H_    0.458561 0.798207 0.236323 0.167548
C26   C     C_R   0.285677 0.877488 0.318202 -0.093305
H18   H     H_    0.252799 0.826329 0.362950 0.164270
C27   C     C_R   0.213345 0.962692 0.334946 0.071569
C28   C     C_R   0.258233 0.029965 0.278010 -0.117773
H19   H     H_    0.203647 0.096939 0.291085 0.138945
C29   C     C_R   0.373879 0.011119 0.204145 -0.046168
H20   H     H_    0.408038 0.062832 0.160125 0.131740
C30   C     C_R   0.445821 0.926863 0.188509 -0.141926
C31   C     C_R   0.064902 0.087680 0.510197 -0.233950
H21   H     H_    0.132367 0.142826 0.519111 0.159803
C32   C     C_R   0.953740 0.112497 0.593689 0.053989
C33   C     C_R   0.865515 0.042418 0.585072 0.002355
C34   C     C_R   0.894059 0.941794 0.492213 -0.162593
H22   H     H_    0.827847 0.885706 0.481506 0.124090
C35   C     C_R   0.007415 0.914159 0.411469 0.134032
C36   C     C_R   0.093084 0.988198 0.418349 0.010182
C37   C     C_R   0.683528 0.994655 0.708048 -0.163838
H23   H     H_    0.723187 0.909729 0.675953 0.133979
C38   C     C_R   0.571002 0.025388 0.789383 -0.121083
H24   H     H_    0.524385 0.964198 0.818821 0.107869
C39   C     C_R   0.518804 0.135122 0.833119 -0.072686
H25   H     H_    0.431825 0.158804 0.896249 0.108951
C40   C     C_R   0.578789 0.214228 0.795229 -0.110042
H26   H     H_    0.538206 0.299131 0.828959 0.114390
C41   C     C_R   0.691126 0.183799 0.713702 -0.140524
H27   H     H_    0.735981 0.245886 0.684617 0.114889
C42   C     C_R   0.745016 0.073911 0.669962 0.120193
H28   H     H_    0.034221 0.287999 0.427099 0.131267
C43   C     C_R   0.926316 0.265953 0.347146 -0.063519
H29   H     H_    0.988111 0.204866 0.270194 0.102688
C44   C     C_R   0.820139 0.297138 0.358308 -0.147175
H30   H     H_    0.800183 0.259157 0.289792 0.131333
C45   C     C_R   0.739908 0.377173 0.457702 0.114303
C46   C     C_R   0.768357 0.425385 0.545664 -0.130160
H31   H     H_    0.708866 0.488242 0.623051 0.102110
C47   C     C_R   0.874002 0.393328 0.534454 -0.137107
H32   H     H_    0.894796 0.431072 0.602630 0.101198
C48   C     C_R   0.952710 0.313167 0.435433 -0.046394
C49   C     C_R   0.528747 0.412102 0.561958 -0.250050
H33   H     H_    0.537089 0.386717 0.617567 0.132275
C50   C     C_R   0.421332 0.450520 0.582546 0.074522
C51   C     C_R   0.406448 0.486934 0.514184 0.094789
C52   C     C_R   0.499805 0.476280 0.421408 -0.135985
H34   H     H_    0.489404 0.505643 0.369025 0.179538
C53   C     C_R   0.607916 0.439093 0.400540 0.033707
C54   C     C_R   0.625175 0.409081 0.471948 0.028952
C55   C     C_R   0.232211 0.500634 0.483343 0.356909
C56   C     C_R   0.129999 0.562509 0.516318 -0.155086
H35   H     H_    0.076933 0.527455 0.473819 0.213381
C57   C     C_R   0.093356 0.668158 0.606258 -0.119513
H36   H     H_    0.013437 0.713873 0.631956 0.168236
C58   C     C_R   0.159181 0.714726 0.663577 -0.119646
H37   H     H_    0.130695 0.796750 0.733151 0.123388
C59   C     C_R   0.261425 0.655373 0.631687 -0.148524
H38   H     H_    0.311515 0.692728 0.677243 0.126708
C60   C     C_R   0.298338 0.547671 0.542739 -0.062329
C61   C     C_2   0.428779 0.569440 0.107800 0.448508
C62   C     C_2   0.525586 0.594471 0.041084 -0.389675
H39   H     H_    0.527257 0.615589 0.979370 0.118587
C63   C     C_2   0.885291 0.962851 0.031967 -0.204939
H40   H     H_    0.848925 0.969431 0.982595 0.129507
C64   C     C_2   0.864726 0.050590 0.126787 -0.160228
H41   H     H_    0.894125 0.046505 0.181687 0.130318
N17   N     N_R   0.265183 0.390214 0.392362 0.225002
O1    O     O_R   0.233955 0.367527 0.316168 -0.408770
O2    O     O_R   0.316514 0.308387 0.389839 -0.449560
N18   N     N_R   0.989046 0.661278 0.379914 0.215089
O3    O     O_R   0.023711 0.554058 0.338954 -0.449405
O4    O     O_R   0.967437 0.726255 0.479999 -0.458585
Cl1   Cl    Cl    0.412322 0.560697 0.225514 -0.706302

loop_
_geom_bond_atom_site_label_1
_geom_bond_atom_site_label_2
_geom_bond_distance
_ccdc_geom_bond_type
C25   C30   1.397577 A    
C4    C12   1.371408 A    
N15   Ni4   1.878245 S    
C28   C29   1.397968 A    
C41   H27   1.083372 S    
C26   C27   1.402982 A    
C44   H30   1.079823 S    
C32   C33   1.398245 A    
N1    N8    1.395064 A    
C45   C46   1.409012 A    
C18   H13   1.081223 S    
C20   H15   1.081239 S    
C57   C58   1.392975 A    
C38   H24   1.082446 S    
C13   C21   1.366607 A    
C3    H3    1.076008 S    
C35   C36   1.397030 A    
C52   C53   1.392912 A    
N17   O1    1.301467 A    
C3    C11   1.386288 A    
C33   C42   1.487663 S    
N9    N15   1.370306 A    
C13   H8    1.080918 S    
C11   C62   1.430110 S    
C15   H10   1.078572 S    
N13   Ni2   1.814201 S    
C6    H5    1.078769 S    
C20   C22   1.354199 A    
C59   H38   1.083415 S    
C6    N6    1.325391 A    
C1    H1    1.077477 S    
C22   C32   1.411617 S    
C25   C26   1.398408 A    
C56   H35   1.080214 S    
C51   C52   1.366295 A    
C18   C23   1.382151 A    
N12   Ni4   1.854774 S    
C14   H9    1.081406 S    
C29   H20   1.082403 S    
C20   N16   1.312298 A    
C46   C47   1.397071 A    
C53   C54   1.414615 A    
C14   N10   1.334642 A    
C43   C48   1.396798 A    
C7    N7    1.327803 A    
C49   C54   1.386749 A    
C17   N13   1.341217 A    
C28   H19   1.083531 S    
C49   C50   1.391874 A    
C17   C24   1.396448 A    
C8    H7    1.076754 S    
C7    C10   1.367019 A    
N7    Ni4   1.878966 S    
N6    Ni1   1.893056 S    
H28   C48   1.082089 S    
C57   H36   1.081890 S    
C38   C39   1.397900 A    
C55   C60   1.419379 A    
C2    C10   1.372752 A    
N12   N13   1.395063 A    
C51   C60   1.486874 S    
C40   C41   1.398172 A    
N10   Ni2   1.893057 S    
C19   N15   1.343005 A    
C33   C34   1.381796 A    
C49   H33   1.085296 S    
C2    N2    1.323494 A    
C4    N4    1.322577 A    
C43   H29   1.082024 S    
C31   C32   1.399108 A    
N3    N5    1.370307 A    
C7    H6    1.075273 S    
N14   Ni1   1.893037 S    
C40   H26   1.082880 S    
C26   H18   1.083332 S    
C5    C11   1.371262 A    
C1    N1    1.344932 A    
C34   H22   1.085104 S    
C16   H11   1.080386 S    
C43   C44   1.400013 A    
C18   N14   1.328359 A    
C6    C12   1.373386 A    
C39   H25   1.082617 S    
H16   C30   1.082541 S    
C61   C62   1.343235 D    
C46   H31   1.083144 S    
C9    C63   1.467977 S    
C61   Cl1   1.770216 S    
N11   N14   1.395083 A    
C34   C35   1.403389 A    
C16   C24   1.394163 A    
C29   C30   1.397513 A    
C17   H12   1.079073 S    
C39   C40   1.397039 A    
C5    N5    1.317077 A    
C27   C28   1.404898 A    
C47   C48   1.395895 A    
C8    N8    1.342068 A    
C21   C61   1.442879 S    
N2    Ni2   1.893036 S    
C63   C64   1.331559 D    
N4    Ni4   1.856416 S    
C62   H39   1.083246 S    
C10   C53   1.419224 S    
N8    Ni3   1.854773 S    
C37   C38   1.399026 A    
N18   O3    1.300539 A    
C3    N3    1.338521 A    
N9    Ni1   1.815096 S    
C19   H14   1.080896 S    
N4    N6    1.370307 A    
N17   O2    1.301127 A    
C27   C36   1.479133 S    
C2    H2    1.081551 S    
C12   C35   1.411581 S    
C58   C59   1.394416 A    
N1    Ni1   1.814201 S    
C58   H37   1.082614 S    
C23   C50   1.419918 S    
N10   N16   1.370309 A    
N2    N7    1.395082 A    
C52   H34   1.086175 S    
N16   Ni3   1.856416 S    
C14   C22   1.379443 A    
C41   C42   1.408415 A    
C4    N18   1.432272 S    
C31   H21   1.086108 S    
C16   N12   1.341584 A    
C55   C56   1.406117 A    
C13   N9    1.312165 A    
C59   C60   1.406884 A    
C15   N11   1.319387 A    
C25   H17   1.080735 S    
C56   C57   1.396438 A    
C37   C42   1.406004 A    
N11   Ni3   1.878965 S    
C45   C54   1.490743 S    
C37   H23   1.083157 S    
C55   N17   1.440365 S    
N5    Ni2   1.815096 S    
C5    H4    1.075889 S    
C1    C9    1.392259 A    
C44   C45   1.404722 A    
C47   H32   1.081951 S    
C8    C9    1.380657 A    
C19   C21   1.383817 A    
C50   C51   1.408921 A    
C15   C23   1.374783 A    
N3    Ni3   1.878246 S    
C63   H40   1.084930 S    
C31   C36   1.366468 A    
C64   H41   1.084603 S    
N18   O4    1.300088 A    
