data_mof_unit_7945.cif
_audit_creation_date              2012-12-10T18:46:18-0500
_audit_creation_method            fapswitch 2.2
_symmetry_space_group_name_H-M    P1
_symmetry_Int_Tables_number       1
_space_group_crystal_system       triclinic
_cell_length_a                    9.920272
_cell_length_b                    10.635887
_cell_length_c                    13.043683
_cell_angle_alpha                 90.324965
_cell_angle_beta                  71.614231
_cell_angle_gamma                 89.751642
_cell_volume                      1305.9508673

loop_
_atom_site_label
_atom_site_type_symbol
_atom_type_description
_atom_site_fract_x
_atom_site_fract_y
_atom_site_fract_z
_atom_type_partial_charge
C1    C     C_R   0.500496 0.739114 0.498062 0.902270
C2    C     C_R   0.443823 0.386699 0.975342 -0.001465
C3    C     C_R   0.484479 0.398882 0.862415 0.086537
C4    C     C_R   0.550926 0.402522 0.024979 0.082299
C5    C     C_R   0.695517 0.395593 0.961272 0.153275
C6    C     C_R   0.731165 0.365642 0.851880 -0.211679
C7    C     C_R   0.626206 0.366822 0.802502 -0.178431
C8    C     C_R   0.517840 0.442893 0.132049 -0.283556
C9    C     C_R   0.768626 0.462645 0.113663 0.095619
C10   C     C_R   0.381816 0.442098 0.815205 -0.127633
C11   C     C_R   0.572630 0.933782 0.399643 -0.079523
C12   C     C_R   0.423509 0.486747 0.702999 0.873362
C13   C     C_R   0.569554 0.065116 0.400065 -0.021886
C14   C     C_R   0.501947 0.127688 0.498547 -0.199857
C15   C     C_R   0.430201 0.064638 0.594830 -0.027247
C16   C     C_R   0.428752 0.933945 0.592520 0.106958
C17   C     C_R   0.499956 0.871596 0.495921 -0.138463
C18   C     C_R   0.948546 0.406644 0.449584 -0.049816
C19   C     C_R   0.092035 0.405888 0.449115 0.010523
C20   C     C_R   0.047459 0.591806 0.554339 0.018150
C21   C     C_R   0.904923 0.591907 0.552282 -0.029160
C22   C     C_R   0.500479 0.260662 0.499517 0.807985
C23   C     C_R   0.578206 0.496404 0.295358 0.828329
C24   C     C_R   0.802242 0.424708 0.005908 -0.129726
C25   C     C_R   0.624197 0.470084 0.178444 -0.090841
C26   C     C_R   0.237806 0.438310 0.876135 -0.217266
C27   C     C_R   0.197156 0.390981 0.980513 -0.058660
C28   C     C_R   0.298536 0.363688 0.031500 -0.025104
H1    H     H_    0.910227 0.332848 0.408591 0.185771
H2    H     H_    0.830706 0.663948 0.595075 0.186273
H3    H     H_    0.840801 0.350174 0.803084 0.158494
H4    H     H_    0.911751 0.422901 0.955049 0.125811
H5    H     H_    0.408015 0.459269 0.178686 0.155255
H6    H     H_    0.156553 0.464406 0.840835 0.157251
H7    H     H_    0.086652 0.372405 0.020921 0.193939
H8    H     H_    0.658272 0.341967 0.717840 0.185984
N1    N     N_R   0.142790 0.500030 0.500030 -0.172286
N2    N     N_R   0.857180 0.499940 0.500010 -0.130759
O1    O     O_R   0.385370 0.683250 0.500010 -0.618349
O2    O     O_R   0.614700 0.683220 0.500010 -0.606829
O3    O     O_R   0.328400 0.499990 0.653620 -0.638546
O4    O     O_R   0.557730 0.499960 0.653620 -0.615981
O5    O     O_R   0.385300 0.316780 0.499990 -0.622925
O6    O     O_R   0.614630 0.316750 0.499990 -0.632014
O7    O     O_R   0.442270 0.500040 0.346380 -0.634656
O8    O     O_R   0.671600 0.500010 0.346380 -0.628022
Zn1   Zn    Zn3+2 0.346870 0.500020 0.500000 0.936962
Zn2   Zn    Zn3+2 0.653130 0.499980 0.500000 0.942700
N3    N     N_3   0.882922 0.497122 0.152975 -0.453412
H9    H     H_    0.864386 0.587772 0.186035 0.224972
H10   H     H_    0.888780 0.432964 0.211794 0.236858
C29   C     C_2   0.628959 0.138481 0.298629 0.497959
H11   H     H_    0.681672 0.227292 0.299934 0.052345
O9    O     O_2   0.613873 0.103062 0.213727 -0.534227
C30   C     C_2   0.363663 0.136459 0.696908 0.436742
H12   H     H_    0.408233 0.225336 0.709294 0.036289
O10   O     O_2   0.257937 0.099187 0.766551 -0.552020
N4    N     N_3   0.363948 0.861790 0.688259 -0.455377
H13   H     H_    0.406868 0.888898 0.748572 0.217291
H14   H     H_    0.254540 0.878668 0.714355 0.264640
C31   C     C_2   0.184078 0.301005 0.393981 0.507350
H15   H     H_    0.294908 0.316080 0.350824 0.082714
O11   O     O_2   0.135958 0.195364 0.394877 -0.529914
C32   C     C_2   0.087787 0.688490 0.620676 0.419031
H16   H     H_    0.173364 0.672134 0.653185 0.127597
O12   O     O_2   0.022478 0.787852 0.642442 -0.562735
C33   C     C_2   0.254027 0.290446 0.132763 0.383529
H17   H     H_    0.333085 0.247191 0.163005 0.102816
O13   O     O_2   0.128451 0.273367 0.181329 -0.560168
C34   C     C_2   0.653202 0.859818 0.301728 0.531259
H18   H     H_    0.614873 0.768757 0.285848 0.011592
O14   O     O_2   0.766042 0.897223 0.240657 -0.508203

loop_
_geom_bond_atom_site_label_1
_geom_bond_atom_site_label_2
_ccdc_geom_bond_type
C20   C32   S    
C2    C4    A    
C30   H12   S    
C24   H4    S    
C9    C24   A    
C6    C7    A    
C23   O7    A    
N4    H14   S    
N1    Zn1   S    
C13   C29   S    
C7    H8    S    
C1    C17   S    
C22   O5    A    
C4    C8    A    
C32   H16   S    
C10   C26   A    
O7    Zn1   S    
C2    C3    A    
O3    Zn1   S    
C11   C34   S    
C9    C25   A    
C23   O8    A    
O4    Zn2   S    
C13   C14   A    
C8    C25   A    
C23   C25   S    
C20   N1    A    
C11   C13   A    
C14   C22   S    
C26   C27   A    
C34   H18   S    
C5    C24   A    
C10   C12   S    
C19   C31   S    
C3    C10   A    
C15   C16   A    
C29   O9    D    
N2    Zn2   S    
C6    H3    S    
C16   N4    S    
C3    C7    A    
C8    H5    S    
C30   O10   D    
C18   N2    A    
C5    C6    A    
O8    Zn2   S    
C34   O14   D    
C31   H15   S    
C1    O1    A    
C12   O4    A    
C18   H1    S    
C33   H17   S    
C22   O6    A    
C4    C5    A    
C28   C33   S    
C9    N3    S    
C20   C21   A    
C12   O3    A    
O1    Zn1   S    
N3    H9    S    
C21   H2    S    
C33   O13   D    
C27   C28   A    
C31   O11   D    
O2    Zn2   S    
C14   C15   A    
C18   C19   A    
C2    C28   A    
C32   O12   D    
C19   N1    A    
C1    O2    A    
C27   H7    S    
N4    H13   S    
O5    Zn1   S    
C26   H6    S    
C11   C17   A    
C21   N2    A    
O6    Zn2   S    
C29   H11   S    
C16   C17   A    
N3    H10   S    
C15   C30   S    
