data_mof_unit_8247.cif
_audit_creation_date              2013-03-05T15:48:15-0500
_audit_creation_method            fapswitch 2.2
_symmetry_space_group_name_H-M    P1
_symmetry_Int_Tables_number       1
_space_group_crystal_system       triclinic
_cell_length_a                    15.771821
_cell_length_b                    15.689608
_cell_length_c                    34.393038
_cell_angle_alpha                 89.484014
_cell_angle_beta                  89.657094
_cell_angle_gamma                 120.481638
_cell_volume                      7333.59018772

loop_
_atom_site_label
_atom_site_type_symbol
_atom_site_description
_atom_site_fract_x
_atom_site_fract_y
_atom_site_fract_z
_atom_type_partial_charge
O1    O     O_R   0.498680 0.159540 0.541860 -0.449364
O2    O     O_R   0.840460 0.339140 0.541860 -0.445258
O3    O     O_R   0.660860 0.501320 0.541860 -0.454105
O4    O     O_R   0.159540 0.498680 0.041860 -0.416285
O5    O     O_R   0.339140 0.840460 0.041860 -0.460310
O6    O     O_R   0.501320 0.660860 0.041860 -0.455730
O7    O     O_R   0.532760 0.358060 0.540030 -0.502575
O8    O     O_R   0.641940 0.174700 0.540030 -0.512538
O9    O     O_R   0.825300 0.467240 0.540030 -0.515570
O10   O     O_R   0.358060 0.532760 0.040030 -0.512345
O11   O     O_R   0.174700 0.641940 0.040030 -0.473224
O12   O     O_R   0.467240 0.825300 0.040030 -0.517135
C1    C     C_R   0.577161 0.441752 0.554632 0.587755
C2    C     C_R   0.557001 0.134342 0.554312 0.575941
C3    C     C_R   0.864528 0.422471 0.554497 0.581820
C4    C     C_R   0.441467 0.576941 0.054665 0.579454
C5    C     C_R   0.187184 0.579222 0.059755 0.546500
C6    C     C_R   0.422095 0.864076 0.054607 0.563427
O13   O     O_R   0.498590 0.161190 0.456930 -0.472443
O14   O     O_R   0.838810 0.337400 0.456930 -0.458969
O15   O     O_R   0.662600 0.501410 0.456930 -0.418978
O16   O     O_R   0.161190 0.498590 0.956930 -0.472657
O17   O     O_R   0.337400 0.838810 0.956930 -0.455146
O18   O     O_R   0.501410 0.662600 0.956930 -0.416839
O19   O     O_R   0.532680 0.359580 0.461300 -0.474248
O20   O     O_R   0.640420 0.173100 0.461300 -0.514119
O21   O     O_R   0.826900 0.467320 0.461300 -0.524386
O22   O     O_R   0.359580 0.532680 0.961300 -0.471878
O23   O     O_R   0.173100 0.640420 0.961300 -0.505997
O24   O     O_R   0.467320 0.826900 0.961300 -0.527016
C7    C     C_R   0.606584 0.420231 0.439969 0.542964
C8    C     C_R   0.557272 0.134703 0.445923 0.564624
C9    C     C_R   0.865846 0.423432 0.445833 0.565646
C10   C     C_R   0.420545 0.606655 0.939907 0.544441
C11   C     C_R   0.134905 0.557395 0.945782 0.577525
C12   C     C_R   0.423152 0.865814 0.945774 0.571355
Cr1   Cr    Cr6+3 0.522350 0.263930 0.500020 1.135031
Cr2   Cr    Cr6+3 0.736070 0.258420 0.500020 1.116357
Cr3   Cr    Cr6+3 0.741580 0.477650 0.500020 1.124451
Cr4   Cr    Cr6+3 0.263930 0.522350 0.000020 1.139423
Cr5   Cr    Cr6+3 0.258420 0.736070 0.000020 1.126574
Cr6   Cr    Cr6+3 0.477650 0.741580 0.000020 1.111961
O25   O     O_3   0.666667 0.333333 0.499990 -0.324037
O26   O     O_3   0.333333 0.666667 0.999990 -0.352132
N1    N     N_R   0.012768 0.439868 0.768470 -0.207893
N2    N     N_R   0.495536 0.629940 0.751449 -0.206048
N3    N     N_R   0.426225 0.983410 0.767772 -0.206419
N4    N     N_R   0.430388 0.995188 0.270839 -0.205516
N5    N     N_R   0.628954 0.494623 0.251481 -0.206443
N6    N     N_R   0.097942 0.486447 0.284676 -0.204059
N7    N     N_R   0.005203 0.435914 0.729986 -0.203703
N8    N     N_R   0.506346 0.614798 0.714246 -0.205156
N9    N     N_R   0.427621 0.987390 0.729162 -0.205487
N10   N     N_R   0.425825 0.987381 0.232362 -0.206268
N11   N     N_R   0.613726 0.505255 0.214243 -0.202858
N12   N     N_R   0.121279 0.494999 0.247113 -0.207673
C13   C     C_R   0.923215 0.459468 0.590166 0.007824
C14   C     C_R   0.534070 0.466288 0.587955 0.005121
C15   C     C_R   0.533093 0.071661 0.589491 0.005701
C16   C     C_R   0.457129 0.919670 0.091056 0.004419
C17   C     C_R   0.465519 0.533518 0.088078 0.004320
C18   C     C_R   0.166171 0.573023 0.101942 -0.007736
C19   C     C_R   0.969067 0.411140 0.607567 0.196454
C20   C     C_R   0.567021 0.565248 0.598594 0.200234
C21   C     C_R   0.437950 0.023535 0.606779 0.196426
C22   C     C_R   0.407880 0.963734 0.108995 0.188397
C23   C     C_R   0.563778 0.563947 0.098136 0.200864
C24   C     C_R   0.116743 0.482235 0.123077 0.199022
C25   C     C_R   0.998481 0.430832 0.646376 -0.088522
C26   C     C_R   0.535188 0.583530 0.634079 -0.084125
C27   C     C_R   0.426960 0.991135 0.645533 -0.089444
C28   C     C_R   0.424092 0.987816 0.148429 -0.095983
C29   C     C_R   0.582014 0.531979 0.133694 -0.081439
C30   C     C_R   0.105816 0.483235 0.163338 -0.088689
C31   C     C_R   0.986800 0.500416 0.667425 -0.009394
C32   C     C_R   0.468657 0.505394 0.658445 -0.007760
C33   C     C_R   0.507881 0.001858 0.666381 -0.010055
C34   C     C_R   0.491586 0.973180 0.169532 -0.011220
C35   C     C_R   0.504324 0.467719 0.158632 -0.007517
C36   C     C_R   0.141975 0.572499 0.183134 -0.004535
C37   C     C_R   0.952265 0.556096 0.648531 -0.112913
C38   C     C_R   0.430417 0.407839 0.646132 -0.106878
C39   C     C_R   0.598418 0.037097 0.647295 -0.111795
C40   C     C_R   0.548155 0.940534 0.150320 -0.113573
C41   C     C_R   0.407230 0.432146 0.146969 -0.105998
C42   C     C_R   0.188684 0.662002 0.162255 -0.111915
C43   C     C_R   0.920478 0.535590 0.610356 -0.147785
C44   C     C_R   0.463079 0.388553 0.611391 -0.148333
C45   C     C_R   0.611018 0.072062 0.609279 -0.146404
C46   C     C_R   0.530865 0.913720 0.111548 -0.148926
C47   C     C_R   0.388228 0.465174 0.112226 -0.150899
C48   C     C_R   0.201321 0.662194 0.122100 -0.159149
N13   N     N_R   0.008830 0.586662 0.729152 -0.202366
N14   N     N_R   0.373597 0.453130 0.720138 -0.199522
N15   N     N_R   0.572615 0.981296 0.728198 -0.198931
N16   N     N_R   0.576858 0.993254 0.231247 -0.200714
N17   N     N_R   0.452373 0.372920 0.220447 -0.198327
N18   N     N_R   0.110893 0.638185 0.242713 -0.189146
N19   N     N_R   0.016894 0.590863 0.767649 -0.199489
N20   N     N_R   0.362342 0.468485 0.757375 -0.190523
N21   N     N_R   0.570983 0.976870 0.766818 -0.198903
N22   N     N_R   0.581647 0.001541 0.269716 -0.201379
N23   N     N_R   0.467810 0.361836 0.257709 -0.191343
N24   N     N_R   0.086675 0.629113 0.280311 -0.196282
C49   C     C_R   0.018171 0.517097 0.788055 0.348547
C50   C     C_R   0.424236 0.556783 0.773876 0.347756
C51   C     C_R   0.498332 0.978954 0.787320 0.348851
C52   C     C_R   0.508263 0.002187 0.290253 0.348760
C53   C     C_R   0.555999 0.423641 0.274062 0.347640
C54   C     C_R   0.078941 0.552498 0.301911 0.347986
C55   C     C_R   0.003147 0.509228 0.709582 0.349641
C56   C     C_R   0.446677 0.525664 0.697963 0.348837
C57   C     C_R   0.500816 0.986394 0.708654 0.349885
C58   C     C_R   0.499160 0.986670 0.211827 0.348530
C59   C     C_R   0.524717 0.445694 0.198114 0.350242
C60   C     C_R   0.127098 0.570292 0.225348 0.347013
C61   C     C_R   0.009783 0.438348 0.852260 -0.095337
C62   C     C_R   0.510490 0.632901 0.835028 -0.089639
C63   C     C_R   0.431493 0.991879 0.851305 -0.090054
C64   C     C_R   0.433350 0.998695 0.354633 -0.094697
C65   C     C_R   0.633296 0.510347 0.334989 -0.088371
C66   C     C_R   0.051241 0.468345 0.366254 -0.082664
C67   C     C_R   0.032326 0.445142 0.891855 0.191084
C68   C     C_R   0.513918 0.641421 0.875469 0.192200
C69   C     C_R   0.416032 0.970139 0.891189 0.196739
C70   C     C_R   0.442588 0.025871 0.393746 0.191103
C71   C     C_R   0.642271 0.513912 0.375403 0.192989
C72   C     C_R   0.001241 0.436820 0.402006 0.199828
C73   C     C_R   0.091777 0.621805 0.888125 -0.149393
C74   C     C_R   0.337156 0.526292 0.878551 -0.157993
C75   C     C_R   0.532616 0.911822 0.888438 -0.148344
C76   C     C_R   0.618378 0.086659 0.388845 -0.151154
C77   C     C_R   0.525308 0.336760 0.378813 -0.158666
C78   C     C_R   0.929115 0.539600 0.389611 -0.148423
C79   C     C_R   0.066745 0.613493 0.849115 -0.113343
C80   C     C_R   0.335751 0.515592 0.838225 -0.113014
C81   C     C_R   0.548866 0.935698 0.849126 -0.110010
C82   C     C_R   0.607682 0.056972 0.350385 -0.113830
C83   C     C_R   0.514360 0.335251 0.338516 -0.113950
C84   C     C_R   0.981035 0.572078 0.354541 -0.102076
C85   C     C_R   0.030126 0.522762 0.830453 -0.011526
C86   C     C_R   0.422344 0.569782 0.816168 -0.007330
C87   C     C_R   0.494373 0.970675 0.829870 -0.013801
C88   C     C_R   0.516107 0.017418 0.332455 -0.010420
C89   C     C_R   0.569223 0.421933 0.316319 -0.007435
C90   C     C_R   0.039398 0.533656 0.341903 -0.009845
C91   C     C_R   0.080149 0.539412 0.909306 0.006913
C92   C     C_R   0.425575 0.589022 0.897834 -0.003698
C93   C     C_R   0.461613 0.922439 0.909208 0.004765
C94   C     C_R   0.537567 0.076719 0.410220 0.007296
C95   C     C_R   0.589086 0.425417 0.397910 -0.004144
C96   C     C_R   0.935236 0.468883 0.412854 0.001952
H1    H     H_    0.887530 0.575177 0.597600 0.168162
H2    H     H_    0.435889 0.312196 0.603753 0.166095
H3    H     H_    0.684108 0.106086 0.596455 0.174557
H4    H     H_    0.570976 0.881887 0.098458 0.168498
H5    H     H_    0.312704 0.440715 0.105139 0.185894
H6    H     H_    0.239721 0.732587 0.106766 0.151737
H7    H     H_    0.029623 0.390838 0.660273 0.182165
H8    H     H_    0.562705 0.659302 0.642666 0.180514
H9    H     H_    0.355454 0.959101 0.659628 0.180990
H10   H     H_    0.383562 0.017701 0.162686 0.184051
H11   H     H_    0.657300 0.557506 0.141890 0.184388
H12   H     H_    0.067265 0.413382 0.179124 0.173202
H13   H     H_    0.943779 0.611254 0.663945 0.170564
H14   H     H_    0.378904 0.346020 0.664248 0.172225
H15   H     H_    0.661704 0.044636 0.662545 0.174233
H16   H     H_    0.601764 0.929914 0.165802 0.170131
H17   H     H_    0.345766 0.382743 0.165608 0.174333
H18   H     H_    0.216818 0.731772 0.177042 0.162521
H19   H     H_    0.976874 0.366995 0.838393 0.183972
H20   H     H_    0.578540 0.672507 0.818407 0.181068
H21   H     H_    0.393246 0.024073 0.836885 0.184219
H22   H     H_    0.361453 0.963630 0.341404 0.183664
H23   H     H_    0.673473 0.578535 0.318245 0.180774
H24   H     H_    0.099108 0.441138 0.357294 0.183382
H25   H     H_    0.127087 0.694643 0.900845 0.171689
H26   H     H_    0.268406 0.486360 0.894667 0.161777
H27   H     H_    0.570023 0.877379 0.901744 0.191202
H28   H     H_    0.691661 0.124035 0.400884 0.166970
H29   H     H_    0.484710 0.267870 0.395049 0.163371
H30   H     H_    0.879838 0.565838 0.397532 0.184290
H31   H     H_    0.081854 0.679531 0.833058 0.172117
H32   H     H_    0.266763 0.466229 0.824232 0.164994
H33   H     H_    0.599209 0.920338 0.833380 0.184336
H34   H     H_    0.672532 0.070977 0.334053 0.170076
H35   H     H_    0.464227 0.266084 0.324656 0.165368
H36   H     H_    0.970666 0.622616 0.336299 0.180958
N25   N     N_R   0.985716 0.342073 0.586589 0.094877
O27   O     O_R   0.980206 0.265985 0.604516 -0.294978
O28   O     O_R   0.021847 0.363485 0.551397 -0.222957
N26   N     N_R   0.630839 0.647494 0.573656 0.095457
O29   O     O_R   0.696397 0.730977 0.588606 -0.289103
O30   O     O_R   0.612997 0.644574 0.536646 -0.240055
N27   N     N_R   0.352782 0.007821 0.585773 0.095275
O31   O     O_R   0.280988 0.009629 0.603844 -0.294824
O32   O     O_R   0.339785 0.976237 0.550218 -0.233748
N28   N     N_R   0.341517 0.983988 0.087886 0.098130
O33   O     O_R   0.265475 0.978454 0.105404 -0.285526
O34   O     O_R   0.364971 0.022558 0.053040 -0.228049
N29   N     N_R   0.645209 0.625304 0.072568 0.098164
O35   O     O_R   0.730075 0.689217 0.086856 -0.279608
O36   O     O_R   0.639472 0.606641 0.035576 -0.232458
N30   N     N_R   0.073125 0.388367 0.104388 0.107950
O37   O     O_R   0.978159 0.330018 0.106096 -0.256321
O38   O     O_R   0.127957 0.352580 0.093707 -0.304686
N31   N     N_R   0.007129 0.356561 0.913644 0.098304
O39   O     O_R   0.973020 0.345080 0.949042 -0.240151
O40   O     O_R   0.005056 0.281836 0.896579 -0.285757
N32   N     N_R   0.608429 0.699505 0.892983 0.092643
O41   O     O_R   0.670246 0.786790 0.878756 -0.324499
O42   O     O_R   0.641165 0.656580 0.915976 -0.215977
N33   N     N_R   0.353514 0.995467 0.912655 0.099434
O43   O     O_R   0.376025 0.028400 0.947916 -0.231906
O44   O     O_R   0.281931 0.998676 0.895417 -0.286480
N34   N     N_R   0.355699 0.001994 0.416052 0.097599
O45   O     O_R   0.279909 0.997454 0.399168 -0.286424
O46   O     O_R   0.346731 0.970989 0.451898 -0.233287
N35   N     N_R   0.701861 0.608762 0.392741 0.093116
O47   O     O_R   0.789361 0.668987 0.378646 -0.323615
O48   O     O_R   0.660634 0.643728 0.415382 -0.221908
N36   N     N_R   0.019154 0.373672 0.426900 0.098752
O49   O     O_R   0.031962 0.390982 0.463960 -0.230321
O50   O     O_R   0.038133 0.309151 0.411951 -0.280259

loop_
_geom_bond_atom_site_label_1
_geom_bond_atom_site_label_2
_geom_bond_distance
_ccdc_geom_bond_type
O19   C7    1.286191 A    
O7    C1    1.244998 A    
N24   C54   1.358597 A    
O20   C8    1.254962 A    
C35   C59   1.475221 S    
C24   N30   1.431743 S    
C63   C87   1.402902 A    
N29   O35   1.301379 A    
C77   C95   1.408162 A    
C79   H31   1.083020 S    
C41   C47   1.391708 A    
C71   N35   1.434320 S    
C65   H23   1.083746 S    
N33   O43   1.301565 A    
O21   C9    1.251499 A    
C41   H17   1.082952 S    
N4    N10   1.329109 A    
O16   C11   1.246469 A    
O15   C7    1.273178 A    
N11   C59   1.356269 A    
C40   C46   1.388360 A    
C23   N29   1.437492 S    
O10   Cr4   1.976555 S    
C64   C88   1.402427 A    
C82   H34   1.082980 S    
N34   O46   1.301511 A    
C65   C71   1.396742 A    
N16   N22   1.329429 A    
O8    Cr2   1.946166 S    
C78   C84   1.392413 A    
C66   H24   1.083360 S    
C12   C93   1.470646 S    
C45   H3    1.083387 S    
N1    N7    1.328821 A    
C24   C30   1.395576 A    
O17   C12   1.251169 A    
N2    N8    1.329144 A    
C78   C96   1.404639 A    
O9    Cr3   1.974900 S    
O14   Cr2   2.063635 S    
C48   H6    1.082503 S    
C15   C45   1.405700 A    
N25   O28   1.301051 A    
C17   C23   1.417045 A    
C36   C42   1.398691 A    
O13   Cr1   2.090923 S    
O19   Cr1   1.940474 S    
C73   C79   1.389307 A    
C10   C92   1.484859 S    
C72   C96   1.416333 A    
C83   C89   1.400238 A    
C19   C25   1.400611 A    
O21   Cr3   1.952987 S    
C18   C48   1.407325 A    
C3    C13   1.476478 S    
N15   N21   1.328844 A    
O12   Cr6   1.973457 S    
C43   H1    1.083302 S    
N22   C52   1.356774 A    
N28   O33   1.301407 A    
C23   C29   1.403348 A    
C20   C26   1.403157 A    
N17   C59   1.359267 A    
C74   H26   1.082978 S    
N13   N19   1.329924 A    
C26   H8    1.083204 S    
O3    C1    1.242197 A    
C37   C43   1.389428 A    
O1    Cr1   2.055099 S    
N3    N9    1.328364 A    
C46   H4    1.083294 S    
C71   C95   1.421924 A    
C66   C90   1.402460 A    
C81   C87   1.398994 A    
C16   C22   1.417295 A    
C30   C36   1.400622 A    
C28   C34   1.402472 A    
C66   C72   1.400090 A    
C61   H19   1.083142 S    
N29   O36   1.301460 A    
N16   C58   1.356885 A    
C34   C58   1.468689 S    
Cr6   O26   1.961677 S    
C78   H30   1.082491 S    
N6    C54   1.356156 A    
C83   H35   1.083224 S    
O13   C8    1.249580 A    
N15   C57   1.356682 A    
O8    C2    1.250112 A    
C20   N26   1.437330 S    
N9    C57   1.356170 A    
C13   C19   1.417530 A    
C81   H33   1.083109 S    
N33   O44   1.301468 A    
C14   C20   1.417246 A    
C39   C45   1.386831 A    
C53   C89   1.471384 S    
N17   N23   1.332132 A    
C73   C91   1.405831 A    
C79   C85   1.399561 A    
C74   C92   1.408397 A    
N31   O39   1.301511 A    
C84   H36   1.083013 S    
C36   C60   1.466588 S    
C22   C28   1.401052 A    
N34   O45   1.301454 A    
C32   C38   1.401439 A    
N35   O47   1.301208 A    
O3    Cr3   2.072876 S    
C75   H27   1.082481 S    
C31   C37   1.399604 A    
Cr3   O25   1.951624 S    
O5    C6    1.248687 A    
N12   C60   1.355566 A    
C68   C92   1.422179 A    
N5    N11   1.328996 A    
C73   H25   1.083413 S    
C33   C39   1.398876 A    
O18   C10   1.273690 A    
C69   N33   1.438512 S    
C13   C43   1.406178 A    
C70   N34   1.438147 S    
C44   H2    1.083497 S    
Cr1   O25   1.962645 S    
C61   C85   1.402730 A    
N27   O32   1.301462 A    
O22   Cr4   1.949228 S    
O4    Cr4   2.064235 S    
C40   H16   1.083008 S    
C37   H13   1.082980 S    
C5    C18   1.477691 S    
N35   O48   1.301396 A    
C7    C95   1.483490 S    
N14   N20   1.332675 A    
O2    Cr2   2.081140 S    
N18   C60   1.357403 A    
O15   Cr3   2.090500 S    
C62   H20   1.083727 S    
C32   C56   1.477347 S    
O16   Cr4   2.094473 S    
C80   H32   1.083224 S    
O7    Cr1   1.973560 S    
C21   C27   1.400216 A    
C67   N31   1.438218 S    
C62   C68   1.397251 A    
C31   C55   1.469622 S    
N36   O50   1.301404 A    
O2    C3    1.245425 A    
C22   N28   1.437335 S    
C64   C70   1.400803 A    
C80   C86   1.400536 A    
C76   H28   1.083370 S    
N21   C51   1.356465 A    
C28   H10   1.083214 S    
O4    C5    1.274367 A    
C63   C69   1.400222 A    
C77   H29   1.082948 S    
C33   C57   1.466069 S    
C52   C88   1.468862 S    
N30   O38   1.300241 A    
C77   C83   1.396601 A    
N32   O42   1.301382 A    
C26   C32   1.404333 A    
C76   C94   1.405077 A    
Cr5   O26   1.971542 S    
C65   C89   1.399799 A    
C75   C93   1.404973 A    
C4    C17   1.477156 S    
O14   C9    1.246719 A    
C25   C31   1.402356 A    
C84   C90   1.400903 A    
C42   C48   1.393912 A    
C27   C33   1.402355 A    
N5    C53   1.356878 A    
C38   H14   1.082878 S    
C6    C16   1.475361 S    
O5    Cr5   2.079184 S    
O11   C5    1.285849 A    
C50   C86   1.472819 S    
N7    C55   1.356537 A    
C27   H9    1.083289 S    
O23   Cr5   1.960869 S    
C42   H18   1.083411 S    
N20   C50   1.357585 A    
C74   C80   1.397511 A    
C19   N25   1.436763 S    
C62   C86   1.399920 A    
C9    C96   1.473623 S    
C14   C44   1.406020 A    
C64   H22   1.083188 S    
C72   N36   1.437371 S    
C1    C14   1.479060 S    
C16   C46   1.405945 A    
C29   C35   1.404294 A    
O23   C11   1.250948 A    
N3    C51   1.356169 A    
O17   Cr5   2.060127 S    
O24   C12   1.254288 A    
N23   C53   1.357243 A    
O20   Cr2   1.961772 S    
N26   O29   1.301384 A    
C49   C85   1.469167 S    
C61   C67   1.400781 A    
Cr2   O25   1.971017 S    
C29   H11   1.083197 S    
O10   C4    1.246373 A    
C15   C21   1.416731 A    
C51   C87   1.466146 S    
C30   H12   1.083917 S    
C70   C94   1.416790 A    
C39   H15   1.083037 S    
N4    C52   1.356737 A    
C68   N32   1.434475 S    
C82   C88   1.399881 A    
C38   C44   1.393513 A    
N10   C58   1.356520 A    
N14   C56   1.359538 A    
C25   H7    1.083282 S    
C35   C41   1.400610 A    
O11   Cr5   1.944591 S    
C11   C91   1.473557 S    
C18   C24   1.418849 A    
O22   C10   1.287214 A    
O9    C3    1.249794 A    
N25   O27   1.301412 A    
C69   C93   1.415549 A    
N19   C49   1.357061 A    
N6    N12   1.327986 A    
C47   H5    1.080240 S    
O18   Cr6   2.090406 S    
N2    C50   1.356899 A    
O6    C4    1.241888 A    
N27   O31   1.301414 A    
C34   C40   1.399159 A    
Cr4   O26   1.952063 S    
C67   C91   1.416460 A    
C8    C94   1.473061 S    
N30   O37   1.300695 A    
N32   O41   1.301177 A    
O6    Cr6   2.065747 S    
O12   C6    1.252649 A    
N1    C49   1.356403 A    
N31   O40   1.301455 A    
N8    C56   1.356553 A    
N13   C55   1.357198 A    
O24   Cr6   1.945164 S    
N28   O34   1.301502 A    
O1    C2    1.247549 A    
C2    C15   1.473143 S    
C54   C90   1.470914 S    
C76   C82   1.388934 A    
N36   O49   1.301104 A    
N18   N24   1.331896 A    
C63   H21   1.083120 S    
C17   C47   1.404027 A    
N26   O30   1.301454 A    
C75   C81   1.386870 A    
C21   N27   1.437324 S    
