data_mof_unit_18660.cif
_audit_creation_date              2012-12-11T16:15:55-0500
_audit_creation_method            fapswitch 2.2
_symmetry_space_group_name_H-M    P1
_symmetry_Int_Tables_number       1
_space_group_crystal_system       triclinic
_cell_length_a                    30.030061
_cell_length_b                    30.062183
_cell_length_c                    32.345385
_cell_angle_alpha                 90.148466
_cell_angle_beta                  89.901859
_cell_angle_gamma                 90.201728
_cell_volume                      29200.095594

loop_
_atom_site_label
_atom_site_type_symbol
_atom_type_description
_atom_site_fract_x
_atom_site_fract_y
_atom_site_fract_z
_atom_type_partial_charge
C1    C     C_R   0.939960 0.111978 0.056856 -0.156312
C2    C     C_R   0.045716 0.901550 0.924162 -0.127227
C3    C     C_R   0.099243 0.046670 0.075267 -0.145859
C4    C     C_R   0.887805 0.940204 0.943720 -0.135777
C5    C     C_R   0.059605 0.887997 0.056403 -0.152617
C6    C     C_R   0.954219 0.098694 0.924527 -0.118927
C7    C     C_R   0.901641 0.954130 0.076029 -0.145198
C8    C     C_R   0.111848 0.059545 0.942600 -0.143414
C9    C     C_R   0.939640 0.887922 0.943411 -0.156902
C10   C     C_R   0.046115 0.098522 0.075847 -0.123204
C11   C     C_R   0.098828 0.953675 0.924336 -0.135137
C12   C     C_R   0.887855 0.059665 0.056434 -0.137337
C13   C     C_R   0.059631 0.111519 0.941983 -0.156748
C14   C     C_R   0.954384 0.901986 0.075990 -0.116951
C15   C     C_R   0.901597 0.046114 0.924072 -0.142940
C16   C     C_R   0.111945 0.940123 0.056827 -0.148116
C17   C     C_R   0.440527 0.611570 0.558002 -0.157041
C18   C     C_R   0.546105 0.401191 0.424400 -0.120617
C19   C     C_R   0.598581 0.546518 0.575811 -0.143950
C20   C     C_R   0.387949 0.440139 0.443315 -0.147444
C21   C     C_R   0.560031 0.388044 0.556631 -0.156865
C22   C     C_R   0.454099 0.598435 0.424204 -0.131178
C23   C     C_R   0.400734 0.453386 0.575333 -0.142612
C24   C     C_R   0.612148 0.559779 0.443438 -0.136757
C25   C     C_R   0.440037 0.388111 0.442708 -0.155084
C26   C     C_R   0.545942 0.598797 0.575559 -0.124470
C27   C     C_R   0.599170 0.453370 0.424553 -0.140422
C28   C     C_R   0.388188 0.559408 0.557408 -0.141405
C29   C     C_R   0.560190 0.611944 0.443197 -0.150188
C30   C     C_R   0.453880 0.401558 0.575735 -0.119829
C31   C     C_R   0.401780 0.545506 0.424121 -0.132341
C32   C     C_R   0.612115 0.440407 0.556335 -0.136068
C33   C     C_R   0.149835 0.107522 0.192486 -0.153689
C34   C     C_R   0.835564 0.797651 0.888170 -0.171250
C35   C     C_R   0.162589 0.786153 0.069187 -0.121498
C36   C     C_R   0.854560 0.103701 0.804316 -0.141007
C37   C     C_R   0.855354 0.897101 0.196498 -0.175880
C38   C     C_R   0.209850 0.168511 0.929187 -0.168180
C39   C     C_R   0.837441 0.202400 0.113043 -0.164870
C40   C     C_R   0.147445 0.895110 0.805533 -0.140688
C41   C     C_R   0.646130 0.606966 0.694910 -0.155244
C42   C     C_R   0.338060 0.298605 0.383520 -0.169283
C43   C     C_R   0.661775 0.297303 0.612258 -0.164399
C44   C     C_R   0.373948 0.571139 0.293162 -0.136305
C45   C     C_R   0.350376 0.392803 0.692539 -0.142127
C46   C     C_R   0.714818 0.662965 0.426405 -0.164206
C47   C     C_R   0.289985 0.667146 0.571417 -0.171066
C48   C     C_R   0.648779 0.393009 0.306480 -0.141184
C49   C     C_R   0.138227 0.093689 0.152818 -0.189155
C50   C     C_R   0.869579 0.827282 0.898417 -0.176056
C51   C     C_R   0.132892 0.819493 0.058295 -0.176227
C52   C     C_R   0.865796 0.087202 0.843110 -0.186822
C53   C     C_R   0.865835 0.912208 0.157046 -0.177302
C54   C     C_R   0.177724 0.137419 0.940437 -0.170301
C55   C     C_R   0.870953 0.172515 0.102474 -0.176332
C56   C     C_R   0.136178 0.910001 0.844936 -0.184442
C57   C     C_R   0.635223 0.590679 0.655829 -0.184591
C58   C     C_R   0.371181 0.329066 0.394191 -0.179808
C59   C     C_R   0.628330 0.326980 0.601248 -0.174412
C60   C     C_R   0.390168 0.559176 0.331825 -0.177867
C61   C     C_R   0.361968 0.406961 0.653038 -0.182954
C62   C     C_R   0.682037 0.632516 0.437709 -0.169946
C63   C     C_R   0.322163 0.636386 0.559986 -0.168644
C64   C     C_R   0.637351 0.408182 0.345804 -0.180492
C65   C     C_R   0.093440 0.092829 0.140945 0.075630
C66   C     C_R   0.861070 0.862692 0.925373 0.104729
C67   C     C_R   0.136922 0.862205 0.075626 0.074032
C68   C     C_R   0.908972 0.093293 0.858429 0.078194
C69   C     C_R   0.909539 0.909057 0.142449 0.103218
C70   C     C_R   0.136594 0.136458 0.920138 0.103971
C71   C     C_R   0.861721 0.137065 0.075704 0.096516
C72   C     C_R   0.091955 0.907522 0.858437 0.072625
C73   C     C_R   0.591398 0.593781 0.641457 0.085860
C74   C     C_R   0.362175 0.362726 0.422899 0.103404
C75   C     C_R   0.638178 0.363028 0.575467 0.094677
C76   C     C_R   0.407521 0.591726 0.358572 0.078887
C77   C     C_R   0.406687 0.407349 0.640885 0.073477
C78   C     C_R   0.638250 0.637419 0.423376 0.095069
C79   C     C_R   0.363604 0.636353 0.579734 0.103573
C80   C     C_R   0.592954 0.406400 0.358975 0.075439
C81   C     C_R   0.060177 0.102652 0.170049 -0.329129
C82   C     C_R   0.819029 0.866476 0.944135 -0.384414
C83   C     C_R   0.172354 0.871863 0.102271 -0.335757
C84   C     C_R   0.941644 0.112863 0.833102 -0.325647
C85   C     C_R   0.943347 0.894428 0.169038 -0.376130
C86   C     C_R   0.127367 0.167462 0.889184 -0.393325
C87   C     C_R   0.819388 0.133376 0.057615 -0.373314
C88   C     C_R   0.058606 0.893310 0.831000 -0.323093
C89   C     C_R   0.558006 0.610206 0.667810 -0.342007
C90   C     C_R   0.320501 0.364149 0.442614 -0.381731
C91   C     C_R   0.681094 0.367401 0.558608 -0.366826
C92   C     C_R   0.411333 0.635814 0.345108 -0.307821
C93   C     C_R   0.439968 0.396655 0.669565 -0.326833
C94   C     C_R   0.627255 0.674516 0.399370 -0.365528
C95   C     C_R   0.373158 0.668111 0.610154 -0.395612
C96   C     C_R   0.559692 0.392463 0.331324 -0.323895
C97   C     C_R   0.071517 0.114065 0.210636 0.641018
C98   C     C_R   0.784248 0.837096 0.933541 0.619147
C99   C     C_R   0.201519 0.838182 0.114208 0.598376
C100  C     C_R   0.931024 0.128190 0.793673 0.634303
C101  C     C_R   0.933497 0.880997 0.209822 0.632334
C102  C     C_R   0.159627 0.199295 0.877474 0.620262
C103  C     C_R   0.785161 0.162932 0.068589 0.623360
C104  C     C_R   0.069367 0.880269 0.790737 0.637896
C105  C     C_R   0.568532 0.625232 0.707540 0.613345
C106  C     C_R   0.286728 0.333631 0.431900 0.614922
C107  C     C_R   0.715140 0.338084 0.570097 0.618743
C108  C     C_R   0.395091 0.648067 0.306392 0.562535
C109  C     C_R   0.428707 0.384721 0.709991 0.639919
C110  C     C_R   0.660094 0.705677 0.388115 0.602531
C111  C     C_R   0.340822 0.699649 0.622062 0.619924
C112  C     C_R   0.570671 0.379263 0.291147 0.639085
C113  C     C_R   0.116786 0.119200 0.221196 0.027890
C114  C     C_R   0.792772 0.802895 0.904921 0.107927
C115  C     C_R   0.196314 0.794984 0.097788 0.057866
C116  C     C_R   0.886480 0.125788 0.780072 0.025477
C117  C     C_R   0.888545 0.879725 0.222265 0.080548
C118  C     C_R   0.201430 0.198700 0.897280 0.100675
C119  C     C_R   0.794422 0.197394 0.096786 0.098417
C120  C     C_R   0.114535 0.878662 0.778738 0.019245
C121  C     C_R   0.613240 0.625670 0.720412 0.049321
C122  C     C_R   0.295720 0.301066 0.401757 0.106939
C123  C     C_R   0.705303 0.303200 0.597457 0.101010
C124  C     C_R   0.374700 0.615725 0.280942 0.065689
C125  C     C_R   0.383389 0.380222 0.720805 0.021111
C126  C     C_R   0.704503 0.698680 0.400455 0.089902
C127  C     C_R   0.298685 0.697947 0.602924 0.103486
C128  C     C_R   0.615856 0.377070 0.279441 0.022700
C129  C     C_R   0.895922 0.103524 0.066965 0.093637
C130  C     C_R   0.080545 0.919228 0.901191 0.085029
C131  C     C_R   0.081336 0.081187 0.098381 0.082950
C132  C     C_R   0.895614 0.896282 0.933472 0.091282
C133  C     C_R   0.103423 0.896190 0.066870 0.096726
C134  C     C_R   0.919906 0.080785 0.901129 0.086802
C135  C     C_R   0.920023 0.920021 0.099268 0.082699
C136  C     C_R   0.103233 0.102831 0.930912 0.091313
C137  C     C_R   0.396890 0.602810 0.569040 0.092939
C138  C     C_R   0.581165 0.418634 0.401554 0.084982
C139  C     C_R   0.580395 0.581216 0.598756 0.084696
C140  C     C_R   0.396169 0.396473 0.432300 0.089509
C141  C     C_R   0.604053 0.396527 0.566652 0.094199
C142  C     C_R   0.419776 0.580006 0.401027 0.085304
C143  C     C_R   0.418701 0.418978 0.598360 0.084269
C144  C     C_R   0.604208 0.603633 0.432964 0.096913
C145  C     C_R   0.727490 0.798514 0.861893 0.527716
C146  C     C_R   0.156205 0.121910 0.286582 0.477103
C147  C     C_R   0.851031 0.130446 0.712848 0.475924
C148  C     C_R   0.198604 0.735909 0.147145 0.467417
C149  C     C_R   0.271104 0.206394 0.860797 0.518267
C150  C     C_R   0.852320 0.874824 0.289265 0.504701
C151  C     C_R   0.153454 0.875200 0.713088 0.475179
C152  C     C_R   0.728383 0.203263 0.138876 0.525203
C153  C     C_R   0.228124 0.293638 0.362050 0.528225
C154  C     C_R   0.648756 0.629062 0.787678 0.486890
C155  C     C_R   0.365557 0.642671 0.210925 0.502670
C156  C     C_R   0.767880 0.299187 0.643568 0.516300
C157  C     C_R   0.768650 0.704148 0.355754 0.517097
C158  C     C_R   0.342916 0.377907 0.785627 0.474388
C159  C     C_R   0.653620 0.373837 0.213097 0.477661
C160  C     C_R   0.230462 0.704076 0.641705 0.519469
C161  C     C_R   0.754759 0.732554 0.893977 0.535375
C162  C     C_R   0.121229 0.187222 0.260388 0.564043
C163  C     C_R   0.874098 0.196791 0.747666 0.563451
C164  C     C_R   0.263193 0.751226 0.106406 0.573945
C165  C     C_R   0.234494 0.271340 0.886333 0.560383
C166  C     C_R   0.878704 0.809059 0.255828 0.573570
C167  C     C_R   0.121550 0.809278 0.741870 0.562952
C168  C     C_R   0.758679 0.268696 0.107768 0.535420
C169  C     C_R   0.261978 0.228675 0.390202 0.533876
C170  C     C_R   0.622119 0.695591 0.756140 0.569343
C171  C     C_R   0.302430 0.634309 0.255198 0.553698
C172  C     C_R   0.744168 0.233574 0.607955 0.539829
C173  C     C_R   0.743169 0.769132 0.391072 0.550234
C174  C     C_R   0.379120 0.312598 0.760451 0.563963
C175  C     C_R   0.622623 0.307767 0.242424 0.565940
C176  C     C_R   0.263588 0.769557 0.613192 0.558870
C177  C     C_R   0.724421 0.706350 0.871560 -0.086931
C178  C     C_R   0.142742 0.213656 0.289919 -0.101513
C179  C     C_R   0.853023 0.223089 0.718089 -0.104219
C180  C     C_R   0.288340 0.721256 0.129846 -0.088967
C181  C     C_R   0.265169 0.298876 0.865908 -0.083195
C182  C     C_R   0.856362 0.782233 0.284414 -0.104866
C183  C     C_R   0.143382 0.782906 0.712601 -0.102552
C184  C     C_R   0.728681 0.295531 0.129808 -0.085868
C185  C     C_R   0.231989 0.201210 0.368683 -0.086406
C186  C     C_R   0.642916 0.721666 0.786337 -0.104673
C187  C     C_R   0.275285 0.656266 0.226889 -0.084161
C188  C     C_R   0.774492 0.207697 0.630370 -0.086056
C189  C     C_R   0.773785 0.795716 0.369383 -0.075602
C190  C     C_R   0.357444 0.286425 0.789998 -0.102524
C191  C     C_R   0.643508 0.281525 0.212441 -0.104158
C192  C     C_R   0.232458 0.796474 0.633623 -0.082587
C193  C     C_R   0.695721 0.727086 0.843207 -0.053239
C194  C     C_R   0.172967 0.193732 0.317361 -0.054606
C195  C     C_R   0.828455 0.202354 0.686400 -0.056070
C196  C     C_R   0.268515 0.700844 0.164498 -0.057059
C197  C     C_R   0.298802 0.279286 0.841655 -0.051649
C198  C     C_R   0.829913 0.802361 0.315093 -0.053285
C199  C     C_R   0.172801 0.803174 0.684432 -0.054338
C200  C     C_R   0.698240 0.275305 0.157108 -0.052844
C201  C     C_R   0.199805 0.220852 0.343008 -0.054490
C202  C     C_R   0.669092 0.700840 0.816639 -0.054244
C203  C     C_R   0.294607 0.674357 0.190952 -0.053569
C204  C     C_R   0.801636 0.228475 0.660212 -0.053225
C205  C     C_R   0.802213 0.775606 0.340229 -0.050266
C206  C     C_R   0.326137 0.306364 0.816534 -0.053322
C207  C     C_R   0.671697 0.301969 0.183300 -0.054475
C208  C     C_R   0.200476 0.776357 0.659451 -0.051726
C209  C     C_R   0.695526 0.773925 0.839668 -0.228879
C210  C     C_R   0.178235 0.147016 0.317417 -0.213524
C211  C     C_R   0.828646 0.155506 0.682454 -0.210152
C212  C     C_R   0.223022 0.708190 0.173539 -0.214578
C213  C     C_R   0.303447 0.232521 0.840616 -0.226445
C214  C     C_R   0.829261 0.849211 0.319063 -0.222660
C215  C     C_R   0.176517 0.850037 0.683056 -0.213298
C216  C     C_R   0.696197 0.228465 0.160065 -0.226904
C217  C     C_R   0.196201 0.267655 0.341107 -0.227445
C218  C     C_R   0.670678 0.653902 0.818757 -0.215634
C219  C     C_R   0.340220 0.667115 0.182220 -0.200629
C220  C     C_R   0.800105 0.275113 0.665528 -0.223203
C221  C     C_R   0.801383 0.728957 0.334715 -0.228693
C222  C     C_R   0.320242 0.352988 0.816074 -0.215080
C223  C     C_R   0.675356 0.348842 0.182052 -0.213654
C224  C     C_R   0.197859 0.729489 0.662138 -0.226624
C225  C     C_R   0.723544 0.659910 0.875577 -0.274486
C226  C     C_R   0.136695 0.259860 0.290713 -0.267891
C227  C     C_R   0.854173 0.269598 0.720960 -0.270338
C228  C     C_R   0.333196 0.713035 0.120605 -0.278298
C229  C     C_R   0.261794 0.345348 0.867852 -0.280107
C230  C     C_R   0.857969 0.735769 0.281315 -0.266979
C231  C     C_R   0.138456 0.736537 0.712753 -0.268540
C232  C     C_R   0.729721 0.342030 0.126408 -0.274938
C233  C     C_R   0.234669 0.154708 0.371015 -0.276551
C234  C     C_R   0.640092 0.768173 0.785278 -0.270604
C235  C     C_R   0.230032 0.662968 0.235314 -0.274491
C236  C     C_R   0.776984 0.161497 0.624735 -0.276527
C237  C     C_R   0.775489 0.841951 0.375202 -0.283740
C238  C     C_R   0.364393 0.240391 0.791650 -0.268141
C239  C     C_R   0.638716 0.235129 0.212604 -0.266703
C240  C     C_R   0.233760 0.842940 0.630066 -0.281672
C241  C     C_R   0.207337 0.127496 0.346644 0.599800
C242  C     C_R   0.665070 0.794385 0.812321 0.605552
C243  C     C_R   0.204075 0.689517 0.209695 0.607957
C244  C     C_R   0.804627 0.135431 0.649574 0.598428
C245  C     C_R   0.803625 0.868684 0.351177 0.599617
C246  C     C_R   0.338800 0.213498 0.817601 0.604136
C247  C     C_R   0.663663 0.208549 0.185902 0.605779
C248  C     C_R   0.205186 0.869786 0.653393 0.601127
C249  C     C_R   0.696086 0.633657 0.850433 0.598011
C250  C     C_R   0.162305 0.286855 0.316590 0.603333
C251  C     C_R   0.829227 0.295791 0.694180 0.607030
C252  C     C_R   0.359326 0.686532 0.146495 0.595056
C253  C     C_R   0.289860 0.372557 0.844303 0.601356
C254  C     C_R   0.831891 0.708979 0.306903 0.606143
C255  C     C_R   0.164219 0.709791 0.686877 0.603792
C256  C     C_R   0.702551 0.368758 0.151302 0.599294
H1    H     H_    0.744990 0.643502 0.897652 0.192657
H2    H     H_    0.112877 0.275581 0.270365 0.191737
H3    H     H_    0.873956 0.286057 0.744481 0.193633
H4    H     H_    0.348645 0.727968 0.093702 0.184791
H5    H     H_    0.236706 0.360954 0.887081 0.192774
H6    H     H_    0.878878 0.719795 0.258377 0.194379
H7    H     H_    0.115167 0.720539 0.733627 0.193664
H8    H     H_    0.752446 0.358083 0.105050 0.193242
H9    H     H_    0.258736 0.139064 0.391161 0.193021
H10   H     H_    0.619189 0.784643 0.762789 0.190590
H11   H     H_    0.214825 0.649035 0.262791 0.188008
H12   H     H_    0.756652 0.145090 0.601603 0.191774
H13   H     H_    0.754109 0.857871 0.397784 0.188733
H14   H     H_    0.389114 0.224702 0.772069 0.193882
H15   H     H_    0.616182 0.218985 0.234086 0.194867
H16   H     H_    0.257618 0.858872 0.609712 0.191619
N1    N     N_R   0.957630 0.074620 0.040900 -0.040124
N2    N     N_R   0.042370 0.925380 0.959100 -0.042000
N3    N     N_R   0.074620 0.042370 0.040900 -0.040619
N4    N     N_R   0.925380 0.957630 0.959100 -0.040039
N5    N     N_R   0.042370 0.925380 0.040900 -0.040922
N6    N     N_R   0.957630 0.074620 0.959100 -0.041033
N7    N     N_R   0.925380 0.957630 0.040900 -0.040590
N8    N     N_R   0.074620 0.042370 0.959100 -0.040054
N9    N     N_R   0.957630 0.925380 0.959100 -0.039832
N10   N     N_R   0.042370 0.074620 0.040900 -0.041787
N11   N     N_R   0.074620 0.957630 0.959100 -0.040522
N12   N     N_R   0.925380 0.042370 0.040900 -0.040167
N13   N     N_R   0.042370 0.074620 0.959100 -0.039588
N14   N     N_R   0.957630 0.925380 0.040900 -0.041626
N15   N     N_R   0.925380 0.042370 0.959100 -0.040981
N16   N     N_R   0.074620 0.957630 0.040900 -0.039404
N17   N     N_R   0.457630 0.574620 0.540900 -0.039158
N18   N     N_R   0.542370 0.425380 0.459100 -0.041410
N19   N     N_R   0.574620 0.542370 0.540900 -0.041210
N20   N     N_R   0.425380 0.457630 0.459100 -0.039977
N21   N     N_R   0.542370 0.425380 0.540900 -0.040207
N22   N     N_R   0.457630 0.574620 0.459100 -0.039902
N23   N     N_R   0.425380 0.457630 0.540900 -0.040718
N24   N     N_R   0.574620 0.542370 0.459100 -0.040315
N25   N     N_R   0.457630 0.425380 0.459100 -0.039838
N26   N     N_R   0.542370 0.574620 0.540900 -0.041487
N27   N     N_R   0.574620 0.457630 0.459100 -0.041283
N28   N     N_R   0.425380 0.542370 0.540900 -0.039770
N29   N     N_R   0.542370 0.574620 0.459100 -0.038665
N30   N     N_R   0.457630 0.425380 0.540900 -0.041326
N31   N     N_R   0.425380 0.542370 0.459100 -0.042458
N32   N     N_R   0.574620 0.457630 0.540900 -0.040144
N33   N     N_R   0.756622 0.777503 0.887811 -0.170977
N34   N     N_R   0.129713 0.142584 0.258110 -0.175389
N35   N     N_R   0.871829 0.151374 0.745203 -0.177659
N36   N     N_R   0.219636 0.758731 0.116235 -0.176400
N37   N     N_R   0.237027 0.226152 0.882099 -0.173316
N38   N     N_R   0.875022 0.854381 0.257786 -0.170860
N39   N     N_R   0.128181 0.854348 0.742589 -0.177481
N40   N     N_R   0.758869 0.223654 0.113643 -0.170738
N41   N     N_R   0.260359 0.273850 0.385539 -0.170929
N42   N     N_R   0.626590 0.650293 0.756494 -0.173673
N43   N     N_R   0.346914 0.629638 0.247523 -0.170271
N44   N     N_R   0.740711 0.278153 0.615695 -0.171132
N45   N     N_R   0.739994 0.724597 0.382711 -0.171502
N46   N     N_R   0.370175 0.357105 0.757690 -0.176808
N47   N     N_R   0.629250 0.352835 0.243153 -0.177059
N48   N     N_R   0.262910 0.724500 0.618752 -0.173197
Ni1   Ni    Ni4+2 0.000000 0.073960 0.000000 0.219205
Ni2   Ni    Ni4+2 0.000000 0.926040 0.000000 0.217542
Ni3   Ni    Ni4+2 0.073960 0.000000 0.000000 0.213741
Ni4   Ni    Ni4+2 0.926040 0.000000 0.000000 0.209778
Ni5   Ni    Ni4+2 0.500000 0.573960 0.500000 0.215634
Ni6   Ni    Ni4+2 0.500000 0.426040 0.500000 0.221777
Ni7   Ni    Ni4+2 0.573960 0.500000 0.500000 0.210683
Ni8   Ni    Ni4+2 0.426040 0.500000 0.500000 0.210771
O1    O     O_2   0.731088 0.842818 0.856189 -0.545148
O2    O     O_2   0.162419 0.077599 0.283844 -0.538016
O3    O     O_2   0.850993 0.085629 0.711046 -0.533215
O4    O     O_2   0.154427 0.741329 0.152817 -0.534118
O5    O     O_2   0.272334 0.161649 0.857727 -0.520356
O6    O     O_2   0.850851 0.919626 0.290595 -0.525530
O7    O     O_2   0.157484 0.919881 0.714066 -0.531511
O8    O     O_2   0.730815 0.158962 0.144995 -0.549391
O9    O     O_2   0.228454 0.338214 0.357446 -0.546673
O10   O     O_2   0.650725 0.584258 0.787569 -0.531409
O11   O     O_2   0.408506 0.632783 0.203086 -0.547616
O12   O     O_2   0.762101 0.342913 0.651322 -0.550573
O13   O     O_2   0.764152 0.660199 0.348204 -0.517721
O14   O     O_2   0.336519 0.422159 0.782621 -0.531709
O15   O     O_2   0.657937 0.418481 0.214335 -0.528539
O16   O     O_2   0.231117 0.659457 0.646049 -0.520694
O17   O     O_2   0.782967 0.713250 0.920883 -0.543080
O18   O     O_2   0.093849 0.206417 0.232645 -0.532673
O19   O     O_2   0.894958 0.216530 0.779831 -0.532274
O20   O     O_2   0.282172 0.773348 0.074667 -0.543659
O21   O     O_2   0.201686 0.289472 0.909344 -0.564446
O22   O     O_2   0.902119 0.789886 0.224922 -0.534487
O23   O     O_2   0.095757 0.789706 0.770863 -0.527853
O24   O     O_2   0.788204 0.287462 0.081541 -0.544441
O25   O     O_2   0.293227 0.210429 0.414752 -0.544562
O26   O     O_2   0.599401 0.715559 0.725392 -0.537728
O27   O     O_2   0.284887 0.619059 0.290951 -0.555246
O28   O     O_2   0.717626 0.214296 0.579409 -0.544247
O29   O     O_2   0.716311 0.787661 0.419761 -0.584446
O30   O     O_2   0.407083 0.293223 0.733148 -0.528111
O31   O     O_2   0.597657 0.288093 0.271975 -0.528833
O32   O     O_2   0.294961 0.788206 0.588792 -0.564687
H17   H     H_    0.955002 0.144599 0.054214 0.108770
H18   H     H_    0.023718 0.874802 0.915075 0.109587
H19   H     H_    0.126077 0.024982 0.084313 0.104606
H20   H     H_    0.855533 0.955844 0.946262 0.091701
H21   H     H_    0.043910 0.855672 0.053947 0.102735
H22   H     H_    0.975766 0.125982 0.916083 0.103114
H23   H     H_    0.875280 0.976217 0.085565 0.105366
H24   H     H_    0.144368 0.044395 0.944813 0.099329
H25   H     H_    0.954415 0.855306 0.946226 0.108684
H26   H     H_    0.024244 0.125122 0.085266 0.110761
H27   H     H_    0.125600 0.975520 0.915045 0.107075
H28   H     H_    0.855502 0.043972 0.053953 0.093010
H29   H     H_    0.044775 0.144172 0.944123 0.107115
H30   H     H_    0.976249 0.875353 0.085066 0.109023
H31   H     H_    0.875095 0.024039 0.914554 0.103923
H32   H     H_    0.144600 0.955160 0.054183 0.103940
H33   H     H_    0.455534 0.644248 0.555854 0.104143
H34   H     H_    0.524326 0.374237 0.415401 0.108803
H35   H     H_    0.625118 0.524697 0.585289 0.105208
H36   H     H_    0.355513 0.455448 0.445824 0.096325
H37   H     H_    0.544979 0.355425 0.553914 0.109103
H38   H     H_    0.476111 0.625085 0.414960 0.099562
H39   H     H_    0.373812 0.474983 0.584491 0.107942
H40   H     H_    0.644381 0.544068 0.445603 0.092468
H41   H     H_    0.454931 0.355515 0.445139 0.110639
H42   H     H_    0.524420 0.625914 0.584282 0.104346
H43   H     H_    0.626042 0.475142 0.415338 0.107551
H44   H     H_    0.355654 0.544047 0.555201 0.096599
H45   H     H_    0.545201 0.644501 0.445810 0.097842
H46   H     H_    0.475740 0.374969 0.585005 0.110312
H47   H     H_    0.374825 0.523715 0.415176 0.105752
H48   H     H_    0.644425 0.456205 0.553975 0.092591
O33   O     O_3   0.212479 0.081889 0.349451 -0.620915
C257  C     C_3   0.179193 0.064028 0.375765 0.267792
H49   H     H_    0.172233 0.029537 0.365107 0.152166
H50   H     H_    0.146849 0.082190 0.374087 0.064178
C258  C     C_3   0.195714 0.062183 0.420547 -0.370203
H51   H     H_    0.228283 0.044771 0.421588 0.230097
H52   H     H_    0.200386 0.096489 0.432641 0.203788
C259  C     C_3   0.162616 0.037793 0.448347 -0.974264
H53   H     H_    0.129874 0.054869 0.448046 0.265959
H54   H     H_    0.175323 0.037456 0.480565 0.279516
H55   H     H_    0.158225 0.002878 0.437742 0.265283
O34   O     O_3   0.661476 0.840131 0.809389 -0.619036
C260  C     C_3   0.632165 0.856001 0.840426 0.266854
H56   H     H_    0.645512 0.888353 0.851681 0.154679
H57   H     H_    0.629733 0.833879 0.868053 0.052193
C261  C     C_3   0.585751 0.863629 0.822375 -0.361036
H58   H     H_    0.588317 0.886020 0.795175 0.228773
H59   H     H_    0.571357 0.831383 0.812045 0.200850
C262  C     C_3   0.554674 0.884469 0.854328 -0.961696
H60   H     H_    0.551079 0.862248 0.881530 0.265450
H61   H     H_    0.521312 0.889553 0.840406 0.276827
H62   H     H_    0.567917 0.917211 0.864646 0.267573
O35   O     O_3   0.160471 0.697826 0.221233 -0.617234
C263  C     C_3   0.158424 0.737697 0.244758 0.257651
H63   H     H_    0.129993 0.757536 0.232996 0.157757
H64   H     H_    0.188586 0.759418 0.241975 0.046550
C264  C     C_3   0.149882 0.726974 0.290287 -0.336948
H65   H     H_    0.119344 0.706182 0.293036 0.224704
H66   H     H_    0.178408 0.707963 0.302918 0.206300
C265  C     C_3   0.143930 0.769360 0.315753 -0.980625
H67   H     H_    0.174628 0.790031 0.314405 0.273122
H68   H     H_    0.137290 0.760531 0.348503 0.277311
H69   H     H_    0.115383 0.788956 0.303908 0.264317
O36   O     O_3   0.804346 0.089846 0.643625 -0.618668
C266  C     C_3   0.840409 0.077537 0.617766 0.270984
H70   H     H_    0.851859 0.044223 0.627966 0.157333
H71   H     H_    0.869895 0.100162 0.620366 0.058400
C267  C     C_3   0.825226 0.074096 0.572657 -0.365705
H72   H     H_    0.795142 0.052547 0.570729 0.231456
H73   H     H_    0.816543 0.107658 0.560961 0.203576
C268  C     C_3   0.861672 0.054580 0.545193 -0.971865
H74   H     H_    0.891962 0.075865 0.546286 0.265497
H75   H     H_    0.849753 0.052830 0.512746 0.278917
H76   H     H_    0.870232 0.020442 0.555490 0.265994
O37   O     O_3   0.802439 0.914243 0.357173 -0.620452
C269  C     C_3   0.837482 0.927323 0.383891 0.273248
H77   H     H_    0.848670 0.960943 0.374049 0.158674
H78   H     H_    0.867412 0.905418 0.381921 0.063964
C270  C     C_3   0.820878 0.930237 0.428641 -0.370483
H79   H     H_    0.790439 0.951132 0.429939 0.231795
H80   H     H_    0.812320 0.896442 0.440016 0.201959
C271  C     C_3   0.856189 0.950405 0.457010 -0.970396
H81   H     H_    0.886785 0.929747 0.456582 0.265386
H82   H     H_    0.843250 0.951801 0.489169 0.278496
H83   H     H_    0.864608 0.984747 0.447006 0.266523
O38   O     O_3   0.346539 0.168156 0.817167 -0.616107
C272  C     C_3   0.373047 0.156482 0.851636 0.269613
H84   H     H_    0.364640 0.121594 0.859893 0.156541
H85   H     H_    0.365971 0.176930 0.879766 0.062908
C273  C     C_3   0.422673 0.158861 0.840657 -0.380597
H86   H     H_    0.429079 0.138741 0.812401 0.232443
H87   H     H_    0.432334 0.193881 0.834308 0.202384
C274  C     C_3   0.451425 0.141399 0.875874 -0.955519
H88   H     H_    0.445940 0.161441 0.904321 0.263464
H89   H     H_    0.487114 0.143791 0.867094 0.277076
H90   H     H_    0.443278 0.106008 0.882292 0.266563
O39   O     O_3   0.658009 0.162901 0.188012 -0.616665
C275  C     C_3   0.631398 0.148246 0.154472 0.259041
H91   H     H_    0.641048 0.113397 0.147396 0.145725
H92   H     H_    0.637106 0.167550 0.125469 0.067838
C276  C     C_3   0.581943 0.148911 0.166204 -0.370737
H93   H     H_    0.576782 0.129565 0.195067 0.230809
H94   H     H_    0.571166 0.183717 0.171829 0.202074
C277  C     C_3   0.553245 0.128961 0.131920 -0.963127
H95   H     H_    0.557461 0.148218 0.102899 0.264291
H96   H     H_    0.517658 0.130080 0.141226 0.277964
H97   H     H_    0.562616 0.093753 0.126245 0.265421
O40   O     O_3   0.208851 0.915454 0.649341 -0.618261
C278  C     C_3   0.175487 0.931058 0.622123 0.274696
H98   H     H_    0.167129 0.965549 0.631730 0.156255
H99   H     H_    0.143766 0.911610 0.623900 0.061013
C279  C     C_3   0.192798 0.932188 0.577518 -0.375267
H100  H     H_    0.224782 0.950873 0.576410 0.231759
H101  H     H_    0.198838 0.897739 0.566424 0.200683
C280  C     C_3   0.159452 0.954344 0.548652 -0.974067
H102  H     H_    0.127291 0.935978 0.549024 0.265188
H103  H     H_    0.172748 0.954183 0.516596 0.278099
H104  H     H_    0.153717 0.989373 0.558233 0.267507
O41   O     O_3   0.697856 0.587941 0.854855 -0.618374
C281  C     C_3   0.662434 0.573447 0.880545 0.272264
H105  H     H_    0.652575 0.539651 0.869915 0.157666
H106  H     H_    0.631937 0.594481 0.878159 0.063381
C282  C     C_3   0.677704 0.570430 0.925642 -0.372631
H107  H     H_    0.708682 0.550395 0.927366 0.232827
H108  H     H_    0.684915 0.604296 0.937742 0.204359
C283  C     C_3   0.642102 0.548925 0.952835 -0.962122
H109  H     H_    0.610922 0.568669 0.951908 0.266531
H110  H     H_    0.654028 0.547579 0.985286 0.278842
H111  H     H_    0.635051 0.514463 0.942168 0.265761
O42   O     O_3   0.155674 0.332335 0.315240 -0.618894
C284  C     C_3   0.127617 0.345398 0.348341 0.260738
H112  H     H_    0.140585 0.377454 0.360642 0.156514
H113  H     H_    0.127209 0.321617 0.374843 0.051062
C285  C     C_3   0.080119 0.352602 0.332766 -0.348042
H114  H     H_    0.080605 0.376638 0.306712 0.228810
H115  H     H_    0.066175 0.320566 0.321393 0.202907
C286  C     C_3   0.050148 0.370540 0.367076 -0.966543
H116  H     H_    0.048615 0.346643 0.393185 0.265293
H117  H     H_    0.015961 0.375399 0.354913 0.277782
H118  H     H_    0.062969 0.403019 0.378514 0.267617
O43   O     O_3   0.831410 0.341528 0.698771 -0.616195
C287  C     C_3   0.859635 0.359693 0.667940 0.261816
H119  H     H_    0.847856 0.393969 0.661466 0.146743
H120  H     H_    0.858113 0.341340 0.637897 0.061932
C288  C     C_3   0.907794 0.362313 0.683362 -0.369959
H121  H     H_    0.908803 0.380639 0.713237 0.230451
H122  H     H_    0.920825 0.328231 0.688443 0.199718
C289  C     C_3   0.937735 0.385980 0.652175 -0.967881
H123  H     H_    0.937669 0.367825 0.622215 0.264010
H124  H     H_    0.972368 0.387180 0.664106 0.277418
H125  H     H_    0.926080 0.420576 0.647166 0.266126
O44   O     O_3   0.403598 0.679870 0.136396 -0.614984
C290  C     C_3   0.429403 0.717324 0.148383 0.209367
H126  H     H_    0.453593 0.706323 0.172182 0.149225
H127  H     H_    0.409871 0.745289 0.162238 0.057354
C291  C     C_3   0.455308 0.734692 0.111025 -0.285459
H128  H     H_    0.475867 0.707437 0.097819 0.221432
H129  H     H_    0.431551 0.745969 0.086961 0.202788
C292  C     C_3   0.485677 0.773435 0.122998 -0.985561
H130  H     H_    0.465720 0.801435 0.135574 0.271042
H131  H     H_    0.504047 0.785242 0.095277 0.276649
H132  H     H_    0.510207 0.762703 0.146599 0.269419
O45   O     O_3   0.284175 0.418134 0.846786 -0.618147
C293  C     C_3   0.316856 0.436638 0.873344 0.276686
H133  H     H_    0.323186 0.471286 0.862940 0.156678
H134  H     H_    0.349578 0.419149 0.871659 0.063681
C294  C     C_3   0.299969 0.438040 0.918072 -0.388232
H135  H     H_    0.267249 0.455177 0.919175 0.233311
H136  H     H_    0.295492 0.403623 0.929807 0.202476
C295  C     C_3   0.332688 0.462518 0.946185 -0.945996
H137  H     H_    0.365502 0.445571 0.945940 0.261734
H138  H     H_    0.319670 0.462757 0.978337 0.278242
H139  H     H_    0.337045 0.497459 0.935796 0.267456
O46   O     O_3   0.834383 0.663334 0.301859 -0.614745
C296  C     C_3   0.862642 0.645211 0.332487 0.268165
H140  H     H_    0.851125 0.610665 0.338516 0.156650
H141  H     H_    0.860760 0.663125 0.362742 0.061162
C297  C     C_3   0.910918 0.643513 0.317101 -0.376828
H142  H     H_    0.912165 0.626048 0.286792 0.234114
H143  H     H_    0.923898 0.677847 0.312902 0.202408
C298  C     C_3   0.940786 0.619288 0.347738 -0.955300
H144  H     H_    0.940454 0.636554 0.378144 0.262389
H145  H     H_    0.975496 0.618853 0.335859 0.277996
H146  H     H_    0.929282 0.584414 0.351829 0.266751
O47   O     O_3   0.158472 0.664171 0.689035 -0.616170
C299  C     C_3   0.131141 0.649693 0.655940 0.269917
H147  H     H_    0.140759 0.614931 0.648468 0.156164
H148  H     H_    0.136156 0.669240 0.626962 0.062333
C300  C     C_3   0.081941 0.650048 0.668635 -0.379055
H149  H     H_    0.077589 0.630892 0.697719 0.232374
H150  H     H_    0.070979 0.684797 0.674215 0.201742
C301  C     C_3   0.052607 0.629608 0.635070 -0.960203
H151  H     H_    0.056037 0.648630 0.605830 0.263274
H152  H     H_    0.017228 0.630586 0.645059 0.277012
H153  H     H_    0.062068 0.594409 0.629487 0.266501
O48   O     O_3   0.706162 0.414453 0.147493 -0.617348
C302  C     C_3   0.671649 0.430443 0.121742 0.273922
H154  H     H_    0.663260 0.464538 0.132487 0.159346
H155  H     H_    0.640204 0.410591 0.123938 0.060626
C303  C     C_3   0.687386 0.433092 0.076705 -0.372374
H156  H     H_    0.719161 0.452095 0.075150 0.233464
H157  H     H_    0.693334 0.399046 0.064533 0.203586
C304  C     C_3   0.652875 0.455842 0.049457 -0.961665
H158  H     H_    0.620940 0.437096 0.050172 0.265410
H159  H     H_    0.665120 0.456965 0.017059 0.278633
H160  H     H_    0.647068 0.490455 0.060243 0.267208
H161  H     H_    0.184691 0.111319 0.200316 0.154633
H162  H     H_    0.841853 0.771733 0.865614 0.151222
H163  H     H_    0.158001 0.752816 0.057131 0.149952
H164  H     H_    0.820262 0.101790 0.794159 0.158578
H165  H     H_    0.820813 0.896244 0.206155 0.156614
H166  H     H_    0.241989 0.168278 0.944320 0.140938
H167  H     H_    0.844361 0.228461 0.135321 0.153000
H168  H     H_    0.182204 0.893971 0.796632 0.159413
H169  H     H_    0.680648 0.607236 0.704543 0.156539
H170  H     H_    0.344752 0.273934 0.359882 0.151608
H171  H     H_    0.654416 0.270906 0.633966 0.151239
H172  H     H_    0.358017 0.546299 0.273852 0.145579
H173  H     H_    0.315498 0.389470 0.700556 0.157622
H174  H     H_    0.748824 0.657752 0.436330 0.140057
H175  H     H_    0.257541 0.666071 0.556874 0.139769
H176  H     H_    0.683573 0.391436 0.297766 0.157194
H177  H     H_    0.164274 0.085854 0.130794 0.132803
H178  H     H_    0.901969 0.823661 0.884030 0.137331
H179  H     H_    0.106362 0.811603 0.036858 0.131724
H180  H     H_    0.840130 0.072056 0.862006 0.131105
H181  H     H_    0.839367 0.923728 0.137097 0.131267
H182  H     H_    0.185089 0.113962 0.964823 0.126483
H183  H     H_    0.903568 0.176067 0.116377 0.138182
H184  H     H_    0.162312 0.921101 0.865603 0.135875
H185  H     H_    0.661396 0.577932 0.636056 0.130806
H186  H     H_    0.403323 0.327316 0.379027 0.137792
H187  H     H_    0.595286 0.322880 0.614202 0.137830
H188  H     H_    0.387809 0.524729 0.341297 0.130121
H189  H     H_    0.335924 0.415392 0.631327 0.133946
H190  H     H_    0.691222 0.604841 0.457201 0.122631
H191  H     H_    0.314538 0.612382 0.535977 0.127046
H192  H     H_    0.663420 0.419049 0.366647 0.132921
H193  H     H_    0.025348 0.100908 0.161486 0.148335
H194  H     H_    0.813485 0.892216 0.966955 0.127439
H195  H     H_    0.175905 0.904778 0.115612 0.146374
H196  H     H_    0.975484 0.117008 0.843992 0.142355
H197  H     H_    0.977116 0.892800 0.157589 0.136425
H198  H     H_    0.095761 0.165275 0.873329 0.138117
H199  H     H_    0.812930 0.107484 0.035126 0.132428
H200  H     H_    0.024088 0.892244 0.840739 0.147664
H201  H     H_    0.523746 0.611962 0.657546 0.144390
H202  H     H_    0.314643 0.388619 0.466564 0.129970
H203  H     H_    0.688310 0.393731 0.536859 0.132475
H204  H     H_    0.424427 0.661317 0.365497 0.143702
H205  H     H_    0.474772 0.397904 0.660746 0.148797
H206  H     H_    0.593628 0.678266 0.387955 0.137186
H207  H     H_    0.405073 0.666632 0.625496 0.139595
H208  H     H_    0.525070 0.391912 0.340777 0.145357
O49   O     O_3   0.038081 0.124024 0.238580 -0.640532
C305  C     C_3   0.033041 0.088418 0.266819 0.146795
H209  H     H_    0.017124 0.101973 0.295181 0.146368
H210  H     H_    0.065463 0.073997 0.276808 0.107340
C306  C     C_3   0.002697 0.051989 0.248874 -0.317798
H211  H     H_    0.970323 0.066821 0.239771 0.225005
H212  H     H_    0.018381 0.037227 0.220923 0.190497
C307  C     C_3   0.994330 0.014952 0.280146 -0.972645
H213  H     H_    0.026232 0.998927 0.288859 0.261848
H214  H     H_    0.972137 0.989343 0.266280 0.270834
H215  H     H_    0.978010 0.028492 0.308311 0.271278
O50   O     O_3   0.742271 0.839265 0.951634 -0.665755
C308  C     C_3   0.725639 0.883231 0.951867 0.194752
H216  H     H_    0.733632 0.901030 0.922515 0.130748
H217  H     H_    0.739674 0.901980 0.978536 0.095100
C309  C     C_3   0.675069 0.881478 0.956828 -0.238106
H218  H     H_    0.660593 0.860541 0.931903 0.196663
H219  H     H_    0.666554 0.866052 0.987035 0.207589
C310  C     C_3   0.654652 0.927837 0.954805 -1.037822
H220  H     H_    0.668233 0.949231 0.979874 0.276262
H221  H     H_    0.617981 0.925319 0.958646 0.278319
H222  H     H_    0.661855 0.943419 0.924402 0.270569
O51   O     O_3   0.234395 0.847351 0.142895 -0.652972
C311  C     C_3   0.218874 0.837355 0.183246 0.131370
H223  H     H_    0.242429 0.813302 0.197273 0.126612
H224  H     H_    0.185072 0.821699 0.184433 0.092693
C312  C     C_3   0.218265 0.879724 0.209423 -0.246602
H225  H     H_    0.251909 0.895256 0.209269 0.220620
H226  H     H_    0.194258 0.903677 0.195924 0.199677
C313  C     C_3   0.204702 0.869748 0.253963 -1.014278
H227  H     H_    0.171136 0.854144 0.254903 0.268915
H228  H     H_    0.203782 0.901175 0.272043 0.284790
H229  H     H_    0.229093 0.846925 0.268476 0.269344
O52   O     O_3   0.962980 0.151425 0.771614 -0.649346
C314  C     C_3   0.977060 0.126198 0.737071 0.131911
H230  H     H_    0.990207 0.149972 0.713771 0.146169
H231  H     H_    0.949435 0.107602 0.721708 0.098739
C315  C     C_3   0.014436 0.094267 0.749336 -0.312230
H232  H     H_    0.040278 0.112648 0.767146 0.218057
H233  H     H_    0.000625 0.067496 0.769283 0.192737
C316  C     C_3   0.036006 0.073262 0.711312 -0.966610
H234  H     H_    0.010425 0.056638 0.691872 0.264936
H235  H     H_    0.060864 0.048175 0.721142 0.279242
H236  H     H_    0.053207 0.099121 0.692656 0.267280
O53   O     O_3   0.965434 0.863527 0.236383 -0.649803
C317  C     C_3   0.006333 0.887229 0.235323 0.162385
H237  H     H_    0.016582 0.893656 0.267787 0.130381
H238  H     H_    0.004122 0.920710 0.220671 0.087586
C318  C     C_3   0.042361 0.858677 0.214723 -0.242756
H239  H     H_    0.049471 0.829432 0.234588 0.206151
H240  H     H_    0.030512 0.846048 0.184377 0.210035
C319  C     C_3   0.085294 0.885022 0.208071 -1.036418
H241  H     H_    0.079247 0.913558 0.187082 0.274167
H242  H     H_    0.110758 0.863172 0.193712 0.276461
H243  H     H_    0.098249 0.897586 0.238066 0.276102
O54   O     O_3   0.154296 0.227492 0.843712 -0.663887
C320  C     C_3   0.110779 0.245196 0.840426 0.235240
H244  H     H_    0.114152 0.281477 0.834702 0.142942
H245  H     H_    0.090508 0.242313 0.869228 0.083604
C321  C     C_3   0.086806 0.224362 0.803269 -0.368958
H246  H     H_    0.104675 0.233727 0.774434 0.221636
H247  H     H_    0.087101 0.187522 0.805550 0.209118
C322  C     C_3   0.038645 0.240053 0.800470 -0.878700
H248  H     H_    0.019644 0.229256 0.828208 0.272820
H249  H     H_    0.022731 0.225373 0.772614 0.293409
H250  H     H_    0.037392 0.276874 0.798010 0.255056
O55   O     O_3   0.743266 0.160817 0.050523 -0.671691
C323  C     C_3   0.723751 0.117998 0.054381 0.227127
H251  H     H_    0.690889 0.122118 0.069740 0.128702
H252  H     H_    0.742933 0.094359 0.074032 0.100855
C324  C     C_3   0.716080 0.097984 0.011416 -0.304162
H253  H     H_    0.693935 0.120239 0.993406 0.220127
H254  H     H_    0.748271 0.095257 0.994671 0.198501
C325  C     C_3   0.694731 0.051933 0.014141 -1.024750
H255  H     H_    0.716866 0.028786 0.031120 0.265946
H256  H     H_    0.689268 0.038562 0.982512 0.277921
H257  H     H_    0.662090 0.053881 0.030245 0.273300
O56   O     O_3   0.035945 0.863980 0.765432 -0.636764
C326  C     C_3   0.027725 0.894274 0.732942 0.148772
H258  H     H_    0.011102 0.875448 0.707680 0.148760
H259  H     H_    0.058788 0.908516 0.719366 0.099096
C327  C     C_3   0.996602 0.931632 0.747312 -0.318936
H260  H     H_    0.966539 0.916987 0.762135 0.223454
H261  H     H_    0.013973 0.952851 0.770440 0.192366
C328  C     C_3   0.982247 0.960634 0.711118 -0.965839
H262  H     H_    0.011916 0.974424 0.695043 0.266452
H263  H     H_    0.961570 0.988603 0.722678 0.278586
H264  H     H_    0.962264 0.940807 0.688790 0.267802
O57   O     O_3   0.535828 0.643991 0.731955 -0.647309
C329  C     C_3   0.515429 0.609897 0.755188 0.126210
H265  H     H_    0.540262 0.593609 0.775755 0.114120
H266  H     H_    0.500118 0.584453 0.734398 0.109730
C330  C     C_3   0.478817 0.630219 0.781997 -0.232666
H267  H     H_    0.493671 0.655457 0.803088 0.203038
H268  H     H_    0.454111 0.647068 0.761888 0.206174
C331  C     C_3   0.455044 0.594806 0.807632 -1.005115
H269  H     H_    0.438825 0.569968 0.787050 0.274258
H270  H     H_    0.429029 0.610709 0.827048 0.277041
H271  H     H_    0.479062 0.577667 0.828197 0.269367
O58   O     O_3   0.245717 0.332664 0.451835 -0.666318
C332  C     C_3   0.226133 0.375352 0.453188 0.196686
H272  H     H_    0.231159 0.393748 0.423605 0.134832
H273  H     H_    0.240377 0.394986 0.479202 0.093131
C333  C     C_3   0.176163 0.369971 0.460691 -0.241785
H274  H     H_    0.161937 0.347362 0.436932 0.197351
H275  H     H_    0.170563 0.354714 0.491542 0.205902
C334  C     C_3   0.152133 0.414555 0.458833 -1.033651
H276  H     H_    0.165440 0.437562 0.482771 0.273670
H277  H     H_    0.116020 0.409358 0.464554 0.275987
H278  H     H_    0.156365 0.429827 0.427830 0.271407
O59   O     O_3   0.757684 0.341313 0.553542 -0.671601
C335  C     C_3   0.777154 0.383463 0.561666 0.218816
H279  H     H_    0.808627 0.377805 0.578853 0.127240
H280  H     H_    0.756534 0.405962 0.581414 0.104209
C336  C     C_3   0.788374 0.406472 0.520823 -0.305495
H281  H     H_    0.811116 0.384989 0.502466 0.220855
H282  H     H_    0.757455 0.411534 0.502662 0.197758
C337  C     C_3   0.810753 0.451450 0.528145 -1.010593
H283  H     H_    0.818701 0.467142 0.497970 0.276593
H284  H     H_    0.842181 0.447150 0.545737 0.269528
H285  H     H_    0.788163 0.473847 0.545653 0.267139
O60   O     O_3   0.393286 0.692719 0.296489 -0.670592
C338  C     C_3   0.429767 0.704275 0.270838 0.189995
H286  H     H_    0.416226 0.715224 0.240641 0.122718
H287  H     H_    0.453706 0.676584 0.264688 0.114191
C339  C     C_3   0.455278 0.743188 0.290064 -0.296889
H288  H     H_    0.432042 0.771221 0.295909 0.221676
H289  H     H_    0.469755 0.732639 0.320072 0.199095
C340  C     C_3   0.492616 0.759037 0.261495 -1.010547
H290  H     H_    0.517242 0.732044 0.256569 0.274058
H291  H     H_    0.509912 0.788002 0.275567 0.279920
H292  H     H_    0.478842 0.769393 0.231161 0.266104
O61   O     O_3   0.462199 0.373062 0.737161 -0.637574
C341  C     C_3   0.467370 0.406694 0.767513 0.149637
H293  H     H_    0.483443 0.391261 0.794830 0.147408
H294  H     H_    0.435041 0.420455 0.778642 0.102773
C342  C     C_3   0.497593 0.444211 0.751598 -0.314318
H295  H     H_    0.529590 0.429955 0.740556 0.224634
H296  H     H_    0.481287 0.461285 0.725256 0.190797
C343  C     C_3   0.507106 0.478419 0.785404 -0.979908
H297  H     H_    0.475504 0.493075 0.796859 0.269277
H298  H     H_    0.528341 0.505475 0.772754 0.268074
H299  H     H_    0.524896 0.462618 0.811586 0.270992
O62   O     O_3   0.650335 0.739964 0.361076 -0.664630
C344  C     C_3   0.619030 0.769641 0.378852 0.240017
H300  H     H_    0.634479 0.803275 0.379591 0.159520
H301  H     H_    0.609432 0.761724 0.411438 0.084584
C345  C     C_3   0.577248 0.771602 0.351908 -0.324935
H302  H     H_    0.586496 0.782881 0.320329 0.224556
H303  H     H_    0.562062 0.737972 0.349366 0.201668
C346  C     C_3   0.542968 0.803543 0.370125 -0.994223
H304  H     H_    0.532746 0.792431 0.401475 0.268551
H305  H     H_    0.512981 0.804357 0.350163 0.275943
H306  H     H_    0.557067 0.837691 0.372115 0.276175
O63   O     O_3   0.346384 0.728636 0.655408 -0.663787
C347  C     C_3   0.390148 0.746019 0.658838 0.239221
H307  H     H_    0.387284 0.782284 0.664931 0.140577
H308  H     H_    0.410243 0.743246 0.629925 0.080902
C348  C     C_3   0.413938 0.724854 0.695777 -0.374479
H309  H     H_    0.396625 0.734679 0.724781 0.221008
H310  H     H_    0.412622 0.688021 0.693498 0.210375
C349  C     C_3   0.462548 0.739586 0.698159 -0.888891
H311  H     H_    0.480908 0.728467 0.670154 0.270683
H312  H     H_    0.478450 0.724555 0.725739 0.292181
H313  H     H_    0.464806 0.776371 0.700813 0.257981
O64   O     O_3   0.537362 0.363938 0.265235 -0.639066
C350  C     C_3   0.528634 0.396075 0.234414 0.149442
H314  H     H_    0.514128 0.378336 0.207414 0.145256
H315  H     H_    0.559289 0.413120 0.222889 0.104425
C351  C     C_3   0.494740 0.430306 0.250034 -0.338930
H316  H     H_    0.464319 0.412787 0.261058 0.221021
H317  H     H_    0.509109 0.449332 0.276341 0.198096
C352  C     C_3   0.481948 0.462922 0.216036 -0.924277
H318  H     H_    0.511836 0.481277 0.204991 0.269911
H319  H     H_    0.457575 0.487306 0.228371 0.273505
H320  H     H_    0.466487 0.444923 0.189651 0.262153

loop_
_geom_bond_atom_site_label_1
_geom_bond_atom_site_label_2
_ccdc_geom_bond_type
C350  C351  S    
C329  H266  S    
O39   C275  S    
C346  H305  S    
C262  H61   S    
C351  C352  S    
C185  C233  A    
C115  N36   S    
C335  C336  S    
N4    Ni4   S    
C266  H70   S    
C312  C313  S    
C53   C69   A    
C42   C58   A    
C313  H229  S    
C320  H244  S    
C197  C213  A    
C179  C195  A    
O37   C269  S    
C296  C297  S    
C62   H190  S    
C341  C342  S    
C92   H204  S    
C177  C193  A    
C46   C62   A    
C3    C131  A    
C227  C251  A    
C17   N17   A    
C51   H179  S    
C1    C129  A    
C148  C212  A    
C314  C315  S    
C288  H122  S    
C329  C330  S    
C305  H209  S    
C247  O39   S    
C343  H297  S    
C186  C202  A    
C238  H14   S    
N3    N10   A    
C10   C131  A    
C24   N24   A    
C341  H293  S    
C190  C206  A    
C7    H23   S    
C333  H274  S    
C56   C72   A    
C317  C318  S    
C87   H199  S    
C255  O47   S    
N23   Ni8   S    
N3    Ni3   S    
C107  C123  A    
C169  C185  A    
N18   Ni6   S    
C180  C196  A    
C309  C310  S    
C170  N42   A    
C146  C210  A    
C244  O36   S    
C69   C135  S    
C151  C215  A    
C98   O50   S    
C70   C136  S    
C82   C98   A    
C23   C143  A    
C197  C206  A    
N24   N29   A    
C301  H152  S    
C203  C219  A    
C108  C124  A    
C347  C348  S    
C7    N7    A    
C316  H235  S    
C95   H207  S    
C324  C325  S    
C297  C298  S    
N5    N16   A    
C20   H36   S    
C27   C138  A    
N6    N15   A    
C276  H93   S    
C84   C100  A    
N7    N14   A    
C91   C107  A    
C25   C140  A    
C300  H150  S    
C26   C139  A    
C9    H25   S    
C151  N39   A    
C270  C271  S    
C290  H127  S    
C194  C201  A    
C60   C76   A    
C285  C286  S    
C30   C143  A    
C12   H28   S    
C301  H153  S    
C20   N20   A    
N7    Ni4   S    
C330  C331  S    
C73   C89   A    
C125  N46   S    
C2    N2    A    
C27   H43   S    
C157  O13   S    
C127  N48   S    
C164  N36   A    
C128  N47   S    
C165  N37   A    
C323  H252  S    
C303  H156  S    
C252  O44   S    
C156  C220  A    
O46   C296  S    
N21   N32   A    
C339  H289  S    
C4    H20   S    
C235  C243  A    
N22   N31   A    
N14   Ni2   S    
C12   N12   A    
N23   N30   A    
C87   C103  A    
C13   N13   A    
C160  C224  A    
C18   H34   S    
C281  H106  S    
C219  C252  A    
C156  N44   A    
C35   C51   A    
C120  N39   S    
C315  H233  S    
C44   H172  S    
C159  O15   S    
N32   Ni7   S    
C161  C177  A    
O51   C311  S    
C6    N6    A    
C320  C321  S    
C287  H119  S    
C150  O6    S    
C267  H73   S    
C345  H303  S    
O49   C305  S    
C116  N35   S    
C17   H33   S    
C348  H310  S    
O48   C302  S    
C297  H142  S    
C33   H161  S    
C63   H191  S    
C189  C237  A    
C191  C207  A    
C211  C244  A    
C28   C137  A    
C253  O45   S    
C52   H180  S    
C250  O42   S    
C314  H230  S    
N20   Ni8   S    
C291  H128  S    
C63   C79   A    
C282  C283  S    
C281  C282  S    
O33   C257  S    
C318  C319  S    
C40   H168  S    
C343  H299  S    
O38   C272  S    
C74   C90   A    
C327  C328  S    
C299  H148  S    
C165  O21   S    
C280  H103  S    
C31   N31   A    
C306  H211  S    
C263  H63   S    
C47   C63   A    
C32   N32   A    
C107  O59   S    
C166  O22   S    
C279  H100  S    
C108  O60   S    
C158  O14   S    
C78   C94   A    
C333  C334  S    
C101  O53   S    
C283  H109  S    
N26   Ni5   S    
C149  C213  A    
N2    Ni2   S    
C310  H221  S    
O52   C314  S    
C238  C246  A    
C248  O40   S    
C196  C212  A    
C249  O41   S    
C295  H137  S    
C31   H47   S    
C277  H95   S    
C118  N37   S    
C32   H48   S    
C17   C137  A    
C84   H196  S    
C3    H19   S    
O53   C317  S    
C90   H202  S    
C19   C139  A    
C55   C71   A    
C198  C214  A    
C207  C223  A    
N24   Ni7   S    
C240  C248  A    
C152  N40   A    
C60   H188  S    
C264  H65   S    
C166  C182  A    
C290  C291  S    
C181  C197  A    
C311  H223  S    
C291  C292  S    
C325  H255  S    
C4    C132  A    
C304  H158  S    
C5    C133  A    
C18   N18   A    
C199  C215  A    
C319  H241  S    
C335  H280  S    
C58   H186  S    
C192  C240  A    
C14   C135  A    
C21   H37   S    
O50   C308  S    
C23   H39   S    
C342  H295  S    
C45   C61   A    
C297  H143  S    
C328  H263  S    
C289  H124  S    
C75   C141  S    
O56   C326  S    
C4    N4    A    
C182  C230  A    
O35   C263  S    
C243  O35   S    
C184  C200  A    
C13   H29   S    
C275  C276  S    
C156  O12   S    
C148  N36   A    
C153  C217  A    
C36   C52   A    
C287  C288  S    
C43   C59   A    
C97   O49   S    
C258  H52   S    
N22   Ni5   S    
C150  N38   A    
O45   C293  S    
C157  C221  A    
C272  H85   S    
C22   C142  A    
C339  H288  S    
C5    H21   S    
C251  O43   S    
C111  O63   S    
C307  H213  S    
C88   C104  A    
C309  H219  S    
C113  N34   S    
C302  C303  S    
C145  C209  A    
C332  H273  S    
C235  H11   S    
C300  C301  S    
C241  O33   S    
C344  H301  S    
C242  O34   S    
C160  O16   S    
C263  C264  S    
C105  C121  A    
C21   N21   A    
O34   C260  S    
C259  H54   S    
C347  H308  S    
C257  H49   S    
C306  C307  S    
C112  O64   S    
O40   C278  S    
C313  H228  S    
C73   C139  S    
C286  H117  S    
C121  N42   S    
C74   C140  S    
C188  C204  A    
C283  H111  S    
C271  H81   S    
C124  N43   S    
C145  O1    S    
C77   C143  S    
C282  H107  S    
C78   C144  S    
C194  C210  A    
C55   H183  S    
C298  H144  S    
C295  H139  S    
C171  N43   A    
C166  N38   A    
C164  O20   S    
C285  H115  S    
C294  H135  S    
C8    N8    A    
C298  H146  S    
C37   C117  A    
C51   C67   A    
C261  H58   S    
C15   N15   A    
C340  H291  S    
C47   H175  S    
C100  O52   S    
C234  C242  A    
C286  H118  S    
C331  H270  S    
C89   C105  A    
C334  H277  S    
C110  C126  A    
C281  H105  S    
C163  C179  A    
C265  H67   S    
C293  H134  S    
C22   H38   S    
C290  H126  S    
C86   C102  A    
C311  C312  S    
C43   C123  A    
C69   C85   A    
C323  H251  S    
C160  N48   A    
C42   H170  S    
C237  C245  A    
C304  H160  S    
C145  N33   A    
C350  H315  S    
C278  H98   S    
C231  H7    S    
C232  H8    S    
C278  H99   S    
C315  H232  S    
N1    N12   A    
C62   C78   A    
C319  H243  S    
N2    N11   A    
C259  H53   S    
C14   H30   S    
C349  H313  S    
C126  N45   S    
O43   C287  S    
C228  H4    S    
C47   C127  A    
C46   H174  S    
C161  O17   S    
C296  H141  S    
C98   C114  A    
C11   H27   S    
C256  O48   S    
C82   H194  S    
C342  C343  S    
C91   H203  S    
C190  C238  A    
C202  C218  A    
C96   H208  S    
O44   C290  S    
C258  H51   S    
C336  C337  S    
C6    H22   S    
C167  O23   S    
C288  C289  S    
C173  O29   S    
C14   N14   A    
C39   C119  A    
C199  C208  A    
C200  C216  A    
C343  H298  S    
C214  C245  A    
C317  H238  S    
C158  N46   A    
C179  C227  A    
C337  H283  S    
C169  O25   S    
C162  C178  A    
C177  C225  A    
C1    H17   S    
C215  C248  A    
C338  C339  S    
C94   H206  S    
C265  H69   S    
C333  H275  S    
O60   C338  S    
C352  H320  S    
C25   N25   A    
C83   C99   A    
C104  C120  A    
C64   H192  S    
C307  H215  S    
O63   C347  S    
C228  C252  A    
C93   C109  A    
C186  C234  A    
C305  C306  S    
C36   C116  A    
C230  H6    S    
C352  H319  S    
C159  N47   A    
N5    Ni2   S    
C8    C136  A    
C64   C80   A    
O47   C299  S    
C100  C116  A    
C11   N11   A    
C226  H2    S    
C155  O11   S    
C316  H234  S    
C65   C131  S    
C348  H309  S    
C324  H254  S    
C15   C134  A    
C105  O57   S    
C178  C194  A    
C58   C74   A    
C172  N44   A    
C271  H83   S    
C173  N45   A    
C321  H246  S    
C264  H66   S    
C48   H176  S    
C212  C243  A    
C259  H55   S    
C99   C115  A    
C147  C211  A    
C270  H80   S    
O36   C266  S    
C33   C49   A    
C350  H314  S    
C187  C203  A    
C294  C295  S    
O42   C284  S    
C204  C220  A    
C351  H317  S    
C239  C247  A    
C351  H316  S    
C185  C201  A    
C18   C138  A    
N19   N26   A    
C246  O38   S    
C269  H77   S    
C254  O46   S    
C86   H198  S    
C52   C68   A    
C221  C254  A    
C85   H197  S    
C223  C256  A    
C39   C55   A    
C171  O27   S    
C40   C56   A    
C232  C256  A    
C276  C277  S    
C303  H157  S    
C155  C219  A    
C318  H240  S    
C231  C255  A    
C164  C180  A    
C323  C324  S    
N17   Ni5   S    
C329  H265  S    
C346  H306  S    
N19   Ni7   S    
C274  H88   S    
O41   C281  S    
C19   N19   A    
C284  H112  S    
C262  H62   S    
C103  O55   S    
N10   Ni1   S    
C315  C316  S    
C273  C274  S    
C23   N23   A    
C147  O3    S    
C320  H245  S    
C287  H120  S    
C170  O26   S    
C175  N47   A    
C341  H294  S    
C176  N48   A    
C303  C304  S    
C12   C129  A    
N9    Ni2   S    
N29   Ni5   S    
C68   C84   A    
N27   Ni7   S    
C288  H121  S    
C148  O4    S    
C322  H249  S    
C308  C309  S    
C336  H281  S    
C273  H86   S    
C310  H222  S    
C41   H169  S    
C195  C204  A    
C312  H226  S    
C161  N33   A    
C180  C228  A    
C167  N39   A    
C193  C202  A    
C89   H201  S    
C168  N40   A    
C269  C270  S    
C263  H64   S    
C29   H45   S    
C106  C122  A    
N6    Ni1   S    
C79   C95   A    
C280  H102  S    
C27   N27   A    
C48   C128  A    
C269  H78   S    
C172  O28   S    
C183  C231  A    
C65   C81   A    
C324  H253  S    
C38   C54   A    
C93   H205  S    
C272  C273  S    
C264  C265  S    
C245  O37   S    
C283  H110  S    
C154  O10   S    
C42   C122  A    
C24   C144  A    
C196  C203  A    
C3    N3    A    
C267  C268  S    
C19   H35   S    
C32   C141  A    
C261  H59   S    
C257  H50   S    
C174  C190  A    
N16   Ni3   S    
N13   Ni1   S    
C40   C120  A    
C295  H138  S    
C200  C207  A    
C61   C77   A    
C16   H32   S    
C218  C249  A    
C57   H185  S    
C258  C259  S    
C208  C224  A    
C301  H151  S    
C22   N22   A    
C11   C130  A    
C26   H42   S    
C322  H248  S    
C316  H236  S    
C83   H195  S    
O62   C344  S    
C305  H210  S    
C279  C280  S    
C9    C132  A    
C226  C250  A    
C122  N41   S    
C274  H89   S    
N12   Ni4   S    
N1    Ni1   S    
C321  C322  S    
C210  C241  A    
C59   H187  S    
C36   H164  S    
C257  C258  S    
C311  H224  S    
C291  H129  S    
C109  O61   S    
C277  H97   S    
C39   H167  S    
C222  C253  A    
C95   C111  A    
C56   H184  S    
C163  N35   A    
C198  C205  A    
C114  N33   S    
C101  C117  A    
C20   C140  A    
C68   C134  S    
C41   C57   A    
C154  N42   A    
C240  H16   S    
C205  C221  A    
C220  C251  A    
C266  H71   S    
C44   C60   A    
C153  N41   A    
C77   C93   A    
C2    C130  A    
C94   C110  A    
N28   Ni8   S    
C328  H262  S    
C112  C128  A    
C325  H257  S    
C176  C192  A    
C90   C106  A    
C225  H1    S    
C38   C118  A    
C275  H91   S    
C146  N34   A    
C282  H108  S    
O57   C329  S    
C284  C285  S    
C44   C124  A    
C262  H60   S    
C236  H12   S    
O64   C350  S    
C49   H177  S    
C237  H13   S    
C229  H5    S    
C189  C205  A    
C327  H260  S    
C308  H216  S    
C2    H18   S    
C326  C327  S    
C224  C255  A    
C29   N29   A    
C345  H302  S    
C28   H44   S    
C330  H268  S    
C348  C349  S    
C104  O56   S    
O55   C323  S    
C88   H200  S    
C314  H231  S    
C182  C198  A    
O59   C335  S    
C307  H214  S    
C169  N41   A    
C310  H220  S    
C302  H155  S    
C284  H113  S    
C155  N43   A    
C332  H272  S    
C216  C247  A    
C149  N37   A    
C96   C112  A    
C344  H300  S    
C49   C65   A    
C10   N10   A    
C35   H163  S    
C299  H147  S    
C67   C133  S    
C206  C222  A    
C280  H104  S    
C260  H57   S    
C175  C191  A    
C80   C138  S    
C234  H10   S    
C66   C82   A    
N4    N9    A    
C41   C121  A    
C286  H116  S    
C147  N35   A    
C26   N26   A    
C339  C340  S    
C271  H82   S    
C149  O5    S    
C267  H72   S    
C29   C144  A    
C48   C64   A    
C279  H101  S    
C167  C183  A    
C334  H276  S    
C45   C125  A    
C331  H269  S    
C35   C115  A    
C54   C70   A    
C274  H90   S    
C298  H145  S    
C80   C96   A    
C340  H290  S    
C1    N1    A    
C102  C118  A    
C227  H3    S    
C81   H193  S    
C33   C113  A    
C268  H76   S    
C25   H41   S    
C158  C222  A    
N21   Ni6   S    
C265  H68   S    
C192  C208  A    
C293  C294  S    
C170  C186  A    
C213  C246  A    
C181  C229  A    
C239  H15   S    
C174  N46   A    
C16   C133  A    
C72   C88   A    
C92   C108  A    
C322  H250  S    
C66   C132  S    
C304  H159  S    
C338  H286  S    
C191  C239  A    
N15   Ni4   S    
C266  C267  S    
C352  H318  S    
C34   C50   A    
C306  H212  S    
N30   Ni6   S    
C45   H173  S    
C176  O32   S    
C16   N16   A    
C153  O9    S    
C5    N5    A    
C335  H279  S    
C184  C232  A    
C308  H217  S    
C273  H87   S    
C278  C279  S    
C102  O54   S    
C300  H149  S    
C24   H40   S    
C99   O51   S    
C337  H285  S    
C168  C184  A    
C296  H140  S    
C233  H9    S    
C71   C129  S    
C152  O8    S    
C183  C199  A    
C201  C217  A    
C163  O19   S    
C342  H296  S    
C328  H264  S    
C53   H181  S    
C7    C135  A    
C289  H123  S    
C325  H256  S    
C336  H282  S    
C195  C211  A    
C193  C209  A    
C302  H154  S    
C261  C262  S    
C349  H312  S    
C157  N45   A    
C9    N9    A    
C146  O2    S    
N8    Ni3   S    
C67   C83   A    
C337  H284  S    
C50   C66   A    
C260  C261  S    
C61   H189  S    
C76   C92   A    
C345  C346  S    
C109  C125  A    
C338  H287  S    
C168  O24   S    
C272  H84   S    
C8    H24   S    
C111  C127  A    
C13   C136  A    
C71   C87   A    
C162  N34   A    
C154  C218  A    
C217  C250  A    
C97   C113  A    
C346  H304  S    
C70   C86   A    
C59   C75   A    
C85   C101  A    
C309  H218  S    
C233  C241  A    
C50   H178  S    
C34   H162  S    
C292  H130  S    
C332  C333  S    
C110  O62   S    
C326  H258  S    
C117  N38   S    
C344  C345  S    
C225  C249  A    
C15   H31   S    
C326  H259  S    
C79   C137  S    
C293  H133  S    
N17   N28   A    
C57   C73   A    
C46   C126  A    
C299  C300  S    
C103  C119  A    
N18   N27   A    
N8    N13   A    
C275  H92   S    
C347  H307  S    
C30   H46   S    
C188  C236  A    
C209  C242  A    
C152  C216  A    
C229  C253  A    
C162  O18   S    
C72   C130  S    
C313  H227  S    
C75   C91   A    
C37   H165  S    
C34   C114  A    
C292  H132  S    
C268  H75   S    
C277  H96   S    
C10   H26   S    
C171  C187  A    
C119  N40   S    
C165  C181  A    
O54   C320  S    
C236  C244  A    
C31   C142  A    
C321  H247  S    
C37   C53   A    
C292  H131  S    
C319  H242  S    
C174  O30   S    
N20   N25   A    
C270  H79   S    
C81   C97   A    
C172  C188  A    
C331  H271  S    
C159  C223  A    
C173  C189  A    
C285  H114  S    
C294  H136  S    
C28   N28   A    
C30   N30   A    
C260  H56   S    
C150  C214  A    
C43   H171  S    
C330  H267  S    
C340  H292  S    
C151  O7    S    
N31   Ni8   S    
C178  C226  A    
N11   Ni3   S    
C349  H311  S    
C106  O58   S    
C230  C254  A    
C6    C134  A    
C334  H278  S    
C175  O31   S    
O58   C332  S    
C21   C141  A    
C268  H74   S    
C289  H125  S    
C123  N44   S    
C276  H94   S    
C317  H237  S    
C38   H166  S    
C318  H239  S    
O61   C341  S    
C327  H261  S    
C187  C235  A    
C312  H225  S    
N25   Ni6   S    
C54   H182  S    
C76   C142  S    
