data_mof_unit_27291.cif
_audit_creation_date              2012-12-10T17:03:58-0500
_audit_creation_method            fapswitch 2.2
_symmetry_space_group_name_H-M    P1
_symmetry_Int_Tables_number       1
_space_group_crystal_system       triclinic
_cell_length_a                    9.90276
_cell_length_b                    11.023054
_cell_length_c                    15.838998
_cell_angle_alpha                 96.629573
_cell_angle_beta                  78.727005
_cell_angle_gamma                 111.000016
_cell_volume                      1581.03817296

loop_
_atom_site_label
_atom_site_type_symbol
_atom_type_description
_atom_site_fract_x
_atom_site_fract_y
_atom_site_fract_z
_atom_type_partial_charge
C1    C     C_R   0.555429 0.745155 0.507099 0.851268
C2    C     C_R   0.443554 0.254785 0.494445 0.860134
C3    C     C_R   0.317799 0.430868 0.074749 -0.215142
C4    C     C_R   0.669020 0.494877 0.920562 -0.205712
C5    C     C_R   0.217784 0.411892 0.019876 -0.227920
C6    C     C_R   0.768144 0.508785 0.975129 -0.221796
C7    C     C_2   0.584514 0.884513 0.513571 -0.323210
C8    C     C_2   0.411307 0.115177 0.492128 -0.354741
C9    C     C_2   0.480400 0.929936 0.504497 -0.165892
C10   C     C_2   0.508639 0.068835 0.510754 -0.113590
C11   C     C_2   0.916874 0.476955 0.499140 0.073115
C12   C     C_2   0.067732 0.496640 0.515971 0.075377
C13   C     C_R   0.411552 0.485905 0.662582 0.791128
C14   C     C_R   0.588075 0.512106 0.337319 0.792532
C15   C     C_R   0.358500 0.470416 0.755558 -0.063160
C16   C     C_R   0.638514 0.513523 0.243545 -0.049350
C17   C     C_R   0.162879 0.412773 0.877943 -0.199323
C18   C     C_R   0.826273 0.525843 0.118297 -0.190982
C19   C     C_R   0.208899 0.431032 0.789933 -0.161979
C20   C     C_R   0.783735 0.527260 0.207576 -0.193364
C21   C     C_R   0.461008 0.490168 0.810050 -0.236816
C22   C     C_R   0.536556 0.497164 0.189303 -0.239363
C23   C     C_R   0.417156 0.465678 0.898068 0.086418
C24   C     C_R   0.574859 0.489588 0.099219 0.086972
C25   C     C_R   0.265591 0.430273 0.932169 0.163962
C26   C     C_R   0.723471 0.508079 0.064031 0.159524
C27   C     C_R   0.519730 0.477197 0.953084 0.060132
C28   C     C_R   0.470340 0.466895 0.043445 0.068974
Cu1   Cu    Cu3+1 0.362980 0.479380 0.485080 0.948058
Cu2   Cu    Cu3+1 0.637020 0.520620 0.514920 0.948077
H1    H     H_    0.101935 0.383229 0.046526 0.141174
H2    H     H_    0.881199 0.521560 0.947409 0.150602
H3    H     H_    0.427928 0.493569 0.218961 0.153172
H4    H     H_    0.575392 0.527083 0.782499 0.166149
H5    H     H_    0.864324 0.539695 0.248249 0.144203
H6    H     H_    0.127634 0.413667 0.748973 0.200936
H7    H     H_    0.046681 0.383518 0.903555 0.136612
H8    H     H_    0.939658 0.538498 0.091574 0.132771
H9    H     H_    0.270777 0.411705 0.141238 0.142703
H10   H     H_    0.712451 0.494010 0.852708 0.168390
H11   H     H_    0.611057 0.133648 0.529766 0.222487
H12   H     H_    0.373889 0.864572 0.491150 0.171805
H13   H     H_    0.308013 0.049871 0.474296 0.156030
H14   H     H_    0.691216 0.950350 0.526192 0.175740
H15   H     H_    0.128208 0.406330 0.404356 0.216324
H16   H     H_    0.893985 0.631562 0.574648 0.217278
N1    N     N_2   0.842890 0.551600 0.537350 -0.318334
N2    N     N_2   0.157110 0.448400 0.462650 -0.315708
O1    O     O_R   0.426810 0.668300 0.492040 -0.609131
O2    O     O_R   0.573190 0.331700 0.507960 -0.583526
O3    O     O_R   0.658240 0.703130 0.517240 -0.569965
O4    O     O_R   0.341760 0.296870 0.482760 -0.554942
O5    O     O_R   0.319390 0.472820 0.610170 -0.588047
O6    O     O_R   0.680610 0.527180 0.389830 -0.611732
O7    O     O_R   0.550820 0.507640 0.635370 -0.565670
O8    O     O_R   0.449180 0.492360 0.364630 -0.581232
C29   C     C_2   0.110179 0.569592 0.596799 0.376551
H17   H     H_    0.217104 0.642589 0.597844 0.109595
O9    O     O_2   0.022988 0.549339 0.664194 -0.587969
C30   C     C_2   0.853268 0.366889 0.438960 0.372340
H18   H     H_    0.794081 0.376464 0.391361 0.109527
O10   O     O_2   0.868481 0.262319 0.441650 -0.581462

loop_
_geom_bond_atom_site_label_1
_geom_bond_atom_site_label_2
_ccdc_geom_bond_type
C5    H1    S    
C14   O8    A    
Cu2   O3    S    
C4    H10   S    
Cu1   Cu2   S    
Cu1   O8    S    
C23   C27   A    
Cu2   O6    S    
Cu2   O7    S    
C18   C20   A    
C18   C26   A    
C8    H13   S    
C12   N2    D    
C16   C20   A    
C17   C25   A    
C23   C25   A    
C18   H8    S    
C29   H17   S    
C3    H9    S    
Cu1   O1    S    
C7    H14   S    
C10   H11   S    
C15   C19   A    
C1    O3    A    
C9    H12   S    
C6    C26   A    
C2    O4    A    
C5    C25   A    
C12   C29   S    
C4    C6    A    
C3    C28   A    
C14   O6    A    
C24   C26   A    
C13   O5    A    
C19   H6    S    
C21   C23   A    
C13   C15   S    
Cu2   O2    S    
C22   C24   A    
C29   O9    D    
C13   O7    A    
Cu1   N2    S    
C11   C30   S    
C3    C5    A    
Cu2   N1    S    
C15   C21   A    
C4    C27   A    
C30   O10   D    
C6    H2    S    
C9    C10   S    
H15   N2    S    
C27   C28   A    
C7    C9    D    
C22   H3    S    
H16   N1    S    
C17   H7    S    
C21   H4    S    
C2    O2    A    
C17   C19   A    
C14   C16   S    
C1    C7    S    
C20   H5    S    
C11   N1    D    
C8    C10   D    
C2    C8    S    
C24   C28   A    
C11   C12   S    
C16   C22   A    
C30   H18   S    
Cu1   O5    S    
Cu1   O4    S    
C1    O1    A    
