data_mof_unit_13159.cif
_audit_creation_date              2012-12-11T15:08:41-0500
_audit_creation_method            fapswitch 2.2
_symmetry_space_group_name_H-M    P1
_symmetry_Int_Tables_number       1
_space_group_crystal_system       monoclinic
_cell_length_a                    19.351007
_cell_length_b                    11.348583
_cell_length_c                    18.715755
_cell_angle_alpha                 90.0
_cell_angle_beta                  90.274577
_cell_angle_gamma                 90.0
_cell_volume                      4110.05442426

loop_
_atom_site_label
_atom_site_type_symbol
_atom_type_description
_atom_site_fract_x
_atom_site_fract_y
_atom_site_fract_z
_atom_type_partial_charge
C1    C     C_R   0.272269 0.041877 0.854608 0.541741
C2    C     C_R   0.727730 0.041877 0.145392 0.541740
C3    C     C_R   0.772270 0.541877 0.854608 0.541741
C4    C     C_R   0.227730 0.541877 0.145392 0.541741
C5    C     C_3   0.519910 0.725569 0.964669 -0.071548
C6    C     C_3   0.480090 0.725569 0.035331 -0.071549
C7    C     C_3   0.019910 0.225570 0.964669 -0.071548
C8    C     C_3   0.980090 0.225570 0.035331 -0.071549
C9    C     C_3   0.314285 0.519876 0.043884 -0.199292
C10   C     C_3   0.685715 0.519876 0.956115 -0.199291
C11   C     C_3   0.814285 0.019876 0.043885 -0.199292
C12   C     C_3   0.185715 0.019876 0.956115 -0.199292
C13   C     C_3   0.328068 0.555841 0.965013 0.147648
C14   C     C_3   0.671932 0.555841 0.034986 0.147647
C15   C     C_3   0.828068 0.055841 0.965013 0.147647
C16   C     C_3   0.171932 0.055841 0.034986 0.147648
C17   C     C_3   0.182614 0.516500 0.024710 -0.237150
C18   C     C_3   0.817386 0.516500 0.975290 -0.237150
C19   C     C_3   0.682614 0.016500 0.024710 -0.237150
C20   C     C_3   0.317386 0.016500 0.975290 -0.237150
C21   C     C_3   0.244035 0.698965 0.054675 -0.263330
C22   C     C_3   0.755965 0.698965 0.945325 -0.263330
C23   C     C_3   0.744035 0.198965 0.054675 -0.263330
C24   C     C_3   0.255965 0.198965 0.945325 -0.263330
C25   C     C_3   0.243204 0.568456 0.069362 -0.004541
C26   C     C_3   0.756796 0.568456 0.930638 -0.004541
C27   C     C_3   0.743204 0.068456 0.069362 -0.004541
C28   C     C_3   0.256796 0.068456 0.930638 -0.004541
C29   C     C_3   0.258363 0.603040 0.931006 0.029195
C30   C     C_3   0.741637 0.603040 0.068994 0.029195
C31   C     C_3   0.758363 0.103040 0.931006 0.029195
C32   C     C_3   0.241637 0.103040 0.068994 0.029195
C33   C     C_3   0.200304 0.513686 0.944408 -0.261837
C34   C     C_3   0.799696 0.513686 0.055592 -0.261837
C35   C     C_3   0.700304 0.013686 0.944408 -0.261837
C36   C     C_3   0.299696 0.013686 0.055592 -0.261837
C37   C     C_3   0.239640 0.716742 0.973133 -0.272550
C38   C     C_3   0.760360 0.716742 0.026866 -0.272550
C39   C     C_3   0.739640 0.216742 0.973133 -0.272550
C40   C     C_3   0.260360 0.216742 0.026866 -0.272550
C41   C     C_3   0.503630 0.701928 0.460347 -0.227523
C42   C     C_3   0.496370 0.701928 0.539653 -0.227523
C43   C     C_3   0.003630 0.201928 0.460347 -0.227523
C44   C     C_3   0.996370 0.201928 0.539653 -0.227523
C45   C     C_R   0.444320 0.817399 0.862241 0.532043
C46   C     C_R   0.555680 0.817399 0.137759 0.532042
C47   C     C_R   0.944320 0.317399 0.862241 0.532042
C48   C     C_R   0.055680 0.317399 0.137759 0.532043
C49   C     C_3   0.564743 0.904609 0.473742 -0.217192
C50   C     C_3   0.435257 0.904609 0.526258 -0.217192
C51   C     C_3   0.064743 0.404609 0.473742 -0.217192
C52   C     C_3   0.935257 0.404609 0.526258 -0.217192
C53   C     C_3   0.440753 0.887136 0.444301 -0.262360
C54   C     C_3   0.559247 0.887136 0.555699 -0.262360
C55   C     C_3   0.940753 0.387136 0.444301 -0.262360
C56   C     C_3   0.059247 0.387136 0.555699 -0.262360
C57   C     C_3   0.510632 0.829243 0.430891 0.062225
C58   C     C_3   0.489368 0.829243 0.569110 0.062225
C59   C     C_3   0.010632 0.329243 0.430891 0.062225
C60   C     C_3   0.989368 0.329243 0.569110 0.062225
C61   C     C_3   0.179544 0.646401 0.459159 -0.227591
C62   C     C_3   0.820455 0.646401 0.540841 -0.227591
C63   C     C_3   0.679544 0.146401 0.459159 -0.227591
C64   C     C_3   0.320455 0.146401 0.540841 -0.227591
C65   C     C_3   0.184411 0.659761 0.538357 -0.228607
C66   C     C_3   0.815589 0.659761 0.461643 -0.228607
C67   C     C_3   0.684411 0.159761 0.538357 -0.228607
C68   C     C_3   0.315589 0.159761 0.461643 -0.228607
C69   C     C_3   0.252773 0.455146 0.473152 -0.217926
C70   C     C_3   0.747227 0.455146 0.526847 -0.217926
C71   C     C_3   0.752773 0.955146 0.473152 -0.217926
C72   C     C_3   0.247227 0.955146 0.526847 -0.217926
C73   C     C_3   0.304825 0.647488 0.442606 -0.263141
C74   C     C_3   0.695175 0.647488 0.557394 -0.263141
C75   C     C_3   0.804825 0.147488 0.442606 -0.263141
C76   C     C_3   0.195175 0.147488 0.557394 -0.263141
C77   C     C_3   0.240703 0.572245 0.430032 0.064753
C78   C     C_3   0.759297 0.572245 0.569968 0.064753
C79   C     C_3   0.740703 0.072245 0.430032 0.064753
C80   C     C_3   0.259297 0.072245 0.569968 0.064753
C81   C     C_3   0.252736 0.606115 0.567597 0.063033
C82   C     C_3   0.747263 0.606115 0.432403 0.063033
C83   C     C_3   0.752737 0.106115 0.567597 0.063033
C84   C     C_3   0.247263 0.106115 0.432403 0.063033
C85   C     C_3   0.247319 0.473546 0.554831 -0.262476
C86   C     C_3   0.752680 0.473546 0.445169 -0.262476
C87   C     C_3   0.747319 0.973546 0.554831 -0.262476
C88   C     C_3   0.252680 0.973546 0.445169 -0.262476
C89   C     C_R   0.262282 0.639253 0.854238 0.560932
C90   C     C_R   0.737718 0.639253 0.145762 0.560931
C91   C     C_R   0.762282 0.139253 0.854238 0.560931
C92   C     C_R   0.237718 0.139253 0.145762 0.560932
C93   C     C_3   0.317412 0.648531 0.524366 -0.219270
C94   C     C_3   0.682588 0.648531 0.475634 -0.219270
C95   C     C_3   0.817412 0.148531 0.524366 -0.219270
C96   C     C_3   0.182588 0.148531 0.475634 -0.219270
C97   C     C_R   0.272990 0.043162 0.645721 0.540810
C98   C     C_R   0.727010 0.043162 0.354279 0.540810
C99   C     C_R   0.772990 0.543162 0.645721 0.540810
C100  C     C_R   0.227010 0.543162 0.354279 0.540810
C101  C     C_R   0.468546 0.823058 0.645377 0.534756
C102  C     C_R   0.531454 0.823058 0.354623 0.534756
C103  C     C_R   0.968546 0.323058 0.645377 0.534755
C104  C     C_R   0.031454 0.323058 0.354623 0.534756
C105  C     C_R   0.260880 0.640271 0.643553 0.540899
C106  C     C_R   0.739120 0.640271 0.356447 0.540899
C107  C     C_R   0.760880 0.140271 0.643553 0.540899
C108  C     C_R   0.239120 0.140271 0.356447 0.540899
C109  C     C_3   0.479836 0.918150 0.035741 -0.106405
C110  C     C_3   0.520164 0.918150 0.964259 -0.106405
C111  C     C_3   0.979836 0.418150 0.035741 -0.106405
C112  C     C_3   0.020164 0.418150 0.964259 -0.106405
C113  C     C_3   0.431473 0.821116 0.006524 -0.179630
C114  C     C_3   0.568527 0.821116 0.993476 -0.179630
C115  C     C_3   0.931473 0.321116 0.006524 -0.179630
C116  C     C_3   0.068527 0.321116 0.993476 -0.179630
C117  C     C_3   0.471945 0.821954 0.935951 0.050647
C118  C     C_3   0.528055 0.821953 0.064049 0.050647
C119  C     C_3   0.971945 0.321953 0.935951 0.050647
C120  C     C_3   0.028055 0.321954 0.064049 0.050647
Cr1   Cr    Cr6+3 0.229620 0.836040 0.749110 1.001569
Cr2   Cr    Cr6+3 0.770380 0.836040 0.250890 1.001569
Cr3   Cr    Cr6+3 0.729620 0.336040 0.749110 1.001569
Cr4   Cr    Cr6+3 0.270380 0.336040 0.250890 1.001569
Cr5   Cr    Cr6+3 0.387630 0.990680 0.750730 1.029304
Cr6   Cr    Cr6+3 0.612370 0.990680 0.249270 1.029305
Cr7   Cr    Cr6+3 0.887630 0.490680 0.750730 1.029304
Cr8   Cr    Cr6+3 0.112370 0.490680 0.249270 1.029304
Cr9   Cr    Cr6+3 0.386020 0.676590 0.749210 1.070625
Cr10  Cr    Cr6+3 0.613980 0.676590 0.250790 1.070629
Cr11  Cr    Cr6+3 0.886020 0.176590 0.749210 1.070629
Cr12  Cr    Cr6+3 0.113980 0.176590 0.250790 1.070624
H1    H     H_    0.376960 0.809771 0.019603 0.082345
H2    H     H_    0.623040 0.809771 0.980397 0.082344
H3    H     H_    0.876960 0.309771 0.019603 0.082344
H4    H     H_    0.123040 0.309771 0.980397 0.082344
H5    H     H_    0.199042 0.738367 0.079822 0.254275
H6    H     H_    0.800958 0.738367 0.920178 0.254275
H7    H     H_    0.699042 0.238367 0.079822 0.254275
H8    H     H_    0.300958 0.238367 0.920178 0.254275
H9    H     H_    0.290988 0.737579 0.079006 0.101779
H10   H     H_    0.709012 0.737579 0.920994 0.101779
H11   H     H_    0.790987 0.237579 0.079006 0.101779
H12   H     H_    0.209012 0.237579 0.920994 0.101779
H13   H     H_    0.273233 0.788080 0.956782 0.095853
H14   H     H_    0.726767 0.788080 0.043218 0.095853
H15   H     H_    0.773233 0.288080 0.956782 0.095853
H16   H     H_    0.226767 0.288081 0.043218 0.095853
H17   H     H_    0.185593 0.739728 0.959086 0.197585
H18   H     H_    0.814407 0.739728 0.040914 0.197585
H19   H     H_    0.685593 0.239728 0.959086 0.197585
H20   H     H_    0.314407 0.239728 0.040914 0.197585
H21   H     H_    0.635507 0.071941 0.031392 0.177305
H22   H     H_    0.364493 0.071941 0.968608 0.177305
H23   H     H_    0.135507 0.571941 0.031392 0.177305
H24   H     H_    0.864493 0.571941 0.968608 0.177305
H25   H     H_    0.153585 0.535435 0.912284 0.130083
H26   H     H_    0.846415 0.535435 0.087716 0.130083
H27   H     H_    0.653585 0.035435 0.912284 0.130083
H28   H     H_    0.346415 0.035435 0.087716 0.130083
H29   H     H_    0.546676 0.645097 0.446183 0.136363
H30   H     H_    0.453324 0.645097 0.553817 0.136363
H31   H     H_    0.046676 0.145097 0.446183 0.136363
H32   H     H_    0.953324 0.145097 0.553817 0.136363
H33   H     H_    0.458422 0.657582 0.435666 0.115930
H34   H     H_    0.541578 0.657582 0.564334 0.115930
H35   H     H_    0.958422 0.157582 0.435666 0.115930
H36   H     H_    0.041578 0.157582 0.564334 0.115930
H37   H     H_    0.616837 0.895947 0.453812 0.111384
H38   H     H_    0.383163 0.895947 0.546188 0.111384
H39   H     H_    0.116837 0.395947 0.453812 0.111384
H40   H     H_    0.883163 0.395947 0.546188 0.111384
H41   H     H_    0.601422 0.830972 0.576225 0.110461
H42   H     H_    0.398578 0.830972 0.423775 0.110461
H43   H     H_    0.101422 0.330972 0.576225 0.110461
H44   H     H_    0.898578 0.330972 0.423775 0.110461
H45   H     H_    0.464416 0.998514 0.065352 0.137808
H46   H     H_    0.535584 0.998514 0.934648 0.137808
H47   H     H_    0.964416 0.498514 0.065352 0.137809
H48   H     H_    0.035584 0.498514 0.934648 0.137808
H49   H     H_    0.437606 0.972928 0.415989 0.111911
H50   H     H_    0.562394 0.972928 0.584011 0.111911
H51   H     H_    0.937606 0.472928 0.415989 0.111911
H52   H     H_    0.062394 0.472928 0.584011 0.111911
H53   H     H_    0.449516 0.997274 0.536451 0.119045
H54   H     H_    0.550484 0.997274 0.463549 0.119045
H55   H     H_    0.949516 0.497274 0.536451 0.119045
H56   H     H_    0.050484 0.497274 0.463549 0.119045
H57   H     H_    0.129172 0.609860 0.445678 0.135427
H58   H     H_    0.870828 0.609860 0.554322 0.135428
H59   H     H_    0.629172 0.109860 0.445678 0.135427
H60   H     H_    0.370828 0.109860 0.554322 0.135428
H61   H     H_    0.178982 0.734813 0.433656 0.118926
H62   H     H_    0.821018 0.734813 0.566344 0.118926
H63   H     H_    0.678982 0.234813 0.433656 0.118926
H64   H     H_    0.321018 0.234813 0.566344 0.118926
H65   H     H_    0.178728 0.752910 0.551316 0.135431
H66   H     H_    0.821272 0.752910 0.448684 0.135431
H67   H     H_    0.678728 0.252910 0.551316 0.135431
H68   H     H_    0.321272 0.252910 0.448684 0.135431
H69   H     H_    0.139305 0.616928 0.563936 0.117523
H70   H     H_    0.860694 0.616928 0.436063 0.117523
H71   H     H_    0.639305 0.116928 0.563936 0.117523
H72   H     H_    0.360694 0.116928 0.436063 0.117523
H73   H     H_    0.722339 0.881452 0.453905 0.111483
H74   H     H_    0.277661 0.881452 0.546095 0.111483
H75   H     H_    0.222339 0.381452 0.453905 0.111483
H76   H     H_    0.777661 0.381452 0.546095 0.111483
H77   H     H_    0.697960 0.939304 0.575560 0.111322
H78   H     H_    0.302040 0.939304 0.424440 0.111321
H79   H     H_    0.197960 0.439304 0.575560 0.111322
H80   H     H_    0.802040 0.439304 0.424440 0.111321
H81   H     H_    0.349622 0.608964 0.414127 0.111570
H82   H     H_    0.650378 0.608964 0.585873 0.111570
H83   H     H_    0.849622 0.108964 0.414127 0.111570
H84   H     H_    0.150378 0.108964 0.585873 0.111570
H85   H     H_    0.296784 0.737652 0.421780 0.110948
H86   H     H_    0.703216 0.737652 0.578220 0.110948
H87   H     H_    0.796784 0.237652 0.421780 0.110948
H88   H     H_    0.203216 0.237652 0.578220 0.110948
H89   H     H_    0.537486 0.645809 0.936042 0.180330
H90   H     H_    0.462514 0.645809 0.063958 0.180329
H91   H     H_    0.037486 0.145809 0.936042 0.180328
H92   H     H_    0.962514 0.145809 0.063958 0.180330
H93   H     H_    0.338375 0.731267 0.543359 0.111197
H94   H     H_    0.661625 0.731267 0.456641 0.111197
H95   H     H_    0.838375 0.231266 0.543359 0.111197
H96   H     H_    0.161625 0.231266 0.456641 0.111197
H97   H     H_    0.357773 0.581878 0.534654 0.119386
H98   H     H_    0.642227 0.581879 0.465346 0.119386
H99   H     H_    0.857773 0.081878 0.534654 0.119386
H100  H     H_    0.142227 0.081879 0.465346 0.119386
H101  H     H_    0.306931 0.429488 0.462696 0.119304
H102  H     H_    0.693069 0.429488 0.537304 0.119304
H103  H     H_    0.806931 0.929488 0.462696 0.119304
H104  H     H_    0.193069 0.929488 0.537304 0.119304
H105  H     H_    0.314716 0.424546 0.050310 0.175743
H106  H     H_    0.685284 0.424546 0.949690 0.175743
H107  H     H_    0.814716 0.924546 0.050310 0.175744
H108  H     H_    0.185284 0.924546 0.949690 0.175743
H109  H     H_    0.356354 0.554021 0.078766 0.105605
H110  H     H_    0.643646 0.554021 0.921234 0.105606
H111  H     H_    0.856354 0.054021 0.078766 0.105606
H112  H     H_    0.143646 0.054021 0.921234 0.105605
H113  H     H_    0.363887 0.631318 0.966194 0.121701
H114  H     H_    0.636112 0.631318 0.033806 0.121701
H115  H     H_    0.863888 0.131318 0.966194 0.121701
H116  H     H_    0.136112 0.131318 0.033806 0.121701
H117  H     H_    0.667281 0.932830 0.047556 0.101061
H118  H     H_    0.332719 0.932830 0.952444 0.101061
H119  H     H_    0.167281 0.432830 0.047556 0.101061
H120  H     H_    0.832719 0.432830 0.952444 0.101061
H121  H     H_    0.717917 0.925802 0.928238 0.158180
H122  H     H_    0.282083 0.925803 0.071762 0.158180
H123  H     H_    0.217917 0.425802 0.928238 0.158180
H124  H     H_    0.782083 0.425803 0.071762 0.158180
O1    O     O_R   0.214130 0.708570 0.829890 -0.535460
O2    O     O_R   0.785870 0.708570 0.170110 -0.535460
O3    O     O_R   0.714130 0.208570 0.829890 -0.535460
O4    O     O_R   0.285870 0.208570 0.170110 -0.535460
O5    O     O_R   0.446360 0.919990 0.675230 -0.509843
O6    O     O_R   0.553640 0.919990 0.324770 -0.509843
O7    O     O_R   0.946360 0.419990 0.675230 -0.509843
O8    O     O_R   0.053640 0.419990 0.324770 -0.509843
O9    O     O_R   0.457170 0.717300 0.668380 -0.531530
O10   O     O_R   0.542830 0.717300 0.331620 -0.531529
O11   O     O_R   0.957170 0.217300 0.668380 -0.531529
O12   O     O_R   0.042830 0.217300 0.331620 -0.531530
O13   O     O_R   0.320870 0.624890 0.673130 -0.504044
O14   O     O_R   0.679130 0.624890 0.326870 -0.504044
O15   O     O_R   0.820870 0.124890 0.673130 -0.504044
O16   O     O_R   0.179130 0.124890 0.326870 -0.504044
O17   O     O_3   0.334430 0.834430 0.749680 -0.306481
O18   O     O_3   0.665570 0.834430 0.250320 -0.306481
O19   O     O_3   0.834430 0.334430 0.749680 -0.306481
O20   O     O_3   0.165570 0.334430 0.250320 -0.306480
O21   O     O_R   0.236050 0.959150 0.825270 -0.517052
O22   O     O_R   0.763950 0.959150 0.174730 -0.517051
O23   O     O_R   0.736050 0.459150 0.825270 -0.517052
O24   O     O_R   0.263950 0.459150 0.174730 -0.517051
O25   O     O_R   0.332100 0.076650 0.832310 -0.493835
O26   O     O_R   0.667900 0.076650 0.167690 -0.493835
O27   O     O_R   0.832100 0.576650 0.832310 -0.493835
O28   O     O_R   0.167900 0.576650 0.167690 -0.493835
O29   O     O_R   0.446500 0.918620 0.826240 -0.507262
O30   O     O_R   0.553500 0.918620 0.173760 -0.507262
O31   O     O_R   0.946500 0.418620 0.826240 -0.507262
O32   O     O_R   0.053500 0.418620 0.173760 -0.507262
O33   O     O_R   0.457310 0.715830 0.831280 -0.468010
O34   O     O_R   0.542690 0.715830 0.168720 -0.468009
O35   O     O_R   0.957310 0.215830 0.831280 -0.468008
O36   O     O_R   0.042690 0.215830 0.168720 -0.468011
O37   O     O_R   0.321000 0.623520 0.824130 -0.432089
O38   O     O_R   0.679000 0.623520 0.175870 -0.432088
O39   O     O_R   0.821000 0.123520 0.824130 -0.432088
O40   O     O_R   0.179000 0.123520 0.175870 -0.432090
O41   O     O_R   0.213990 0.710040 0.667000 -0.534125
O42   O     O_R   0.786010 0.710040 0.333000 -0.534125
O43   O     O_R   0.713990 0.210040 0.667000 -0.534125
O44   O     O_R   0.286010 0.210040 0.333000 -0.534124
O45   O     O_R   0.235920 0.960520 0.674260 -0.513267
O46   O     O_R   0.764080 0.960520 0.325740 -0.513267
O47   O     O_R   0.735920 0.460520 0.674260 -0.513267
O48   O     O_R   0.264080 0.460520 0.325740 -0.513267
O49   O     O_R   0.331960 0.078120 0.669410 -0.525045
O50   O     O_R   0.668040 0.078120 0.330590 -0.525045
O51   O     O_R   0.831960 0.578120 0.669410 -0.525045
O52   O     O_R   0.168040 0.578120 0.330590 -0.525045
H125  H     H_    0.289702 0.426468 0.583094 0.115931
H126  H     H_    0.710297 0.426468 0.416906 0.115932
H127  H     H_    0.789702 0.926468 0.583094 0.115932
H128  H     H_    0.210297 0.926468 0.416906 0.115931
S1    S     S_3+6 0.376733 0.444504 0.916695 -0.028331
O53   O     O_2   0.398727 0.345774 0.965202 -0.334359
O54   O     O_2   0.335842 0.397207 0.854496 -0.317107
O55   O     O_3   0.449270 0.504466 0.884506 -0.497272
H129  H     H_    0.473335 0.439282 0.859725 0.364104
S2    S     S_3+6 0.623267 0.444504 0.083305 -0.028331
O56   O     O_2   0.601273 0.345774 0.034798 -0.334361
O57   O     O_2   0.664157 0.397207 0.145504 -0.317103
O58   O     O_3   0.550730 0.504466 0.115494 -0.497277
H130  H     H_    0.526663 0.439281 0.140270 0.364108
S3    S     S_3+6 0.876733 0.944504 0.916695 -0.028331
O59   O     O_2   0.898727 0.845774 0.965202 -0.334362
O60   O     O_2   0.835842 0.897207 0.854496 -0.317103
O61   O     O_3   0.949270 0.004466 0.884506 -0.497276
H131  H     H_    0.973337 0.939280 0.859730 0.364107
S4    S     S_3+6 0.123267 0.944504 0.083305 -0.028332
O62   O     O_2   0.101273 0.845774 0.034798 -0.334358
O63   O     O_2   0.164158 0.897207 0.145504 -0.317107
O64   O     O_3   0.050730 0.004466 0.115494 -0.497277
H132  H     H_    0.026666 0.939283 0.140276 0.364107

loop_
_geom_bond_atom_site_label_1
_geom_bond_atom_site_label_2
_ccdc_geom_bond_type
C82   C94   S    
C55   C59   S    
C83   C87   S    
C73   C93   S    
C47   O35   A    
C42   C58   S    
C29   C89   S    
C75   C95   S    
C48   C120  S    
Cr5   O17   S    
C24   H8    S    
C57   C102  S    
C59   C104  S    
Cr1   O21   S    
Cr2   O18   S    
C5    C6    S    
Cr10  O14   S    
Cr3   O23   S    
Cr11  O11   S    
C110  H46   S    
C22   C38   S    
C29   C33   S    
C30   C38   S    
C77   C100  S    
C44   H36   S    
C9    C13   S    
C72   C88   S    
C11   C15   S    
C49   H54   S    
C12   C16   S    
C102  O6    A    
C99   O51   A    
O61   H131  S    
C52   H55   S    
C103  O11   A    
C60   C103  S    
C15   S3    S    
C83   C107  S    
C88   H78   S    
C74   H82   S    
C111  H47   S    
C23   H11   S    
C64   H60   S    
C109  C118  S    
C16   H116  S    
C87   H127  S    
Cr5   O29   S    
C88   H128  S    
C50   C53   S    
S3    O59   D    
C46   O30   A    
C7    C119  S    
C33   H123  S    
Cr8   O32   S    
C62   H58   S    
C62   C66   S    
C72   H74   S    
C56   H52   S    
Cr3   O3    S    
C90   O38   A    
Cr12  O40   S    
O55   H129  S    
C100  O48   A    
C43   C44   S    
C1    O21   A    
C66   C82   S    
C7    H91   S    
C3    O23   A    
C11   C27   S    
C58   C101  S    
C106  O42   A    
C97   O45   A    
C4    O24   A    
C62   H62   S    
C17   H23   S    
C32   C40   S    
C18   H24   S    
C92   O40   A    
S2    O58   S    
Cr2   O46   S    
C3    C26   S    
Cr3   O43   S    
C84   C88   S    
Cr7   O19   S    
Cr12  O16   S    
C85   H79   S    
Cr10  O38   S    
Cr11  O35   S    
C17   C25   S    
C19   C35   S    
C76   C96   S    
C1    O25   A    
C32   C92   S    
C75   H83   S    
C98   O46   A    
C95   H95   S    
C67   H71   S    
C21   H9    S    
C61   C65   S    
C12   H108  S    
C86   H80   S    
O58   H130  S    
C78   C99   S    
C73   C77   S    
C104  O8    A    
C75   C79   S    
C6    H90   S    
Cr12  O20   S    
C67   C83   S    
Cr8   O52   S    
C80   C97   S    
C68   H72   S    
C11   H111  S    
C69   C77   S    
C111  C112  S    
C9    H109  S    
C52   H40   S    
C71   C79   S    
C4    C25   S    
Cr4   O24   S    
C7    C8    S    
C64   C68   S    
C76   H88   S    
S1    O54   D    
C39   H19   S    
C49   C57   S    
C40   H20   S    
C34   H124  S    
C69   H101  S    
C38   H14   S    
S2    O57   D    
C51   H56   S    
C52   C60   S    
C61   C77   S    
C12   H112  S    
C71   H103  S    
C110  C114  S    
C43   C59   S    
C112  H48   S    
C10   H106  S    
Cr6   O18   S    
C22   H10   S    
Cr2   O22   S    
Cr3   O19   S    
C81   C105  S    
C30   C34   S    
C73   H85   S    
C10   C14   S    
C36   H122  S    
C116  C120  S    
S3    O60   D    
Cr10  O10   S    
C7    C116  S    
C93   H93   S    
C71   H73   S    
C74   H86   S    
C114  H2    S    
C21   C37   S    
C66   H66   S    
C113  C117  S    
C72   H104  S    
Cr5   O25   S    
C31   C91   S    
Cr6   O30   S    
C9    H105  S    
Cr8   O28   S    
C61   H61   S    
C112  C116  S    
C69   C85   S    
C94   H98   S    
C45   C117  S    
C21   C25   S    
C45   O33   A    
C62   C78   S    
C24   C28   S    
S4    O62   D    
Cr4   O44   S    
C2    O22   A    
C42   H30   S    
C15   C31   S    
C43   H35   S    
C16   C32   S    
C97   O49   A    
C72   C80   S    
C107  O43   A    
C115  H3    S    
C64   H64   S    
C4    O28   A    
C82   C106  S    
Cr5   O49   S    
C55   H44   S    
C91   O3    A    
C66   H70   S    
C51   C59   S    
Cr5   O5    S    
C35   H121  S    
C113  H1    S    
C61   H57   S    
C81   C85   S    
Cr1   O1    S    
C14   S2    S    
C13   H113  S    
C41   H29   S    
C87   H77   S    
C41   C42   S    
C74   C94   S    
Cr9   O17   S    
C18   C26   S    
C30   C90   S    
C9    C25   S    
C2    O26   A    
C12   C28   S    
C13   C29   S    
C95   H99   S    
C67   H67   S    
C98   O50   A    
C45   O29   A    
C46   C118  S    
C22   C26   S    
C1    C28   S    
Cr1   O41   S    
C2    C27   S    
Cr10  O18   S    
C8    H92   S    
C52   C55   S    
C32   C36   S    
C64   C80   S    
C73   H81   S    
C17   C33   S    
S4    O64   S    
C110  C117  S    
C38   H18   S    
C33   H25   S    
C105  O13   A    
C69   H75   S    
C40   H16   S    
C107  O15   A    
C68   C84   S    
C76   C80   S    
C108  O16   A    
C53   C57   S    
C19   H117  S    
C85   H125  S    
C82   C86   S    
C17   H119  S    
C56   C60   S    
C115  C119  S    
C50   C58   S    
O64   H132  S    
C48   O36   A    
Cr7   O31   S    
C76   H84   S    
C65   C81   S    
Cr7   O51   S    
C50   H38   S    
C24   H12   S    
C71   C87   S    
C15   H115  S    
C31   C35   S    
C96   H96   S    
Cr9   O9    S    
C101  O9    A    
C37   H17   S    
C112  C119  S    
C116  H4    S    
C20   C28   S    
C22   H6    S    
C41   C57   S    
C47   O31   A    
C109  C110  S    
C49   H37   S    
C48   O32   A    
C89   O37   A    
S1    O53   D    
C44   C60   S    
C63   H59   S    
Cr6   O26   S    
C91   O39   A    
C84   C108  S    
Cr7   O7    S    
Cr8   O8    S    
Cr1   O17   S    
C94   H94   S    
C20   C36   S    
C109  H45   S    
Cr11  O15   S    
Cr4   O4    S    
C74   C78   S    
C29   C37   S    
C55   H51   S    
C44   H32   S    
C11   H107  S    
C42   H34   S    
C43   H31   S    
C5    H89   S    
C101  O5    A    
C5    C114  S    
C70   C78   S    
C79   C98   S    
C10   H110  S    
C63   C79   S    
C20   H22   S    
C54   H41   S    
C23   H7    S    
C75   H87   S    
Cr6   O50   S    
C46   O34   A    
C70   H76   S    
C49   C54   S    
Cr6   O6    S    
C19   H21   S    
C51   C56   S    
C84   C96   S    
Cr7   O27   S    
Cr8   O20   S    
C8    C115  S    
C20   H118  S    
Cr2   O2    S    
C18   H120  S    
C41   H33   S    
Cr12  O36   S    
Cr9   O37   S    
C19   C27   S    
C109  C113  S    
C10   C26   S    
C47   C119  S    
Cr9   O33   S    
C105  O41   A    
C14   C30   S    
C92   O4    A    
C53   H42   S    
C108  O44   A    
C63   C67   S    
C56   H43   S    
C89   O1    A    
S4    O63   D    
S1    O55   S    
Cr1   O45   S    
C21   H5    S    
C5    C117  S    
C111  C120  S    
Cr2   O42   S    
Cr3   O47   S    
C6    C113  S    
Cr11  O19   S    
S2    O56   D    
Cr4   O48   S    
C53   H49   S    
Cr12  O12   S    
C81   C93   S    
C16   S4    S    
C83   C95   S    
Cr10  O34   S    
C54   H50   S    
Cr11  O39   S    
C18   C34   S    
C114  C118  S    
C65   H65   S    
C34   H26   S    
C106  O14   A    
C23   C27   S    
C13   S1    S    
C70   C86   S    
C99   O47   A    
C8    C120  S    
C54   C58   S    
C93   H97   S    
C86   H126  S    
C104  O12   A    
C70   H102  S    
C68   H68   S    
S3    O61   S    
C51   H39   S    
Cr4   O20   S    
C23   C39   S    
C3    O27   A    
C24   C40   S    
C31   C39   S    
C63   H63   S    
C96   H100  S    
C35   H27   S    
Cr9   O13   S    
C36   H28   S    
C100  O52   A    
C65   H69   S    
C102  O10   A    
C39   H15   S    
C103  O7    A    
C111  C115  S    
C37   H13   S    
C50   H53   S    
C6    C118  S    
C14   H114  S    
C90   O2    A    
