data_mof_unit_7981.cif
_audit_creation_date              2012-12-10T17:09:50-0500
_audit_creation_method            fapswitch 2.2
_symmetry_space_group_name_H-M    P1
_symmetry_Int_Tables_number       1
_space_group_crystal_system       triclinic
_cell_length_a                    10.853755
_cell_length_b                    13.010521
_cell_length_c                    11.703355
_cell_angle_alpha                 99.49766
_cell_angle_beta                  94.286264
_cell_angle_gamma                 91.275286
_cell_volume                      1624.44729418

loop_
_atom_site_label
_atom_site_type_symbol
_atom_type_description
_atom_site_fract_x
_atom_site_fract_y
_atom_site_fract_z
_atom_type_partial_charge
C1    C     C_R   0.496044 0.299385 0.478872 0.788905
C2    C     C_R   0.072300 0.530982 0.610586 0.066815
C3    C     C_R   0.128842 0.516582 0.504019 -0.079017
C4    C     C_R   0.055388 0.495524 0.398795 -0.215831
C5    C     C_R   0.928309 0.486135 0.398718 -0.205610
C6    C     C_R   0.872830 0.487498 0.503187 -0.097192
C7    C     C_R   0.491342 0.814043 0.532015 -0.062219
C8    C     C_R   0.485530 0.186560 0.466769 -0.041770
C9    C     C_R   0.421668 0.019688 0.351718 -0.230733
C10   C     C_R   0.436812 0.127039 0.361756 -0.193167
C11   C     C_R   0.519747 0.138357 0.561822 -0.261215
C12   C     C_R   0.262776 0.508302 0.501212 0.792798
C13   C     C_R   0.506699 0.030712 0.552230 0.153125
C14   C     C_R   0.457175 0.969925 0.446307 0.133849
C15   C     C_R   0.445860 0.860957 0.437492 0.062050
C16   C     C_R   0.534585 0.876031 0.637539 -0.262196
C17   C     C_R   0.542317 0.983508 0.647638 -0.221687
C18   C     C_R   0.361712 0.423968 0.024500 -0.311653
C19   C     C_R   0.377768 0.428115 0.145697 -0.003253
C20   C     C_R   0.562569 0.532169 0.156146 0.616431
C21   C     C_R   0.551373 0.526211 0.032702 -0.089840
C22   C     C_R   0.448677 0.473503 0.966898 0.006430
C23   C     C_R   0.496885 0.700670 0.520885 0.822291
C24   C     C_R   0.437324 0.469838 0.844557 -0.073873
C25   C     C_R   0.622016 0.573415 0.853580 0.648965
C26   C     C_R   0.641102 0.570583 0.973529 -0.404271
C27   C     C_R   0.737809 0.493110 0.500216 0.810003
C28   C     C_R   0.134251 0.577709 0.717819 -0.326084
C29   C     C_R   0.083558 0.570967 0.822882 0.112032
C30   C     C_R   0.974119 0.512486 0.822403 0.524415
C31   C     C_R   0.905854 0.476975 0.715447 -0.271390
C32   C     C_R   0.948311 0.497668 0.609700 0.042115
Cu1   Cu    Cu3+1 0.509250 0.507730 0.615930 0.960101
Cu2   Cu    Cu3+1 0.490750 0.492270 0.384070 0.975954
H1    H     H_    0.095955 0.486840 0.316080 0.166637
H2    H     H_    0.578343 0.029618 0.729537 0.139607
H3    H     H_    0.408464 0.163626 0.287766 0.153443
H4    H     H_    0.557428 0.184532 0.643200 0.146576
H5    H     H_    0.360100 0.426996 0.792859 0.153158
H6    H     H_    0.281703 0.382144 0.976209 0.152063
H7    H     H_    0.726805 0.601675 0.019605 0.207736
H8    H     H_    0.309938 0.389347 0.188511 0.140237
H9    H     H_    0.219827 0.622722 0.721354 0.183873
H10   H     H_    0.820797 0.432984 0.716371 0.164864
H11   H     H_    0.873575 0.476445 0.316258 0.199134
H12   H     H_    0.564630 0.841344 0.712196 0.172948
H13   H     H_    0.382981 0.976777 0.269317 0.134978
N1    N     N_R   0.523180 0.519350 0.790130 -0.217720
N2    N     N_R   0.476820 0.480650 0.209890 -0.211517
O1    O     O_R   0.506570 0.354460 0.582000 -0.595123
O2    O     O_R   0.490940 0.341410 0.386200 -0.593305
O3    O     O_R   0.327470 0.506530 0.597920 -0.599504
O4    O     O_R   0.311840 0.493480 0.402120 -0.592318
O5    O     O_R   0.509060 0.658590 0.613800 -0.576700
O6    O     O_R   0.493430 0.645540 0.418000 -0.554967
O7    O     O_R   0.688160 0.506520 0.597880 -0.540466
O8    O     O_R   0.672530 0.493470 0.402080 -0.537426
O9    O     O_3   0.708819 0.620129 0.795685 -0.544447
C33   C     C_3   0.744237 0.722116 0.852056 0.042867
H14   H     H_    0.805345 0.720736 0.932203 0.156727
H15   H     H_    0.661951 0.769001 0.873673 0.113853
C34   C     C_3   0.818559 0.774804 0.771285 -0.769814
H16   H     H_    0.766060 0.770830 0.685485 0.249680
H17   H     H_    0.839132 0.857766 0.809969 0.191159
H18   H     H_    0.907026 0.734951 0.757898 0.247785
O10   O     O_3   0.667540 0.578391 0.221094 -0.578114
C35   C     C_3   0.670876 0.688426 0.229314 0.049906
H19   H     H_    0.626399 0.724590 0.306844 0.196481
H20   H     H_    0.624067 0.717051 0.153289 0.103103
C36   C     C_3   0.805025 0.728460 0.245643 -0.824471
H21   H     H_    0.856342 0.694378 0.170733 0.256302
H22   H     H_    0.808860 0.814707 0.253254 0.203164
H23   H     H_    0.850544 0.706933 0.326176 0.260657
N3    N     N_3   0.144528 0.621525 0.930831 -0.550760
H24   H     H_    0.234557 0.595176 0.936721 0.220640
H25   H     H_    0.150491 0.701472 0.928597 0.207123
O11   O     O_3   0.929079 0.502584 0.928067 -0.564944
C37   C     C_3   0.898321 0.397251 0.932301 0.044310
H26   H     H_    0.968031 0.343319 0.892995 0.123054
H27   H     H_    0.805332 0.375270 0.887308 0.145745
C38   C     C_3   0.893704 0.384025 0.058604 -0.776011
H28   H     H_    0.822817 0.434670 0.099789 0.269340
H29   H     H_    0.869389 0.301618 0.063562 0.193198
H30   H     H_    0.985225 0.405575 0.106664 0.241054
N4    N     N_3   0.385569 0.797756 0.335363 -0.583907
H31   H     H_    0.295359 0.822655 0.322958 0.220363
H32   H     H_    0.433521 0.806911 0.263321 0.194471

loop_
_geom_bond_atom_site_label_1
_geom_bond_atom_site_label_2
_ccdc_geom_bond_type
C6    C32   A    
C21   C26   A    
C1    C8    S    
C27   O7    A    
C38   H28   S    
O11   C37   S    
Cu1   O3    S    
Cu2   O2    S    
C34   H16   S    
N3    H25   S    
C10   H3    S    
C20   O10   S    
C28   C29   A    
C30   C31   A    
C37   H27   S    
C24   H5    S    
C2    C32   A    
C18   C19   A    
C18   H6    S    
C34   H17   S    
C3    C12   S    
C12   O3    A    
C30   O11   S    
C31   C32   A    
C16   C17   A    
C33   C34   S    
Cu2   O8    S    
C36   H21   S    
C17   H2    S    
C1    O1    A    
C12   O4    A    
C19   H8    S    
C15   N4    S    
Cu1   O7    S    
C7    C15   A    
O10   C35   S    
C4    H1    S    
C33   H14   S    
C21   C22   A    
C38   H29   S    
N4    H32   S    
C33   H15   S    
C31   H10   S    
C35   H19   S    
C24   N1    A    
N3    H24   S    
C16   H12   S    
C37   H26   S    
C29   N3    S    
C25   C26   A    
N4    H31   S    
C5    H11   S    
C35   H20   S    
C11   H4    S    
C9    C14   A    
C29   C30   A    
C20   N2    A    
C19   N2    A    
C6    C27   S    
C36   H23   S    
Cu1   Cu2   S    
C1    O2    A    
C25   N1    A    
C7    C16   A    
C9    H13   S    
C27   O8    A    
C22   C24   A    
O9    C33   S    
C25   O9    S    
C3    C4    A    
C38   H30   S    
C23   O5    A    
C9    C10   A    
Cu1   O5    S    
Cu2   N2    S    
C34   H18   S    
C18   C22   A    
C4    C5    A    
C2    C28   A    
C23   O6    A    
C28   H9    S    
C13   C17   A    
C35   C36   S    
C2    C3    A    
Cu1   O1    S    
C11   C13   A    
C37   C38   S    
C5    C6    A    
C8    C11   A    
C7    C23   S    
Cu2   O6    S    
C20   C21   A    
Cu2   O4    S    
C8    C10   A    
Cu1   N1    S    
C14   C15   A    
C36   H22   S    
C13   C14   A    
C26   H7    S    
