data_mof_unit_65069.cif
_audit_creation_date              2012-12-11T15:03:13-0500
_audit_creation_method            fapswitch 2.2
_symmetry_space_group_name_H-M    P1
_symmetry_Int_Tables_number       1
_space_group_crystal_system       triclinic
_cell_length_a                    13.28204
_cell_length_b                    13.239734
_cell_length_c                    26.73814
_cell_angle_alpha                 96.840675
_cell_angle_beta                  96.629363
_cell_angle_gamma                 61.540546
_cell_volume                      4095.00087008

loop_
_atom_site_label
_atom_site_type_symbol
_atom_type_description
_atom_site_fract_x
_atom_site_fract_y
_atom_site_fract_z
_atom_type_partial_charge
C1    C     C_R   0.379110 0.722993 0.435044 0.546778
C2    C     C_3   0.950265 0.273290 0.213696 0.008374
C3    C     C_3   0.922115 0.383848 0.282766 0.117257
C4    C     C_R   0.394841 0.372620 0.418102 0.549867
C5    C     C_3   0.892961 0.302822 0.307548 0.011828
C6    C     C_3   0.845844 0.378929 0.235403 0.115291
C7    C     C_3   0.816718 0.297651 0.260428 0.111004
C8    C     C_1   0.972518 0.262029 0.160385 0.011722
C9    C     C_1   0.846872 0.327061 0.357246 0.015237
C10   C     C_3   0.396617 0.877072 0.270283 0.097086
C11   C     C_3   0.433944 0.779326 0.227375 -0.090635
C12   C     C_1   0.325949 0.335547 0.269078 0.044802
C13   C     C_1   0.300556 0.892507 0.101562 0.027600
C14   C     C_1   0.360917 0.772357 0.388550 0.022790
C15   C     C_3   0.283734 0.950246 0.239149 -0.124194
C16   C     C_R   0.726503 0.398399 0.437505 0.551310
C17   C     C_3   0.320837 0.851568 0.197094 -0.003392
C18   C     C_3   0.222641 0.894601 0.263269 -0.118945
C19   C     C_3   0.335667 0.822324 0.293767 0.028052
C20   C     C_3   0.258631 0.797545 0.220124 0.149208
C21   C     C_3   0.370724 0.727136 0.250959 0.149196
C22   C     C_1   0.313714 0.868879 0.144284 -0.010079
C23   C     C_1   0.341492 0.343521 0.321949 0.014098
C24   C     C_1   0.347799 0.800565 0.346498 -0.004820
C25   C     C_3   0.371399 0.237203 0.724548 -0.125055
C26   C     C_3   0.428766 0.284683 0.768090 -0.093423
C27   C     C_1   0.298060 0.310390 0.888258 -0.002864
C28   C     C_R   0.381438 0.724763 0.575428 0.542297
C29   C     C_1   0.361566 0.360001 0.603659 -0.001649
C30   C     C_3   0.258390 0.294094 0.751981 -0.110961
C31   C     C_3   0.315596 0.342282 0.794678 0.022656
C32   C     C_3   0.215339 0.405875 0.724584 -0.115790
C33   C     C_3   0.328050 0.348535 0.697839 0.053057
C34   C     C_1   0.361544 0.353634 0.366669 0.035711
C35   C     C_3   0.271784 0.454425 0.768323 -0.069346
C36   C     C_3   0.383683 0.395516 0.740937 0.175898
C37   C     C_1   0.307475 0.330451 0.847084 -0.051061
C38   C     C_1   0.341753 0.352764 0.645215 -0.041222
C39   C     C_1   0.887750 0.294338 0.865005 -0.007380
C40   C     C_R   0.395490 0.375922 0.558083 0.544110
C41   C     C_1   0.859153 0.306582 0.820751 -0.047271
C42   C     C_1   0.835299 0.321265 0.768482 -0.010060
C43   C     C_1   0.818031 0.335134 0.723931 -0.008769
C44   C     C_1   0.795966 0.354184 0.672013 -0.044351
C45   C     C_3   0.997815 0.196702 0.286269 -0.146881
C46   C     C_1   0.769806 0.374211 0.628223 -0.004875
C47   C     C_1   0.294438 0.891572 0.863514 -0.006703
C48   C     C_1   0.314744 0.863014 0.819889 -0.048074
C49   C     C_1   0.332598 0.839347 0.767993 -0.005926
C50   C     C_1   0.344453 0.822067 0.723338 0.002980
C51   C     C_1   0.356260 0.799505 0.670960 -0.033816
C52   C     C_R   0.723813 0.403937 0.577722 0.541963
C53   C     C_1   0.366640 0.772317 0.626560 -0.000003
C54   C     C_R   0.000930 0.254971 0.063833 0.559709
C55   C     C_R   0.287426 0.271320 0.073388 0.538296
C56   C     C_3   0.921500 0.192181 0.238490 0.113032
C57   C     C_R   0.270018 0.937635 0.053708 0.537845
C58   C     C_R   0.936562 0.279253 0.916019 0.556392
C59   C     C_R   0.281975 0.274278 0.933238 0.548813
C60   C     C_R   0.262981 0.940378 0.913496 0.544859
C61   C     C_1   0.302320 0.301669 0.125663 0.017174
C62   C     C_1   0.310013 0.317720 0.170766 -0.019342
C63   C     C_1   0.317334 0.328801 0.223765 0.024930
C64   C     C_3   0.491698 0.495388 0.778138 -0.295550
C65   C     C_3   0.443899 0.531980 0.210847 -0.247603
C66   C     C_1   0.985105 0.257685 0.116161 0.028454
C67   C     C_1   0.796427 0.355232 0.395232 0.031628
C68   C     C_3   0.027556 0.278043 0.260585 -0.145983
Cr1   Cr    Cr6+3 0.585520 0.589730 0.508860 1.057589
Cr2   Cr    Cr6+3 0.329140 0.580910 0.495080 1.060982
Cr3   Cr    Cr6+3 0.585350 0.329380 0.496090 1.062451
Cr4   Cr    Cr6+3 0.077110 0.074680 0.982320 1.057062
Cr5   Cr    Cr6+3 0.079190 0.334150 0.996330 1.057947
Cr6   Cr    Cr6+3 0.334370 0.081620 0.994860 1.050472
H1    H     H_    0.136854 0.937912 0.278631 0.150942
H2    H     H_    0.519548 0.733179 0.211960 0.175709
H3    H     H_    0.516477 0.400407 0.708852 0.255373
H4    H     H_    0.538371 0.539782 0.767736 0.156498
H5    H     H_    0.550874 0.424513 0.802160 0.142037
H6    H     H_    0.417802 0.559031 0.799730 0.158629
H7    H     H_    0.476595 0.575577 0.286384 0.277537
H8    H     H_    0.433650 0.455186 0.214724 0.189151
H9    H     H_    0.533578 0.504437 0.203165 0.185900
H10   H     H_    0.388494 0.575375 0.177690 0.173357
H11   H     H_    0.247651 0.043078 0.233252 0.132473
H12   H     H_    0.516189 0.237115 0.786511 0.114084
H13   H     H_    0.410848 0.148677 0.705916 0.120516
H14   H     H_    0.232606 0.543007 0.786892 0.114387
H15   H     H_    0.128276 0.454060 0.705946 0.120827
H16   H     H_    0.206032 0.251842 0.757540 0.124675
H17   H     H_    0.059276 0.125009 0.309133 0.128269
H18   H     H_    0.114442 0.270142 0.259903 0.135653
I1    I     I_    0.915147 0.044805 0.199683 -0.239684
I2    I     I_    0.146739 0.734501 0.181196 -0.271013
I3    I     I_    0.658981 0.294131 0.266043 -0.349290
I4    I     I_    0.739293 0.523435 0.192286 -0.329736
I5    I     I_    0.927373 0.533782 0.319716 -0.258812
I6    I     I_    0.504160 0.943241 0.310000 -0.288890
N1    N     N_2   0.452145 0.449841 0.732834 -0.512051
N2    N     N_2   0.414801 0.605988 0.257055 -0.493163
O1    O     O_R   0.700650 0.499560 0.456090 -0.493191
O2    O     O_R   0.362310 0.174000 0.055490 -0.491563
O3    O     O_R   0.326800 0.983030 0.039600 -0.495178
O4    O     O_R   0.479220 0.682850 0.457510 -0.487961
O5    O     O_R   0.165220 0.960770 0.926060 -0.502989
O6    O     O_R   0.978660 0.179890 0.932950 -0.488123
O7    O     O_R   0.960490 0.356500 0.937600 -0.495841
O8    O     O_R   0.182720 0.328380 0.950570 -0.492938
O9    O     O_R   0.356860 0.175610 0.946640 -0.499173
O10   O     O_R   0.321740 0.984530 0.938700 -0.489430
O11   O     O_3   0.163560 0.163490 0.991170 -0.293884
O12   O     O_R   0.338920 0.475010 0.540740 -0.492069
O13   O     O_R   0.304230 0.696360 0.445090 -0.496924
O14   O     O_R   0.337790 0.472640 0.439840 -0.490282
O15   O     O_R   0.493310 0.300190 0.435520 -0.486372
O16   O     O_R   0.681220 0.340950 0.451270 -0.486051
O17   O     O_R   0.701870 0.502110 0.564940 -0.504401
O18   O     O_R   0.480360 0.685220 0.558410 -0.496162
O19   O     O_R   0.305450 0.698920 0.553940 -0.499946
O20   O     O_R   0.494530 0.302750 0.544370 -0.505258
O21   O     O_R   0.682350 0.343320 0.552170 -0.495267
O22   O     O_3   0.500010 0.500010 0.500010 -0.265754
O23   O     O_R   0.170670 0.959150 0.034900 -0.500788
O24   O     O_R   0.983710 0.178390 0.033850 -0.478680
O25   O     O_R   0.965940 0.354890 0.046440 -0.478090
O26   O     O_R   0.187770 0.326880 0.051460 -0.508845

loop_
_geom_bond_atom_site_label_1
_geom_bond_atom_site_label_2
_ccdc_geom_bond_type
C15   C18   S    
C8    C66   T    
C18   H1    S    
C41   C42   S    
C4    O15   A    
C3    C68   S    
C30   H16   S    
C3    C6    S    
C33   C36   S    
Cr6   O9    S    
C39   C41   T    
Cr2   O14   S    
C12   C23   S    
Cr3   O20   S    
C4    O14   A    
C19   C21   S    
C18   C19   S    
C2    C68   S    
C10   C15   S    
C30   C31   S    
Cr5   O7    S    
C13   C57   S    
Cr5   O26   S    
C46   C52   S    
Cr1   O18   S    
C25   H13   S    
C17   C20   S    
C58   O7    A    
C52   O21   A    
C14   C24   T    
C10   I6    S    
C3    I5    S    
C54   O24   A    
Cr3   O22   S    
C59   O9    A    
C47   C60   S    
C64   N1    S    
C47   C48   T    
C45   C56   S    
C29   C38   T    
Cr3   O16   S    
Cr2   O19   S    
Cr6   O2    S    
C52   O17   A    
Cr4   O11   S    
C26   C31   S    
Cr4   O24   S    
C64   H6    S    
C2    C6    S    
C1    O13   A    
C7    C56   S    
C16   O16   A    
C44   C46   T    
Cr5   O11   S    
Cr2   O13   S    
C56   I1    S    
C57   O3    A    
C54   O25   A    
C4    C34   S    
C65   H10   S    
C32   C35   S    
C40   O12   A    
Cr6   O11   S    
C5    C7    S    
C21   N2    S    
Cr5   O8    S    
C25   C26   S    
C39   C58   S    
C5    C45   S    
C11   C21   S    
C31   C37   S    
C58   O6    A    
C35   C36   S    
C43   C44   S    
C9    C67   T    
C5    C9    S    
C62   C63   S    
C57   O23   A    
C35   H14   S    
Cr2   O22   S    
C32   H15   S    
C55   O2    A    
C55   O26   A    
C10   C19   S    
C26   H12   S    
C23   C34   T    
C45   C68   S    
C50   C51   S    
Cr3   O15   S    
C16   C67   S    
Cr4   O5    S    
C1    O4    A    
Cr2   O12   S    
C2    C56   S    
C26   C36   S    
C48   C49   S    
C40   O20   A    
Cr4   O6    S    
C6    I4    S    
Cr4   O23   S    
C64   H5    S    
C31   C35   S    
C42   C43   T    
Cr1   O4    S    
C25   C30   S    
C15   C17   S    
C20   I2    S    
C11   C17   S    
C64   H4    S    
Cr3   O21   S    
C2    C8    S    
C59   O8    A    
C65   N2    S    
C3    C5    S    
C28   O19   A    
Cr6   O10   S    
C28   C53   S    
C6    C7    S    
C54   C66   S    
H7    N2    S    
Cr1   O1    S    
C7    I3    S    
C17   C22   S    
C15   H11   S    
C11   H2    S    
C32   C33   S    
C19   C24   S    
C27   C59   S    
C30   C32   S    
C65   H8    S    
Cr1   O22   S    
C27   C37   T    
Cr5   O25   S    
C55   C61   S    
C29   C40   S    
Cr1   O17   S    
C68   H18   S    
C13   C22   T    
H3    N1    S    
C36   N1    S    
C18   C20   S    
C61   C62   T    
C45   H17   S    
C60   O10   A    
C10   C11   S    
C16   O1    A    
C20   C21   S    
C49   C50   T    
C33   C38   S    
C28   O18   A    
C1    C14   S    
C51   C53   T    
C12   C63   T    
C65   H9    S    
C60   O5    A    
C25   C33   S    
Cr6   O3    S    
