data_mof_unit_63180.cif
_audit_creation_date              2012-10-26T20:55:07-0400
_audit_creation_method            fapswitch 2.2
_symmetry_space_group_name_H-M    P1
_symmetry_Int_Tables_number       1
_space_group_crystal_system       triclinic
_cell_length_a                    10.73752
_cell_length_b                    15.792907
_cell_length_c                    17.119322
_cell_angle_alpha                 96.239122
_cell_angle_beta                  90.251639
_cell_angle_gamma                 92.478065
_cell_volume                      2883.02314473

loop_
_atom_site_label
_atom_site_type_symbol
_atom_type_description
_atom_site_fract_x
_atom_site_fract_y
_atom_site_fract_z
_atom_type_partial_charge
C1    C     C_R   0.499131 0.489681 0.348545 0.545329
C2    C     C_R   0.492710 0.404646 0.217110 -0.156482
C3    C     C_R   0.497049 0.445613 0.856377 -0.082264
C4    C     C_R   0.259563 0.500009 0.500001 0.542558
C5    C     C_R   0.496554 0.440958 0.774860 -0.145952
C6    C     C_R   0.502798 0.525671 0.902061 0.229294
C7    C     C_R   0.501736 0.515732 0.737456 0.021430
C8    C     C_R   0.507696 0.595370 0.782880 -0.140090
C9    C     C_R   0.508202 0.600031 0.864575 -0.104349
C10   C     C_R   0.438538 0.751563 0.462496 0.015281
C11   C     C_R   0.442108 0.840939 0.464633 -0.120082
C12   C     C_3   0.878169 0.499248 0.500298 0.059677
C13   C     C_R   0.525987 0.891224 0.516008 0.210040
C14   C     C_R   0.603622 0.848710 0.563638 -0.138695
C15   C     C_R   0.596998 0.759234 0.559657 0.019470
C16   C     C_R   0.500945 0.510321 0.651454 0.577984
C17   C     C_R   0.558477 0.159021 0.535004 -0.120156
C18   C     C_R   0.562060 0.248396 0.537122 0.013870
C19   C     C_R   0.473953 0.108762 0.484054 0.209976
C20   C     C_R   0.402369 0.240772 0.440765 0.019941
C21   C     C_R   0.395726 0.151299 0.436806 -0.138395
C22   C     C_R   0.740373 0.499739 0.500048 0.592817
C23   C     C_3   0.931909 0.550843 0.576365 0.242240
C24   C     C_3   0.065356 0.406818 0.496068 -0.235900
C25   C     C_3   0.922761 0.406569 0.495943 -0.215252
C26   C     C_3   0.075802 0.550497 0.576373 -0.179511
C27   C     C_3   0.073776 0.540766 0.428162 -0.260917
C28   C     C_3   0.121666 0.499624 0.500139 0.003129
C29   C     C_3   0.930008 0.540359 0.428124 -0.294289
C30   C     C_R   0.498568 0.484280 0.262542 0.003394
C31   C     C_R   0.503925 0.559060 0.225146 -0.162536
C32   C     C_R   0.503648 0.554414 0.143629 -0.088893
C33   C     C_R   0.497947 0.474361 0.097938 0.228139
C34   C     C_R   0.492421 0.399996 0.135415 -0.111000
Cu1   Cu    Cu3+1 0.493900 0.415220 0.496180 0.940232
Cu2   Cu    Cu3+1 0.506100 0.584780 0.503820 0.938739
F1    F     F_    0.886029 0.516581 0.642308 -0.648370
H1    H     H_    0.097789 0.375634 0.547338 0.144041
H2    H     H_    0.507910 0.613456 0.116805 0.136310
H3    H     H_    0.512726 0.661869 0.898958 0.118040
H4    H     H_    0.096806 0.368499 0.441838 0.124109
H5    H     H_    0.508379 0.621316 0.258792 0.129625
H6    H     H_    0.627071 0.286353 0.576376 0.131805
H7    H     H_    0.621238 0.130042 0.572880 0.122845
H8    H     H_    0.669292 0.884850 0.603855 0.105089
H9    H     H_    0.657465 0.727456 0.596748 0.129335
H10   H     H_    0.341423 0.272566 0.403984 0.118726
H11   H     H_    0.379859 0.869899 0.426426 0.120025
H12   H     H_    0.899643 0.606985 0.429298 0.123704
H13   H     H_    0.329566 0.115178 0.396912 0.102048
H14   H     H_    0.374020 0.713586 0.422917 0.119782
H15   H     H_    0.886105 0.368548 0.441451 0.114597
H16   H     H_    0.886846 0.374794 0.546804 0.175548
H17   H     H_    0.109774 0.521688 0.628596 0.163900
H18   H     H_    0.112005 0.607581 0.429672 0.128481
H19   H     H_    0.106134 0.505038 0.372860 0.125634
H20   H     H_    0.892749 0.504268 0.372877 0.125268
H21   H     H_    0.114639 0.617372 0.580953 0.092595
H22   H     H_    0.902933 0.617952 0.579466 0.124865
H23   H     H_    0.492057 0.378699 0.741220 0.131523
H24   H     H_    0.492890 0.386574 0.883206 0.136735
H25   H     H_    0.487936 0.338161 0.101026 0.117669
H26   H     H_    0.488392 0.345968 0.244568 0.130256
H27   H     H_    0.511912 0.654044 0.755413 0.131828
N1    N     N_2   0.497505 0.465557 0.014654 -0.250074
N2    N     N_2   0.503307 0.534481 0.985346 -0.250186
N3    N     N_R   0.515260 0.712130 0.509560 -0.224822
N4    N     N_2   0.535952 0.982926 0.521975 -0.242086
N5    N     N_2   0.463982 0.017062 0.478098 -0.242778
N6    N     N_R   0.484730 0.287850 0.490450 -0.225387
O1    O     O_R   0.494300 0.420530 0.382500 -0.509509
O2    O     O_R   0.504600 0.563720 0.388950 -0.510084
O3    O     O_R   0.312540 0.428400 0.496760 -0.510944
O4    O     O_R   0.322840 0.571590 0.503210 -0.510047
O5    O     O_R   0.495400 0.436280 0.611050 -0.501675
O6    O     O_R   0.505700 0.579470 0.617500 -0.501414
O7    O     O_R   0.677160 0.428410 0.496790 -0.504045
O8    O     O_R   0.687460 0.571600 0.503240 -0.511739

loop_
_geom_bond_atom_site_label_1
_geom_bond_atom_site_label_2
_ccdc_geom_bond_type
C18   N6    A    
C31   H5    S    
C12   C29   S    
C27   C29   S    
C16   O5    A    
Cu1   Cu2   S    
C3    C6    A    
C6    C9    A    
Cu2   N3    S    
C33   N1    S    
C7    C8    A    
C29   H12   S    
C10   N3    A    
C23   H22   S    
C12   C23   S    
Cu1   O5    S    
C1    O1    A    
C19   C21   A    
C25   H16   S    
C30   C31   A    
C27   H18   S    
C23   C26   S    
C12   C22   S    
C34   H25   S    
C32   H2    S    
Cu2   O6    S    
Cu1   N6    S    
N4    N5    D    
C24   H1    S    
C4    O4    A    
C2    C34   A    
Cu1   O1    S    
C13   C14   A    
C24   H4    S    
C20   N6    A    
C11   H11   S    
C10   H14   S    
C26   H17   S    
C21   H13   S    
C4    C28   S    
C33   C34   A    
C14   H8    S    
C3    H24   S    
C1    O2    A    
C24   C25   S    
C22   O8    A    
C5    C7    A    
C27   H19   S    
C8    C9    A    
C23   F1    S    
Cu1   O7    S    
C9    H3    S    
C31   C32   A    
C15   N3    A    
C17   C18   A    
C26   H21   S    
C4    O3    A    
Cu2   O4    S    
C8    H27   S    
C7    C16   S    
C29   H20   S    
C19   N5    S    
C2    H26   S    
Cu1   O3    S    
C5    H23   S    
C16   O6    A    
C24   C28   S    
C22   O7    A    
C3    C5    A    
C26   C28   S    
C12   C25   S    
C2    C30   A    
C32   C33   A    
C17   H7    S    
Cu2   O8    S    
C18   H6    S    
C11   C13   A    
C1    C30   S    
C17   C19   A    
C25   H15   S    
C20   H10   S    
C10   C11   A    
C6    N2    S    
C20   C21   A    
N1    N2    D    
C27   C28   S    
C14   C15   A    
C15   H9    S    
Cu2   O2    S    
C13   N4    S    
