data_mof_unit_19914.cif
_audit_creation_date              2012-12-10T20:43:43-0500
_audit_creation_method            fapswitch 2.2
_symmetry_space_group_name_H-M    P1
_symmetry_Int_Tables_number       1
_space_group_crystal_system       triclinic
_cell_length_a                    18.513167
_cell_length_b                    18.750612
_cell_length_c                    18.814891
_cell_angle_alpha                 109.383435
_cell_angle_beta                  109.143772
_cell_angle_gamma                 109.089682
_cell_volume                      5076.5856848

loop_
_atom_site_label
_atom_site_type_symbol
_atom_type_description
_atom_site_fract_x
_atom_site_fract_y
_atom_site_fract_z
_atom_type_partial_charge
C1    C     C_R   0.381258 0.502133 0.380544 0.868402
C2    C     C_R   0.320601 0.466245 0.989795 0.151689
C3    C     C_R   0.120489 0.118650 0.498787 0.870410
C4    C     C_R   0.003555 0.380310 0.882590 0.892474
C5    C     C_R   0.120136 0.499705 0.119800 0.896077
C6    C     C_R   0.999969 0.620259 0.120360 0.920681
C7    C     C_R   0.879883 0.497379 0.877339 0.872085
C8    C     C_R   0.058571 0.754330 0.540064 -0.129051
C9    C     C_R   0.064794 0.764376 0.471521 -0.087202
C10   C     C_R   0.988810 0.725692 0.392035 0.121285
C11   C     C_R   0.907335 0.672935 0.380679 -0.211738
C12   C     C_R   0.901310 0.663240 0.449419 -0.125052
C13   C     C_R   0.339364 0.545576 0.990105 -0.162413
C14   C     C_R   0.850119 0.706028 0.759486 -0.150568
C15   C     C_R   0.976764 0.704666 0.529327 -0.114962
C16   C     C_R   0.993139 0.674489 0.254370 0.049666
C17   C     C_R   0.001360 0.687661 0.187629 -0.128166
C18   C     C_R   0.016817 0.767174 0.188264 -0.057357
C19   C     C_R   0.015387 0.830861 0.251799 0.032227
C20   C     C_R   0.003240 0.815128 0.316509 -0.129190
C21   C     C_R   0.995205 0.738946 0.320123 -0.081854
C22   C     C_R   0.127348 0.840583 0.152430 -0.184364
C23   C     C_R   0.153109 0.854079 0.093218 0.126203
C24   C     C_R   0.077546 0.257388 0.748560 -0.263377
C25   C     C_R   0.088323 0.808010 0.004541 0.138791
C26   C     C_3   0.595975 0.905709 0.636067 -0.434984
C27   C     C_3   0.596558 0.894214 0.713249 -0.329828
C28   C     C_3   0.679577 0.966562 0.797508 -0.926837
C29   C     C_3   0.940164 0.102726 0.855971 -0.443829
C30   C     C_3   0.957697 0.029167 0.859758 -0.340326
C31   C     C_3   0.934788 0.963701 0.771219 -0.901303
C32   C     C_3   0.027698 0.915322 0.250391 -0.380388
C33   C     C_3   0.942036 0.902898 0.185636 -0.305764
C34   C     C_3   0.953236 0.988170 0.188163 -0.886141
C35   C     C_R   0.831677 0.797803 0.565266 -0.263855
C36   C     C_3   0.247841 0.915262 0.122349 -0.442007
C37   C     C_3   0.313630 0.957633 0.218826 -0.357516
C38   C     C_3   0.406082 0.015931 0.239637 -0.891084
C39   C     C_3   0.109556 0.813185 0.934707 -0.481053
C40   C     C_3   0.129633 0.740961 0.896467 -0.320565
C41   C     C_3   0.156499 0.748323 0.829702 -0.862460
C42   C     C_3   0.387339 0.452667 0.048322 -0.445603
C43   C     C_3   0.478479 0.532620 0.111735 -0.332807
C44   C     C_3   0.539551 0.511119 0.167114 -0.871416
C45   C     C_3   0.604156 0.067900 0.475964 -0.456672
C46   C     C_R   0.996769 0.184320 0.684739 -0.081857
C47   C     C_3   0.576371 0.104421 0.541834 -0.340372
C48   C     C_3   0.500870 0.120251 0.502304 -0.861857
C49   C     C_R   0.918259 0.176666 0.684360 -0.008772
C50   C     C_R   0.924025 0.241439 0.752503 -0.287527
C51   C     C_R   0.004692 0.315162 0.816136 -0.073738
C52   C     C_R   0.082553 0.324935 0.813187 0.021297
C53   C     C_R   0.762003 0.118921 0.577261 -0.189378
C54   C     C_R   0.822676 0.748764 0.812297 -0.111746
C55   C     C_R   0.676991 0.050081 0.514864 0.171620
C56   C     C_R   0.660640 0.964658 0.489488 -0.154027
C57   C     C_R   0.727604 0.948658 0.527722 -0.172035
C58   C     C_R   0.811303 0.017082 0.591431 -0.122751
C59   C     C_R   0.812949 0.804088 0.490107 -0.080851
C60   C     C_R   0.829826 0.102905 0.615690 0.103211
C61   C     C_R   0.729566 0.746350 0.415074 -0.004013
C62   C     C_R   0.667418 0.683685 0.418744 -0.287575
C63   C     C_R   0.685022 0.683368 0.496540 -0.073306
C64   C     C_R   0.766531 0.741455 0.570630 -0.018998
C65   C     C_R   0.001506 0.752042 0.979051 -0.155838
C66   C     C_R   0.628110 0.758397 0.298856 -0.150983
C67   C     C_R   0.602129 0.761649 0.221844 -0.162540
C68   C     C_R   0.650466 0.756772 0.178617 -0.137640
C69   C     C_R   0.618758 0.619383 0.498274 0.883160
C70   C     C_R   0.725268 0.749351 0.212714 -0.118016
C71   C     C_R   0.751714 0.746617 0.289954 -0.099657
C72   C     C_R   0.703389 0.751023 0.333795 0.135364
C73   C     C_R   0.434949 0.803298 0.528137 -0.207234
C74   C     C_R   0.366492 0.725151 0.453242 0.113609
C75   C     C_R   0.386707 0.669465 0.401356 0.118102
C76   C     C_R   0.976789 0.742537 0.038830 -0.186317
C77   C     C_R   0.474503 0.695385 0.423038 -0.198749
C78   C     C_R   0.541727 0.771984 0.498267 -0.161517
C79   C     C_R   0.522740 0.825870 0.552092 0.157488
C80   C     C_R   0.251555 0.579642 0.259086 -0.231911
C81   C     C_R   0.618261 0.497794 0.619646 0.888891
C82   C     C_R   0.185825 0.499990 0.186516 -0.081688
C83   C     C_R   0.183857 0.422068 0.178305 0.003335
C84   C     C_R   0.249812 0.425282 0.242885 -0.265876
C85   C     C_R   0.315800 0.504628 0.315754 -0.085830
C86   C     C_R   0.316960 0.583238 0.325304 0.019295
C87   C     C_R   0.039755 0.786007 0.125666 0.129804
C88   C     C_R   0.034636 0.290969 0.079498 -0.132543
C89   C     C_R   0.974952 0.214857 0.000325 -0.164177
C90   C     C_R   0.002117 0.184988 0.940527 0.207862
C91   C     C_R   0.089428 0.231088 0.961109 -0.177463
C92   C     C_R   0.148552 0.307131 0.039699 -0.214179
C93   C     C_R   0.378611 0.380294 0.499019 0.877790
C94   C     C_R   0.121108 0.338459 0.098293 0.113295
C95   C     C_R   0.196488 0.509761 0.560338 -0.159987
C96   C     C_R   0.222483 0.449056 0.566488 -0.182336
C97   C     C_R   0.221779 0.391368 0.495753 0.138486
C98   C     C_R   0.274855 0.552571 0.932038 0.113817
C99   C     C_R   0.197033 0.396534 0.419478 -0.171346
C100  C     C_R   0.169659 0.456445 0.412858 -0.166564
C101  C     C_R   0.167212 0.512120 0.482772 0.177593
C102  C     C_R   0.176005 0.254368 0.498658 -0.253722
C103  C     C_R   0.187445 0.184632 0.499268 -0.080560
C104  C     C_R   0.261985 0.179403 0.500502 -0.013738
C105  C     C_R   0.775435 0.788184 0.785298 -0.131079
C106  C     C_R   0.323268 0.244182 0.498750 -0.263580
C107  C     C_R   0.311955 0.314319 0.498662 -0.073946
C108  C     C_R   0.238292 0.320244 0.498975 0.002594
C109  C     C_R   0.191098 0.480482 0.874482 -0.110334
C110  C     C_R   0.319959 0.111340 0.581821 -0.111919
C111  C     C_R   0.333004 0.042457 0.583704 -0.152097
C112  C     C_R   0.303673 0.969427 0.506562 -0.103667
C113  C     C_R   0.261971 0.965524 0.427474 -0.135974
C114  C     C_R   0.249281 0.034525 0.425360 -0.184827
C115  C     C_R   0.276958 0.107163 0.502487 0.134970
C116  C     C_R   0.531263 0.558022 0.841455 -0.144472
C117  C     C_R   0.756392 0.785355 0.705880 -0.097722
C118  C     C_R   0.606179 0.566097 0.834008 0.157839
C119  C     C_R   0.600131 0.494695 0.769175 0.101898
C120  C     C_R   0.170194 0.402353 0.876166 0.067836
C121  C     C_R   0.519345 0.417497 0.714292 -0.177564
C122  C     C_R   0.445786 0.410631 0.723280 -0.130251
C123  C     C_R   0.451634 0.480845 0.786488 -0.152018
C124  C     C_R   0.742402 0.496867 0.819829 -0.260901
C125  C     C_R   0.813092 0.494788 0.809231 -0.083172
C126  C     C_R   0.818217 0.490635 0.734853 -0.003796
C127  C     C_R   0.751773 0.490326 0.672929 -0.239988
C128  C     C_R   0.682599 0.494841 0.684736 -0.065469
C129  C     C_R   0.785243 0.743523 0.653668 0.113673
C130  C     C_R   0.676733 0.497544 0.758199 -0.007351
C131  C     C_R   0.236050 0.395050 0.931602 -0.238854
C132  C     C_R   0.932216 0.536231 0.691324 -0.187579
C133  C     C_R   0.988673 0.520999 0.661623 0.179739
C134  C     C_R   0.001115 0.450033 0.656903 -0.167167
C135  C     C_R   0.956047 0.394318 0.680004 -0.182587
C136  C     C_R   0.899644 0.409665 0.709713 -0.122857
C137  C     C_R   0.887408 0.481057 0.715901 0.093304
C138  C     C_R   0.999394 0.878826 0.380743 0.884427
C139  C     C_R   0.879698 0.875579 0.495475 0.867934
C140  C     C_R   0.997909 0.118599 0.619490 0.873069
C141  C     C_R   0.832018 0.703767 0.680659 -0.184011
H1    H     H_    0.838001 0.751541 0.874049 0.116369
H2    H     H_    0.753868 0.821073 0.825890 0.118874
H3    H     H_    0.170961 0.695457 0.803534 0.265457
H4    H     H_    0.183734 0.744812 0.948647 0.202386
H5    H     H_    0.070744 0.676740 0.865289 0.239634
H6    H     H_    0.052849 0.806524 0.882543 0.204668
H7    H     H_    0.165497 0.877355 0.959835 0.199384
H8    H     H_    0.359014 0.679041 0.974599 0.169222
H9    H     H_    0.255381 0.655067 0.949710 0.172982
H10   H     H_    0.513990 0.491109 0.207072 0.259857
H11   H     H_    0.545865 0.458077 0.125572 0.257631
H12   H     H_    0.605584 0.569017 0.210722 0.258298
H13   H     H_    0.013229 0.313806 0.125302 0.134726
H14   H     H_    0.507754 0.555938 0.075470 0.227934
H15   H     H_    0.472631 0.584888 0.155111 0.226549
H16   H     H_    0.360779 0.429799 0.086370 0.202690
H17   H     H_    0.394496 0.400252 0.006813 0.201828
H18   H     H_    0.520462 0.167112 0.479428 0.258427
H19   H     H_    0.442535 0.058444 0.447206 0.268286
H20   H     H_    0.482941 0.147465 0.551710 0.255159
H21   H     H_    0.555131 0.057847 0.564670 0.220653
H22   H     H_    0.632713 0.166707 0.598512 0.219488
H23   H     H_    0.626665 0.114622 0.453683 0.203294
H24   H     H_    0.908042 0.179170 0.985905 0.119820
H25   H     H_    0.546312 0.007231 0.418446 0.200790
H26   H     H_    0.111464 0.207747 0.916083 0.141079
H27   H     H_    0.215779 0.342159 0.055094 0.137090
H28   H     H_    0.197200 0.553645 0.615435 0.130789
H29   H     H_    0.241611 0.445859 0.625816 0.133573
H30   H     H_    0.195988 0.352212 0.364265 0.122498
H31   H     H_    0.148704 0.458112 0.352779 0.137329
H32   H     H_    0.720066 0.816282 0.685266 0.128094
H33   H     H_    0.629978 0.758774 0.118744 0.121683
H34   H     H_    0.118307 0.257493 0.498097 0.156480
H35   H     H_    0.380943 0.240960 0.499374 0.156333
H36   H     H_    0.342635 0.167541 0.641909 0.118514
H37   H     H_    0.365733 0.045633 0.644941 0.117982
H38   H     H_    0.313647 0.916084 0.508078 0.114896
H39   H     H_    0.239901 0.909146 0.368007 0.124647
H40   H     H_    0.218231 0.031621 0.363987 0.113668
H41   H     H_    0.394437 0.475384 0.793154 0.137593
H42   H     H_    0.534922 0.611967 0.890465 0.129772
H43   H     H_    0.853858 0.670740 0.640436 0.118861
H44   H     H_    0.762910 0.745862 0.179412 0.123496
H45   H     H_    0.513607 0.362188 0.664896 0.120313
H46   H     H_    0.384145 0.350668 0.681432 0.145819
H47   H     H_    0.738787 0.498766 0.876802 0.159407
H48   H     H_    0.754104 0.487029 0.615084 0.155232
H49   H     H_    0.921700 0.589966 0.692862 0.121581
H50   H     H_    0.043930 0.436607 0.633432 0.126371
H51   H     H_    0.963444 0.337956 0.672515 0.164535
H52   H     H_    0.862960 0.364148 0.724582 0.107546
H53   H     H_    0.971904 0.697862 0.582740 0.120773
H54   H     H_    0.884929 0.673876 0.778580 0.129346
H55   H     H_    0.810349 0.742293 0.316044 0.105187
H56   H     H_    0.117104 0.785419 0.601637 0.121641
H57   H     H_    0.128462 0.803416 0.480660 0.124047
H58   H     H_    0.848673 0.639174 0.318655 0.124984
H59   H     H_    0.838124 0.623801 0.440813 0.144519
H60   H     H_    0.174465 0.871492 0.219910 0.114376
H61   H     H_    0.952822 0.713140 0.912123 0.132132
H62   H     H_    0.896162 0.839854 0.621444 0.178456
H63   H     H_    0.909470 0.698029 0.016947 0.117111
H64   H     H_    0.403720 0.601799 0.034043 0.113406
H65   H     H_    0.142193 0.485504 0.828470 0.154576
H66   H     H_    0.420019 0.845530 0.569030 0.120685
H67   H     H_    0.221758 0.333032 0.928550 0.131545
H68   H     H_    0.136914 0.262890 0.746343 0.153522
H69   H     H_    0.864585 0.235328 0.754773 0.160019
H70   H     H_    0.775268 0.185031 0.596027 0.127570
H71   H     H_    0.604037 0.636814 0.361648 0.146664
H72   H     H_    0.595847 0.910425 0.441137 0.130733
H73   H     H_    0.714313 0.883004 0.508738 0.143924
H74   H     H_    0.861407 0.003058 0.622019 0.112028
H75   H     H_    0.589774 0.761982 0.331451 0.121226
H76   H     H_    0.544109 0.767285 0.195340 0.123197
H77   H     H_    0.490731 0.654427 0.382761 0.111642
H78   H     H_    0.737753 0.962927 0.795997 0.258730
H79   H     H_    0.686976 0.030927 0.807601 0.265875
H80   H     H_    0.675909 0.959026 0.852517 0.248504
H81   H     H_    0.538534 0.894334 0.718544 0.215121
H82   H     H_    0.593049 0.831104 0.703686 0.222679
H83   H     H_    0.660246 0.918567 0.639031 0.209033
H84   H     H_    0.587952 0.962842 0.639765 0.193722
H85   H     H_    0.252187 0.646102 0.437468 0.208905
H86   H     H_    0.273046 0.749121 0.475027 0.171013
H87   H     H_    0.865920 0.939297 0.723852 0.262193
H88   H     H_    0.608762 0.787930 0.515948 0.133785
H89   H     H_    0.978862 0.994223 0.749307 0.263495
H90   H     H_    0.943475 0.909003 0.775029 0.262297
H91   H     H_    0.027890 0.054171 0.904373 0.226200
H92   H     H_    0.917952 0.996322 0.883928 0.220383
H93   H     H_    0.871044 0.084374 0.839523 0.186695
H94   H     H_    0.949169 0.114274 0.804470 0.224266
H95   H     H_    0.079482 0.552950 0.484710 0.179180
H96   H     H_    0.111008 0.561175 0.413030 0.168520
H97   H     H_    0.738853 0.644791 0.885647 0.181677
H98   H     H_    0.677581 0.693474 0.876719 0.177157
H99   H     H_    0.251872 0.639025 0.263793 0.163152
H100  H     H_    0.981541 0.565395 0.577323 0.175201
H101  H     H_    0.073164 0.559339 0.617410 0.171546
H102  H     H_    0.040680 0.615306 0.315116 0.182057
H103  H     H_    0.929497 0.564170 0.255937 0.191662
H104  H     H_    0.971716 0.036709 0.253505 0.274967
H105  H     H_    0.004756 0.013925 0.171579 0.259042
H106  H     H_    0.890536 0.977212 0.140493 0.240941
H107  H     H_    0.921365 0.855063 0.119152 0.214322
H108  H     H_    0.888937 0.877609 0.200475 0.235498
H109  H     H_    0.053226 0.969282 0.315344 0.206008
H110  H     H_    0.249602 0.365435 0.236214 0.160988
H111  H     H_    0.079254 0.939543 0.233703 0.183893
H112  H     H_    0.428256 0.977539 0.201993 0.258140
H113  H     H_    0.407720 0.068520 0.224203 0.262479
H114  H     H_    0.452080 0.045758 0.309472 0.253666
H115  H     H_    0.294392 0.997849 0.258826 0.221655
H116  H     H_    0.314751 0.906678 0.236219 0.220777
H117  H     H_    0.271038 0.878599 0.084445 0.206396
H118  H     H_    0.248952 0.967963 0.107211 0.198722
H119  H     H_    0.102701 0.742867 0.775745 0.268341
H120  H     H_    0.216359 0.811425 0.859943 0.250769
N1    N     N_3   0.276850 0.700793 0.431028 -0.482104
N2    N     N_3   0.134204 0.570327 0.475791 -0.483854
N3    N     N_3   0.686092 0.647341 0.892640 -0.491759
N4    N     N_3   0.030432 0.576591 0.633915 -0.487351
N5    N     N_3   0.988030 0.597395 0.257342 -0.437930
N6    N     N_3   0.293575 0.632082 0.929793 -0.474146
O1    O     O_R   0.408360 0.551710 0.460090 -0.606690
O2    O     O_R   0.948290 0.356630 0.908390 -0.624830
O3    O     O_R   0.143340 0.551690 0.091580 -0.625745
O4    O     O_R   0.408400 0.448280 0.356670 -0.632654
O5    O     O_R   0.039900 0.448270 0.091610 -0.623850
O6    O     O_R   0.051710 0.643320 0.091560 -0.618790
O7    O     O_R   0.948270 0.539900 0.091590 -0.604447
O8    O     O_R   0.960100 0.551680 0.908340 -0.621550
O9    O     O_R   0.856660 0.448270 0.908370 -0.628687
O10   O     O_R   0.591600 0.643340 0.551710 -0.621283
O11   O     O_R   0.591630 0.539900 0.448290 -0.624989
O12   O     O_R   0.948280 0.908380 0.356650 -0.633286
O13   O     O_R   0.591600 0.551720 0.643330 -0.607984
O14   O     O_R   0.591640 0.448290 0.539910 -0.631491
O15   O     O_R   0.408370 0.460100 0.551710 -0.605247
O16   O     O_R   0.408400 0.356660 0.448290 -0.629368
O17   O     O_R   0.051730 0.908360 0.460060 -0.612174
O18   O     O_R   0.960110 0.908350 0.551690 -0.624771
O19   O     O_R   0.856660 0.908370 0.448270 -0.607408
O20   O     O_R   0.051720 0.091580 0.643310 -0.632610
O21   O     O_R   0.948270 0.091600 0.539890 -0.607441
O22   O     O_R   0.143340 0.091590 0.551680 -0.617899
O23   O     O_R   0.039890 0.091610 0.448270 -0.630544
O24   O     O_R   0.051730 0.460050 0.908360 -0.626537
Zn1   Zn    Zn3+2 0.499980 0.569060 0.569060 0.970613
Zn2   Zn    Zn3+2 0.500020 0.430940 0.430940 0.934821
Zn3   Zn    Zn3+2 0.069070 0.999960 0.569030 0.942138
Zn4   Zn    Zn3+2 0.930930 0.999990 0.430930 0.961017
Zn5   Zn    Zn3+2 0.069070 0.569030 0.999960 0.943444
Zn6   Zn    Zn3+2 0.930930 0.430930 0.000000 0.943671

loop_
_geom_bond_atom_site_label_1
_geom_bond_atom_site_label_2
_ccdc_geom_bond_type
C24   C52   A    
C55   C56   A    
C116  H42   S    
C126  C137  S    
C126  C127  A    
C116  C123  A    
C138  O12   A    
H96   N2    S    
C120  C131  A    
C73   C74   A    
H97   N3    S    
C95   C96   A    
H102  N5    S    
C14   H54   S    
C11   H58   S    
O2    Zn6   S    
C114  C115  A    
C122  H46   S    
C135  C136  A    
O10   Zn1   S    
C85   C86   A    
C78   H88   S    
C48   H19   S    
C46   C49   A    
C5    O3    A    
C127  H48   S    
C49   C60   S    
C40   H4    S    
C83   C84   A    
C44   H12   S    
C91   H26   S    
C36   C37   S    
C2    C42   S    
C45   H23   S    
C37   H116  S    
C123  H41   S    
C7    O8    A    
C30   C31   S    
C50   H69   S    
C77   H77   S    
H101  N4    S    
C100  H31   S    
C106  C107  A    
C19   C32   S    
C26   H84   S    
C58   C60   A    
C81   O13   A    
C31   H89   S    
C32   H109  S    
C119  C130  S    
C56   C57   A    
C139  O18   A    
C33   H107  S    
C35   C59   A    
C18   C19   A    
C28   H79   S    
C36   H118  S    
C30   H91   S    
C13   C98   A    
C2    C13   A    
C6    O6    A    
C118  C119  A    
O4    Zn2   S    
C80   C86   A    
C52   C120  S    
C70   H44   S    
O14   Zn2   S    
C121  H45   S    
C110  C111  A    
C47   H21   S    
C109  C120  A    
C66   C72   A    
C65   H61   S    
C63   C69   S    
C116  C118  A    
C28   H80   S    
C27   H81   S    
C31   H90   S    
O18   Zn3   S    
C34   H105  S    
C111  H37   S    
C107  C108  A    
C102  C108  A    
C35   C64   A    
C24   H68   S    
C59   C139  S    
O1    Zn1   S    
C117  C129  A    
C9    C10   A    
H85   N1    S    
H103  N5    S    
C22   H60   S    
C76   H63   S    
C47   H22   S    
C58   H74   S    
C118  N3    S    
C53   C55   A    
C38   H114  S    
C73   H66   S    
C14   C141  A    
C140  O20   A    
C98   C109  A    
C96   H29   S    
C31   H87   S    
C84   H110  S    
C97   C108  S    
C105  C117  A    
C8    H56   S    
C42   H17   S    
C109  H65   S    
C34   H104  S    
C43   H14   S    
C131  H67   S    
C104  C106  A    
C112  C113  A    
C97   C99   A    
C53   C60   A    
C50   C51   A    
C57   C58   A    
C45   C47   S    
C10   C21   S    
C1    C85   S    
C29   H93   S    
C48   H18   S    
C88   C94   A    
C59   C61   A    
C44   H10   S    
C20   C138  S    
C74   C75   A    
C4    C51   S    
C124  C130  A    
C51   C52   A    
C2    C131  A    
C39   H6    S    
C67   H76   S    
C81   O14   A    
C84   C85   A    
H9    N6    S    
C41   H3    S    
C80   C82   A    
C7    O9    A    
C10   C11   A    
O7    Zn6   S    
C91   C92   A    
C124  H47   S    
C68   H33   S    
C78   C79   A    
C8    C9    A    
C129  C141  A    
C48   H20   S    
C110  H36   S    
C102  H34   S    
C77   C78   A    
C83   C94   S    
C16   C21   A    
C7    C125  S    
O23   Zn4   S    
C139  O19   A    
O6    Zn5   S    
C88   H13   S    
C134  H50   S    
C37   C38   S    
C41   H119  S    
C67   C68   A    
C29   C30   S    
C57   H73   S    
C104  C115  S    
C95   H28   S    
C92   H27   S    
C75   C86   S    
C47   C48   S    
C12   C15   A    
O17   Zn3   S    
C98   N6    S    
C53   H70   S    
C37   H115  S    
C69   O10   A    
C96   C97   A    
C113  H39   S    
C62   C63   A    
C92   C94   A    
C17   C18   A    
C12   H59   S    
C93   O15   A    
C44   H11   S    
C22   C87   A    
C140  O21   A    
C33   H108  S    
C39   H7    S    
C65   C76   A    
C76   C87   A    
C89   H24   S    
C56   H72   S    
C70   C71   A    
C119  C121  A    
C15   H53   S    
C112  H38   S    
C74   N1    S    
C61   C72   S    
O15   Zn1   S    
C40   C41   S    
C54   H1    S    
C23   C36   S    
C8    C15   A    
C36   H117  S    
C101  N2    S    
C43   C44   S    
C26   C27   S    
C133  C134  A    
C49   C50   A    
C13   H64   S    
H98   N3    S    
C42   H16   S    
C42   C43   S    
C3    O22   A    
C90   C91   A    
C127  C128  A    
C114  H40   S    
C16   C17   A    
C132  H49   S    
C93   O16   A    
C9    H57   S    
C46   C140  S    
C113  C114  A    
C45   H25   S    
C3    C103  S    
C4    O2    A    
C6    C17   S    
C29   H94   S    
C5    O5    A    
C117  H32   S    
O13   Zn1   S    
C54   C105  A    
C14   C54   A    
C20   C21   A    
C29   C90   S    
O22   Zn3   S    
C34   H106  S    
C136  C137  A    
C73   C79   A    
C128  C130  A    
C105  H2    S    
C11   C12   A    
C121  C122  A    
H8    N6    S    
C133  N4    S    
C134  C135  A    
C1    O4    A    
C64   C129  S    
C28   H78   S    
C106  H35   S    
C32   H111  S    
C27   H82   S    
C26   C79   S    
O20   Zn3   S    
C40   H5    S    
O16   Zn2   S    
C141  H43   S    
C24   C46   A    
C32   C33   S    
C80   H99   S    
C19   C20   A    
C41   H120  S    
O24   Zn5   S    
C132  C137  A    
C4    O24   A    
C66   C67   A    
C71   C72   A    
C81   C128  S    
C99   C100  A    
C25   C39   S    
O9    Zn6   S    
C26   H83   S    
C5    C82   S    
O11   Zn2   S    
C35   H62   S    
C71   H55   S    
C125  C126  A    
C1    O1    A    
C111  C112  A    
C38   H113  S    
O12   Zn4   S    
C69   O11   A    
O5    Zn6   S    
C100  C101  A    
C33   C34   S    
O19   Zn4   S    
C132  C133  A    
H100  N4    S    
C23   C25   A    
C30   H92   S    
C66   H75   S    
C61   C62   A    
C6    O7    A    
C18   C87   S    
O21   Zn4   S    
C135  H51   S    
C102  C103  A    
O8    Zn5   S    
C93   C107  S    
O3    Zn5   S    
C63   C64   A    
C39   C40   S    
C95   C101  A    
C136  H52   S    
C38   H112  S    
C99   H30   S    
C88   C89   A    
C45   C55   S    
H95   N2    S    
C68   C70   A    
C82   C83   A    
C75   C77   A    
C138  O17   A    
C103  C104  A    
C122  C123  A    
C25   C65   A    
C62   H71   S    
C22   C23   A    
C3    O23   A    
C89   C90   A    
C110  C115  A    
C16   N5    S    
C43   H15   S    
H86   N1    S    
C124  C125  A    
C27   C28   S    
