data_mof_unit_14595.cif
_audit_creation_date              2012-12-11T15:21:41-0500
_audit_creation_method            fapswitch 2.2
_symmetry_space_group_name_H-M    P1
_symmetry_Int_Tables_number       1
_space_group_crystal_system       triclinic
_cell_length_a                    19.160226
_cell_length_b                    7.140197
_cell_length_c                    17.800435
_cell_angle_alpha                 89.999739
_cell_angle_beta                  108.881805
_cell_angle_gamma                 89.999917
_cell_volume                      2304.19353317

loop_
_atom_site_label
_atom_site_type_symbol
_atom_type_description
_atom_site_fract_x
_atom_site_fract_y
_atom_site_fract_z
_atom_type_partial_charge
O1    O     O_R   0.562310 0.505770 0.439670 -0.524579
O2    O     O_R   0.437690 0.005770 0.560330 -0.524581
O3    O     O_R   0.411650 0.169150 0.405330 -0.526926
O4    O     O_R   0.588350 0.669150 0.594670 -0.526918
C1    C     C_R   0.384238 0.346653 0.383179 0.737599
C2    C     C_R   0.615764 0.846652 0.616818 0.737590
O5    O     O_R   0.560140 0.175610 0.430010 -0.528513
O6    O     O_R   0.439860 0.675610 0.569990 -0.528500
O7    O     O_R   0.587240 0.012100 0.585200 -0.499980
O8    O     O_R   0.412760 0.512100 0.414800 -0.499971
C3    C     C_R   0.579424 0.345776 0.412887 0.803703
C4    C     C_R   0.420576 0.845775 0.587111 0.803733
O9    O     O_3   0.508720 0.341420 0.550890 -0.337547
O10   O     O_3   0.491280 0.841420 0.449110 -0.337552
V1    V     V_3+5 0.498380 0.063930 0.490560 1.687028
V2    V     V_3+5 0.501620 0.563930 0.509440 1.687058
C5    C     C_R   0.171678 0.070140 0.857904 -0.225171
C6    C     C_R   0.828367 0.570179 0.142150 -0.225179
C7    C     C_R   0.127694 0.916133 0.862568 -0.077496
C8    C     C_R   0.872327 0.416143 0.137457 -0.077496
C9    C     C_R   0.130870 0.752525 0.819364 -0.215243
C10   C     C_R   0.869141 0.252523 0.180651 -0.215225
C11   C     C_R   0.177886 0.742714 0.772856 0.091488
C12   C     C_R   0.822126 0.242713 0.227161 0.091499
C13   C     C_R   0.224857 0.894654 0.772406 0.081839
C14   C     C_R   0.775159 0.394663 0.227613 0.081842
C15   C     C_R   0.221914 0.057895 0.815761 0.098159
C16   C     C_R   0.778116 0.557922 0.184273 0.098159
C17   C     C_R   0.179060 0.583719 0.726989 -0.196490
C18   C     C_R   0.820947 0.083713 0.273024 -0.196489
C19   C     C_R   0.227178 0.574035 0.682294 -0.156470
C20   C     C_R   0.772823 0.074026 0.317711 -0.156483
C21   C     C_R   0.275792 0.722078 0.683372 0.085676
C22   C     C_R   0.724209 0.222074 0.316632 0.085678
C23   C     C_R   0.274646 0.883719 0.728450 0.014679
C24   C     C_R   0.725363 0.383724 0.271560 0.014675
C25   C     C_R   0.323023 0.034327 0.729901 0.028356
C26   C     C_R   0.676988 0.534342 0.270108 0.028361
C27   C     C_R   0.319940 0.194378 0.775313 -0.125171
C28   C     C_R   0.680080 0.694403 0.224702 -0.125179
C29   C     C_R   0.269749 0.206168 0.816935 -0.199660
C30   C     C_R   0.730279 0.706198 0.183092 -0.199692
C31   C     C_R   0.324693 0.711373 0.639373 -0.193781
C32   C     C_R   0.675304 0.211369 0.360625 -0.193809
C33   C     C_R   0.372940 0.859970 0.639043 -0.111165
C34   C     C_R   0.627060 0.359973 0.360956 -0.111163
C35   C     C_R   0.372853 0.021999 0.686044 0.229493
C36   C     C_R   0.627153 0.522010 0.313960 0.229497
H1    H     H_    0.168002 0.198856 0.888548 0.128698
H2    H     H_    0.832073 0.698935 0.111546 0.128680
H3    H     H_    0.096162 0.633802 0.821126 0.131087
H4    H     H_    0.903842 0.133792 0.178880 0.131076
H5    H     H_    0.142915 0.466285 0.725878 0.136626
H6    H     H_    0.857093 0.966279 0.274140 0.136626
H7    H     H_    0.226865 0.449479 0.647405 0.140507
H8    H     H_    0.773131 0.949462 0.352598 0.140502
H9    H     H_    0.324100 0.587677 0.603826 0.166231
H10   H     H_    0.675892 0.087672 0.396169 0.166216
H11   H     H_    0.355136 0.314298 0.778603 0.187325
H12   H     H_    0.644883 0.814326 0.221409 0.187322
H13   H     H_    0.268440 0.332335 0.850179 0.137932
H14   H     H_    0.731590 0.832365 0.149845 0.137954
C37   C     C_3   0.748050 0.831053 0.841001 -0.059160
C38   C     C_3   0.251956 0.331158 0.158986 -0.059078
H15   H     H_    0.768268 0.692316 0.868089 0.136479
H16   H     H_    0.231753 0.192425 0.131884 0.136420
C39   C     C_3   0.677322 0.792087 0.766737 0.118158
C40   C     C_3   0.322689 0.292191 0.233246 0.118230
H17   H     H_    0.673457 0.637678 0.760082 0.161543
H18   H     H_    0.326573 0.137779 0.239879 0.161533
H19   H     H_    0.840461 0.638604 0.774439 0.171658
H20   H     H_    0.159565 0.138535 0.225522 0.171663
H21   H     H_    0.736523 0.607250 0.667193 0.212978
H22   H     H_    0.263505 0.107172 0.332762 0.212999
C41   C     C_3   0.823101 0.779482 0.748326 -0.359305
C42   C     C_3   0.176911 0.279403 0.251655 -0.359318
C43   C     C_3   0.787012 0.104183 0.772471 -0.359787
C44   C     C_3   0.212965 0.604171 0.227556 -0.359789
C45   C     C_3   0.811830 0.913537 0.812861 -0.036101
C46   C     C_3   0.188168 0.413542 0.187139 -0.036134
H23   H     H_    0.831829 0.160597 0.751879 0.176089
H24   H     H_    0.168144 0.660512 0.248160 0.176089
H25   H     H_    0.781251 0.206992 0.816984 0.157333
H26   H     H_    0.218715 0.707041 0.183060 0.157336
C47   C     C_3   0.686978 0.871584 0.688674 -0.055343
C48   C     C_3   0.313023 0.371587 0.311322 -0.055373
C49   C     C_3   0.751472 0.758088 0.675874 -0.432977
C50   C     C_3   0.248541 0.258005 0.324104 -0.432948
C51   C     C_3   0.713895 0.085391 0.702012 0.488761
C52   C     C_3   0.286085 0.585380 0.298013 0.488745
H27   H     H_    0.868242 0.833359 0.727608 0.168249
H28   H     H_    0.131763 0.333208 0.272379 0.168254
H29   H     H_    0.761985 0.803876 0.620872 0.202973
H30   H     H_    0.238022 0.303718 0.379112 0.202982
O11   O     O_R   0.087220 0.271820 0.085230 -0.541819
O12   O     O_R   0.912780 0.771820 0.914770 -0.541814
O13   O     O_R   0.939860 0.595540 0.069990 -0.540776
O14   O     O_R   0.060140 0.095540 0.930010 -0.540768
C53   C     C_R   0.920172 0.426240 0.086388 0.701287
C54   C     C_R   0.079836 0.926240 0.913621 0.701294
O15   O     O_R   0.088340 0.601930 0.094680 -0.541383
O16   O     O_R   0.911660 0.101930 0.905320 -0.541375
O17   O     O_R   0.062310 0.765410 0.939660 -0.539336
O18   O     O_R   0.937690 0.265410 0.060340 -0.539331
C55   C     C_R   0.115713 0.431711 0.117852 0.680542
C56   C     C_R   0.884285 0.931711 0.882150 0.680552
O19   O     O_3   0.991270 0.429630 0.949130 -0.373930
O20   O     O_3   0.008730 0.929630 0.050870 -0.373939
V3    V     V_3+5 0.001620 0.707150 0.009440 1.390294
V4    V     V_3+5 0.998380 0.207150 0.990560 1.390314
C57   C     C_3   0.733188 0.952182 0.907094 -0.300425
C58   C     C_3   0.706017 0.835644 0.964259 -0.682261
H31   H     H_    0.651473 0.771818 0.934501 0.283177
H32   H     H_    0.745478 0.721214 0.989994 0.198904
H33   H     H_    0.701314 0.926793 0.012882 0.211465
H34   H     H_    0.784576 0.022023 0.943995 0.155286
H35   H     H_    0.693436 0.066306 0.881266 0.256083
C59   C     C_3   0.266792 0.452380 0.092900 -0.300368
C60   C     C_3   0.293982 0.335973 0.035711 -0.682217
H36   H     H_    0.298434 0.427089 0.986968 0.211251
H37   H     H_    0.348655 0.272742 0.065399 0.283217
H38   H     H_    0.254670 0.221129 0.010136 0.198990
H39   H     H_    0.215384 0.522157 0.056009 0.155284
H40   H     H_    0.306516 0.566557 0.118736 0.256023
Br1   Br    Br    0.580705 0.847863 0.777794 -0.476524
Br2   Br    Br    0.419294 0.348087 0.222191 -0.476560
Br3   Br    Br    0.641998 0.253705 0.723775 -0.467480
Br4   Br    Br    0.357964 0.753798 0.276270 -0.467557
Br5   Br    Br    0.731531 0.190301 0.607484 -0.631597
Br6   Br    Br    0.268445 0.690172 0.392557 -0.631581
Br7   Br    Br    0.442478 0.224522 0.694864 -0.441254
Br8   Br    Br    0.557531 0.724541 0.305140 -0.441289

loop_
_geom_bond_atom_site_label_1
_geom_bond_atom_site_label_2
_ccdc_geom_bond_type
H19   C41   S    
C37   H15   S    
C28   H12   S    
C40   Br2   S    
C40   C48   S    
C57   C58   S    
O1    C3    A    
C29   H13   S    
H20   C42   S    
O2    C4    A    
C2    O7    A    
C58   H32   S    
C51   Br5   S    
C27   C29   A    
C37   C45   S    
C44   C52   S    
O5    C3    A    
C18   H6    S    
C43   C51   S    
C2    C47   S    
O14   V4    S    
C11   C17   A    
C23   C25   A    
C12   C14   A    
C39   Br1   S    
C44   C46   S    
C43   H25   S    
O15   V3    S    
C38   C59   S    
O20   V3    S    
C6    C8    A    
C33   C35   A    
C44   H24   S    
C59   C60   S    
H21   C49   S    
O12   C56   A    
O11   C55   A    
C5    C7    A    
C32   H10   S    
C19   C21   A    
C57   H34   S    
C25   C35   A    
C30   H14   S    
C26   C36   A    
C41   H27   S    
C47   C49   S    
C53   O18   A    
O6    V2    S    
C38   C46   S    
C58   H31   S    
O13   C53   A    
C32   C34   A    
C50   H30   S    
C43   C45   S    
O15   C55   A    
C37   C39   S    
C39   C47   S    
C5    C15   A    
C6    C16   A    
O4    C2    A    
C48   C52   S    
C5    H1    S    
C47   C51   S    
C4    C33   S    
O5    V1    S    
C46   C55   S    
C54   O17   A    
C45   C56   S    
C35   Br7   S    
C39   H17   S    
C38   H16   S    
O4    V2    S    
C18   C20   A    
O13   V3    S    
C15   C29   A    
C43   H23   S    
O6    C4    A    
C27   H11   S    
C22   C32   A    
O1    V2    S    
C59   H40   S    
C60   H36   S    
O2    V1    S    
C31   C33   A    
C60   H37   S    
C13   C23   A    
C1    C48   S    
C41   C49   S    
C42   H28   S    
O14   C54   A    
C9    C11   A    
O19   V4    S    
C10   C12   A    
O18   V4    S    
O16   V4    S    
C38   C40   S    
C9    H3    S    
O3    V1    S    
C6    H2    S    
C10   H4    S    
C51   Br3   S    
C60   H38   S    
C14   C24   A    
C42   C50   S    
C7    C9    A    
C42   C46   S    
C8    C10   A    
C28   C30   A    
O3    C1    A    
O11   V4    S    
C7    C54   S    
C13   C15   A    
O12   V3    S    
C14   C16   A    
C57   H35   S    
O17   V3    S    
C19   H7    S    
C24   C26   A    
O7    V1    S    
C1    O8    A    
C17   C19   A    
O8    V2    S    
C26   C28   A    
C8    C53   S    
C17   H5    S    
C49   H29   S    
C16   C30   A    
C21   C23   A    
C22   C24   A    
O16   C56   A    
C48   C50   S    
C59   H39   S    
C11   C13   A    
C37   C57   S    
C12   C18   A    
C31   H9    S    
C52   Br6   S    
C34   C36   A    
C44   H26   S    
C25   C27   A    
O9    V2    S    
C40   H18   S    
C52   Br4   S    
O10   V1    S    
C36   Br8   S    
C3    C34   S    
H22   C50   S    
C21   C31   A    
C41   C45   S    
C20   H8    S    
C58   H33   S    
C20   C22   A    
