data_mof_unit_50652.cif
_audit_creation_date              2012-12-10T18:58:11-0500
_audit_creation_method            fapswitch 2.2
_symmetry_space_group_name_H-M    P1
_symmetry_Int_Tables_number       1
_space_group_crystal_system       triclinic
_cell_length_a                    11.088828
_cell_length_b                    10.83023
_cell_length_c                    9.568871
_cell_angle_alpha                 89.59137
_cell_angle_beta                  102.863107
_cell_angle_gamma                 90.53433
_cell_volume                      1120.26684802

loop_
_atom_site_label
_atom_site_type_symbol
_atom_type_description
_atom_site_fract_x
_atom_site_fract_y
_atom_site_fract_z
_atom_type_partial_charge
C1    C     C_R   0.501212 0.262437 0.500562 0.796852
C2    C     C_R   0.510841 0.129353 0.501944 -0.095055
C3    C     C_R   0.505394 0.065366 0.373336 -0.212556
C4    C     C_R   0.504133 0.936956 0.372811 -0.228993
C5    C     C_R   0.510163 0.870961 0.501033 -0.096454
C6    C     C_R   0.531095 0.935709 0.630072 0.120113
C7    C     C_3   0.465621 0.927684 0.750532 -0.464943
C8    C     C_3   0.465595 0.067922 0.750786 -0.464572
C9    C     C_R   0.608285 0.509704 0.100374 0.236158
C10   C     C_R   0.394210 0.479484 0.047181 -0.087687
C11   C     C_R   0.394105 0.479925 0.898891 -0.081351
C12   C     C_R   0.262526 0.498407 0.441137 0.838476
C13   C     C_R   0.608304 0.506711 0.953470 0.213503
C14   C     C_3   0.704638 0.604474 0.964635 -0.485404
C15   C     C_3   0.703811 0.611878 0.123152 -0.103558
C16   C     C_R   0.500864 0.737622 0.499848 0.795356
C17   C     C_R   0.737132 0.498797 0.558584 0.857752
C18   C     C_2   0.126711 0.492541 0.405309 0.028275
C19   C     C_2   0.066239 0.487005 0.512939 -0.158819
C20   C     C_2   0.872151 0.497730 0.592187 -0.371019
C21   C     C_2   0.931471 0.478538 0.487329 -0.148225
C22   C     C_R   0.531154 0.062940 0.630480 0.125015
Cu1   Cu    Cu3+1 0.499990 0.499980 0.640670 0.934550
Cu2   Cu    Cu3+1 0.500010 0.500020 0.359330 0.936631
H1    H     H_    0.879042 0.457360 0.380534 0.182022
H2    H     H_    0.524732 0.108150 0.849439 0.197557
H3    H     H_    0.308123 0.463708 0.079478 0.139769
H4    H     H_    0.307668 0.464706 0.822886 0.135775
H5    H     H_    0.792675 0.567555 0.945304 0.172115
H6    H     H_    0.669982 0.687885 0.900043 0.217112
H7    H     H_    0.792470 0.583019 0.192796 0.161302
H8    H     H_    0.117121 0.490088 0.623944 0.142776
H9    H     H_    0.922799 0.515192 0.701330 0.144777
H10   H     H_    0.495302 0.113771 0.271991 0.167676
H11   H     H_    0.491558 0.890289 0.271105 0.167482
H12   H     H_    0.371497 0.886232 0.717592 0.203614
H13   H     H_    0.524805 0.887157 0.849049 0.194331
H14   H     H_    0.371471 0.107995 0.717813 0.199817
N1    N     N_R   0.500780 0.500930 0.148120 -0.180035
N2    N     N_R   0.500790 0.500890 0.852210 -0.178418
O1    O     O_R   0.500000 0.319640 0.618810 -0.577072
O2    O     O_R   0.500010 0.319680 0.381230 -0.586282
O3    O     O_R   0.320680 0.500000 0.575130 -0.609393
O4    O     O_R   0.320690 0.500040 0.337550 -0.582017
O5    O     O_R   0.499990 0.680320 0.618770 -0.576809
O6    O     O_R   0.500000 0.680360 0.381190 -0.583118
O7    O     O_R   0.679310 0.499960 0.662450 -0.582391
O8    O     O_R   0.679320 0.500000 0.424870 -0.584371
C23   C     C_3   0.660562 0.737269 0.164286 -0.766974
H15   H     H_    0.561636 0.752573 0.112963 0.233082
H16   H     H_    0.675894 0.742780 0.282391 0.251911
H17   H     H_    0.716812 0.811962 0.129513 0.213524
C24   C     C_3   0.058594 0.494409 0.249212 -0.903150
H18   H     H_    0.121986 0.497393 0.174647 0.239359
H19   H     H_    0.000239 0.410217 0.223222 0.228223
H20   H     H_    0.000862 0.578311 0.227964 0.233761

loop_
_geom_bond_atom_site_label_1
_geom_bond_atom_site_label_2
_ccdc_geom_bond_type
C16   O5    A    
C2    C22   A    
C8    C22   S    
Cu1   Cu2   S    
C15   H7    S    
C6    C7    S    
Cu1   O5    S    
C8    H2    S    
C7    H12   S    
Cu1   O1    S    
C17   O8    A    
C23   H17   S    
Cu2   O6    S    
Cu2   N1    S    
C15   C23   S    
C2    C3    A    
C7    H13   S    
C4    H11   S    
C10   H3    S    
C7    C8    S    
C12   O4    A    
C13   C14   S    
C11   N2    A    
C8    H14   S    
C11   H4    S    
C14   H6    S    
C20   H9    S    
C1    O1    A    
C19   C21   S    
C18   C19   D    
C12   O3    A    
C24   H19   S    
C9    C15   S    
C5    C6    A    
Cu2   O4    S    
C18   C24   S    
Cu1   O7    S    
C10   C11   A    
C19   H8    S    
C14   H5    S    
C12   C18   S    
C3    C4    A    
Cu2   O8    S    
C1    O2    A    
C9    N1    A    
C17   C20   S    
Cu2   O2    S    
C20   C21   D    
C1    C2    S    
C24   H20   S    
C16   O6    A    
C23   H15   S    
Cu1   N2    S    
C9    C13   A    
C14   C15   S    
C4    C5    A    
C13   N2    A    
C21   H1    S    
C3    H10   S    
C23   H16   S    
C24   H18   S    
Cu1   O3    S    
C17   O7    A    
C10   N1    A    
C5    C16   S    
C6    C22   A    
