data_mof_unit_5682.cif
_audit_creation_date              2012-12-11T15:36:39-0500
_audit_creation_method            fapswitch 2.2
_symmetry_space_group_name_H-M    P1
_symmetry_Int_Tables_number       1
_space_group_crystal_system       triclinic
_cell_length_a                    15.032326
_cell_length_b                    15.127664
_cell_length_c                    34.935627
_cell_angle_alpha                 91.709432
_cell_angle_beta                  91.690593
_cell_angle_gamma                 60.377212
_cell_volume                      6902.0725281

loop_
_atom_site_label
_atom_site_type_symbol
_atom_type_description
_atom_site_fract_x
_atom_site_fract_y
_atom_site_fract_z
_atom_type_partial_charge
C1    C     C_R   0.610014 0.305648 0.442966 0.555526
C2    C     C_R   0.719344 0.668459 0.178385 0.021790
C3    C     C_R   0.655902 0.072084 0.821554 0.008694
C4    C     C_R   0.752765 0.041641 0.836858 -0.146269
C5    C     C_R   0.770779 0.028415 0.875514 -0.137082
C6    C     C_R   0.647531 0.189144 0.771878 0.044650
C7    C     C_R   0.668727 0.199490 0.733532 0.014005
C8    C     C_R   0.663231 0.134110 0.704820 0.054858
C9    C     C_R   0.651442 0.051453 0.714876 0.075080
C10   C     C_R   0.641185 0.035538 0.753229 -0.146630
C11   C     C_R   0.639299 0.103413 0.781553 -0.001225
C12   C     C_R   0.547971 0.229815 0.650455 0.073545
C13   C     C_R   0.811896 0.610769 0.159828 -0.120355
C14   C     C_R   0.534833 0.271678 0.614049 0.063625
C15   C     C_R   0.720114 0.172428 0.603925 -0.019412
C16   C     C_R   0.731672 0.133880 0.640949 -0.127550
C17   C     C_R   0.647439 0.164320 0.664383 0.031023
C18   C     C_R   0.620724 0.245556 0.590452 0.019460
C19   C     C_R   0.045412 0.739829 0.048681 0.530760
C20   C     C_R   0.747451 0.745960 0.063993 0.536215
C21   C     C_R   0.749812 0.042072 0.050326 0.537921
C22   C     C_R   0.015901 0.722638 0.939231 0.536162
C23   C     C_R   0.717546 0.731244 0.954486 0.570911
C24   C     C_R   0.823620 0.627288 0.121432 -0.005772
C25   C     C_R   0.724045 0.019121 0.940941 0.535648
C26   C     C_R   0.717417 0.573694 0.235517 0.070247
C27   C     C_R   0.713076 0.567417 0.274992 -0.083793
C28   C     C_R   0.711344 0.643324 0.299323 0.025312
C29   C     C_R   0.718189 0.725152 0.284516 0.145481
C30   C     C_R   0.724064 0.731422 0.244676 0.108743
C31   C     C_R   0.719131 0.657916 0.220095 0.007385
C32   C     C_R   0.599558 0.719443 0.354269 -0.112062
C33   C     C_R   0.593978 0.610677 0.449562 0.553657
C34   C     C_R   0.571263 0.720008 0.392042 -0.025558
C35   C     C_R   0.734573 0.561718 0.402171 0.091093
C36   C     C_R   0.761814 0.565577 0.364060 0.106632
C37   C     C_R   0.691437 0.642024 0.340080 0.039921
C38   C     C_R   0.634819 0.633608 0.415033 0.018491
C39   C     C_R   0.110769 0.725974 0.083422 0.024472
C40   C     C_R   0.165244 0.627221 0.098453 -0.146961
C41   C     C_R   0.204003 0.611533 0.135800 -0.139496
C42   C     C_R   0.190652 0.693973 0.158810 0.018485
C43   C     C_R   0.146706 0.790789 0.143281 -0.113584
C44   C     C_R   0.307075 0.588473 0.441456 0.535471
C45   C     C_R   0.107135 0.808646 0.105641 0.004712
C46   C     C_R   0.289581 0.683029 0.219529 -0.007573
C47   C     C_R   0.297790 0.676516 0.259518 -0.119294
C48   C     C_R   0.221437 0.674720 0.280894 0.034650
C49   C     C_R   0.133048 0.682641 0.262443 0.068882
C50   C     C_R   0.127119 0.682492 0.222216 0.098326
C51   C     C_R   0.204927 0.683380 0.200659 0.024491
C52   C     C_R   0.260851 0.556761 0.335304 -0.006797
C53   C     C_R   0.262194 0.541367 0.375323 0.022028
C54   C     C_R   0.247531 0.708223 0.387339 -0.149229
C55   C     C_R   0.604877 0.301394 0.554068 0.533289
C56   C     C_R   0.231240 0.728816 0.348263 0.084640
C57   C     C_R   0.240234 0.652727 0.322171 0.054767
C58   C     C_R   0.265794 0.614721 0.401478 -0.004860
C59   C     C_R   0.713604 0.110780 0.084318 -0.003436
C60   C     C_R   0.769083 0.155299 0.100244 -0.149625
C61   C     C_R   0.745115 0.201350 0.136623 -0.137835
C62   C     C_R   0.668739 0.199219 0.158232 0.044432
C63   C     C_R   0.603800 0.166508 0.140340 0.018842
C64   C     C_R   0.626914 0.123465 0.103420 -0.123233
C65   C     C_R   0.586272 0.294838 0.217901 -0.144632
C66   C     C_R   0.588410 0.606850 0.558685 0.558840
C67   C     C_R   0.575697 0.300467 0.257516 -0.129480
C68   C     C_R   0.648421 0.222986 0.280515 0.072760
C69   C     C_R   0.734817 0.140966 0.263825 0.106187
C70   C     C_R   0.748525 0.135722 0.223615 0.039907
C71   C     C_R   0.670043 0.211991 0.200468 0.027429
C72   C     C_R   0.717398 0.241530 0.343059 -0.116780
C73   C     C_R   0.714348 0.253937 0.382748 0.088430
C74   C     C_R   0.555208 0.248838 0.382718 -0.148084
C75   C     C_R   0.561692 0.231030 0.342718 0.093970
C76   C     C_R   0.640738 0.232958 0.322716 0.072764
C77   C     C_R   0.293948 0.591447 0.550772 0.536860
C78   C     C_R   0.629218 0.263782 0.403014 0.031297
C79   C     C_R   0.693763 0.698799 0.917182 0.064411
C80   C     C_R   0.746535 0.596986 0.903811 0.085103
C81   C     C_R   0.736066 0.574725 0.865143 -0.110512
C82   C     C_R   0.674312 0.653160 0.839937 0.045139
C83   C     C_R   0.619655 0.753177 0.853646 -0.128839
C84   C     C_R   0.627885 0.775554 0.891906 -0.154425
C85   C     C_R   0.584729 0.639727 0.779683 0.010152
C86   C     C_R   0.584064 0.628105 0.739114 0.027122
C87   C     C_R   0.664493 0.626048 0.718176 -0.007476
C88   C     C_R   0.738549 0.708761 0.101914 -0.014731
C89   C     C_R   0.749677 0.621127 0.737124 -0.138135
C90   C     C_R   0.756991 0.619422 0.776983 0.094623
C91   C     C_R   0.672759 0.633787 0.798379 0.050695
C92   C     C_R   0.717273 0.533394 0.655184 -0.012689
C93   C     C_R   0.698125 0.532899 0.615820 -0.151625
C94   C     C_R   0.579217 0.714611 0.617025 0.125631
C95   C     C_R   0.600493 0.717302 0.656402 0.105532
C96   C     C_R   0.662414 0.625662 0.675900 0.016942
C97   C     C_R   0.624226 0.620666 0.597098 0.008311
C98   C     C_R   0.062777 0.700934 0.900719 -0.008908
C99   C     C_R   0.643848 0.761567 0.120325 -0.106346
C100  C     C_R   0.084544 0.773824 0.885942 -0.127400
C101  C     C_R   0.106892 0.772554 0.847314 0.094857
C102  C     C_R   0.104506 0.698983 0.822717 0.073864
C103  C     C_R   0.092894 0.620471 0.837564 -0.098590
C104  C     C_R   0.074493 0.618058 0.876686 0.002351
C105  C     C_R   0.208044 0.623921 0.764852 0.083930
C106  C     C_R   0.220509 0.619509 0.725435 -0.129134
C107  C     C_R   0.143712 0.690392 0.701709 -0.015877
C108  C     C_R   0.053708 0.768168 0.717490 -0.116739
C109  C     C_R   0.038757 0.773393 0.757165 0.017871
C110  C     C_R   0.632950 0.741905 0.158141 0.098191
C111  C     C_R   0.117323 0.700404 0.781079 0.095568
C112  C     C_R   0.167616 0.749856 0.639340 -0.113236
C113  C     C_R   0.195087 0.731302 0.600604 -0.010135
C114  C     C_R   0.198528 0.568182 0.604062 0.091572
C115  C     C_R   0.167731 0.590694 0.642120 -0.107499
C116  C     C_R   0.157792 0.678245 0.660242 -0.017356
C117  C     C_R   0.224428 0.633032 0.584311 0.036319
C118  C     C_R   0.691901 0.046059 0.900613 0.021990
C119  C     C_R   0.591778 0.076985 0.885556 0.004774
C120  C     C_R   0.575894 0.087712 0.845369 -0.097661
Cr1   Cr    Cr6+3 0.426010 0.422500 0.497000 0.996179
Cr2   Cr    Cr6+3 0.651300 0.426310 0.501970 1.033249
Cr3   Cr    Cr6+3 0.422670 0.651170 0.501050 0.996411
Cr4   Cr    Cr6+3 0.905130 0.911420 0.992650 0.993117
Cr5   Cr    Cr6+3 0.911860 0.682710 0.002320 1.006516
Cr6   Cr    Cr6+3 0.682710 0.906840 0.004710 0.996443
H1    H     H_    0.577802 0.821164 0.105641 0.145564
H2    H     H_    0.875801 0.555483 0.176611 0.123837
H3    H     H_    0.171516 0.562236 0.082266 0.128150
H4    H     H_    0.365050 0.670668 0.274168 0.120376
H5    H     H_    0.238116 0.536080 0.147639 0.102410
H6    H     H_    0.137875 0.853681 0.161594 0.102078
H7    H     H_    0.247398 0.765623 0.406688 0.119829
H8    H     H_    0.834565 0.149199 0.085697 0.123645
H9    H     H_    0.581138 0.092449 0.090887 0.129124
H10   H     H_    0.510771 0.365488 0.270324 0.116104
H11   H     H_    0.527209 0.353968 0.200530 0.104446
H12   H     H_    0.792681 0.229946 0.149416 0.108420
H13   H     H_    0.780215 0.239624 0.327851 0.114767
H14   H     H_    0.491576 0.252721 0.397871 0.105780
H15   H     H_    0.587573 0.854608 0.901008 0.129455
H16   H     H_    0.707893 0.504607 0.286745 0.144055
H17   H     H_    0.778081 0.496926 0.854546 0.092679
H18   H     H_    0.811777 0.616410 0.720552 0.103057
H19   H     H_    0.735741 0.462013 0.599873 0.151965
H20   H     H_    0.572985 0.814554 0.834337 0.106981
H21   H     H_    0.080823 0.834483 0.904319 0.120732
H22   H     H_    0.154751 0.538044 0.658217 0.108476
H23   H     H_    0.290935 0.560983 0.713258 0.105537
H24   H     H_    0.993925 0.822085 0.698722 0.111320
H25   H     H_    0.155960 0.819220 0.653622 0.115454
H26   H     H_    0.095548 0.563087 0.817695 0.122313
H27   H     H_    0.848322 0.003622 0.885540 0.144137
H28   H     H_    0.807229 0.081581 0.652244 0.111084
H29   H     H_    0.501405 0.112376 0.832327 0.106344
H30   H     H_    0.635785 0.969521 0.760953 0.110734
H31   H     H_    0.813436 0.034189 0.818835 0.111202
H32   H     H_    0.549082 0.778273 0.334794 0.142463
O1    O     O_R   0.324990 0.503440 0.453910 -0.525315
O2    O     O_R   0.639980 0.519500 0.542640 -0.521974
O3    O     O_R   0.500750 0.673190 0.545480 -0.476750
O4    O     O_R   0.336260 0.640450 0.538210 -0.515892
O5    O     O_3   0.499990 0.499990 0.500010 -0.243710
O6    O     O_R   0.834210 0.019400 0.034570 -0.528083
O7    O     O_R   0.002210 0.824620 0.031030 -0.504900
O8    O     O_R   0.024400 0.669340 0.039790 -0.534038
O9    O     O_R   0.830490 0.694950 0.045870 -0.511969
O10   O     O_R   0.675430 0.831160 0.051290 -0.519847
O11   O     O_R   0.698870 0.998880 0.039560 -0.501915
O12   O     O_R   0.522030 0.339050 0.458320 -0.518653
O13   O     O_R   0.811290 0.006780 0.950620 -0.522171
O14   O     O_R   0.980960 0.812920 0.953200 -0.505215
O15   O     O_R   0.001480 0.656720 0.955830 -0.525195
O16   O     O_R   0.809240 0.683250 0.968050 -0.463640
O17   O     O_R   0.652500 0.818540 0.967340 -0.537231
O18   O     O_R   0.677620 0.987170 0.961730 -0.511347
O19   O     O_3   0.833240 0.833660 0.999890 -0.235459
O20   O     O_R   0.676180 0.324490 0.458320 -0.455022
O21   O     O_R   0.643570 0.521510 0.464260 -0.450501
O22   O     O_R   0.504630 0.675350 0.460920 -0.542106
O23   O     O_R   0.339850 0.642450 0.459830 -0.506674
O24   O     O_R   0.321120 0.501280 0.538470 -0.487996
O25   O     O_R   0.518440 0.337050 0.536710 -0.509445
O26   O     O_R   0.672300 0.322330 0.542880 -0.527586
C121  C     C_3   0.472830 0.810722 0.406967 -0.256532
C122  C     C_3   0.431179 0.909323 0.384516 -0.468020
H33   H     H_    0.492491 0.928592 0.380121 0.169764
H34   H     H_    0.397897 0.902715 0.356510 0.138412
H35   H     H_    0.369078 0.972650 0.400952 0.134216
H36   H     H_    0.411780 0.789692 0.407690 0.168977
H37   H     H_    0.488185 0.829991 0.436471 0.173329
N1    N     N_3   0.806443 0.486790 0.428310 -0.600175
H38   H     H_    0.873564 0.432811 0.415197 0.214684
H39   H     H_    0.827416 0.525070 0.448869 0.216739
C123  C     C_3   0.056717 0.917299 0.092122 -0.262242
C124  C     C_3   0.120734 0.930442 0.062013 -0.408881
H40   H     H_    0.136023 0.877493 0.037279 0.167849
H41   H     H_    0.079357 0.009619 0.051493 0.127789
H42   H     H_    0.195139 0.915813 0.074901 0.142643
H43   H     H_    0.977957 0.942400 0.081687 0.191108
H44   H     H_    0.047433 0.970560 0.116300 0.114257
N2    N     N_3   0.208916 0.826355 0.334845 -0.642258
H45   H     H_    0.142391 0.881572 0.348174 0.224941
H46   H     H_    0.268914 0.838911 0.343610 0.222452
C125  C     C_3   0.372347 0.688178 0.197746 -0.261803
C126  C     C_3   0.445760 0.585619 0.179430 -0.430842
H47   H     H_    0.490353 0.530105 0.202074 0.151890
H48   H     H_    0.404147 0.555710 0.161490 0.156633
H49   H     H_    0.499224 0.594592 0.160814 0.153123
H50   H     H_    0.337831 0.747123 0.175431 0.163352
H51   H     H_    0.417341 0.711120 0.217297 0.142708
C127  C     C_3   0.042751 0.695314 0.285220 -0.244560
C128  C     C_3   0.960771 0.806525 0.286456 -0.427604
H52   H     H_    0.993285 0.853867 0.298132 0.163437
H53   H     H_    0.929272 0.831838 0.257214 0.175871
H54   H     H_    0.898178 0.817016 0.305258 0.137126
H55   H     H_    0.010341 0.649126 0.272274 0.173796
H56   H     H_    0.063833 0.669907 0.315155 0.142233
C129  C     C_3   0.926846 0.561722 0.102306 -0.249384
C130  C     C_3   0.007320 0.469779 0.124528 -0.474546
H57   H     H_    0.033288 0.494575 0.150679 0.139986
H58   H     H_    0.976442 0.419496 0.132190 0.149276
H59   H     H_    0.075174 0.425211 0.106294 0.135368
H60   H     H_    0.913646 0.530578 0.074868 0.168461
H61   H     H_    0.960932 0.610324 0.096580 0.188622
N3    N     N_3   0.041778 0.680120 0.203599 -0.662320
H62   H     H_    0.069345 0.612065 0.187916 0.225781
H63   H     H_    0.006252 0.740322 0.184664 0.233467
C131  C     C_3   0.293510 0.468084 0.306753 -0.277782
C132  C     C_3   0.206572 0.448364 0.293600 -0.445486
H64   H     H_    0.237145 0.365372 0.289211 0.146015
H65   H     H_    0.144375 0.476953 0.314816 0.151994
H66   H     H_    0.173849 0.485133 0.265790 0.153314
H67   H     H_    0.328521 0.479121 0.281096 0.140368
H68   H     H_    0.356630 0.398974 0.319759 0.175792
C133  C     C_3   0.255902 0.449489 0.389217 -0.248695
C134  C     C_3   0.156257 0.482956 0.410389 -0.425916
H69   H     H_    0.148608 0.532563 0.435530 0.172111
H70   H     H_    0.089740 0.525286 0.390719 0.135445
H71   H     H_    0.154430 0.414975 0.420495 0.125857
H72   H     H_    0.256666 0.398755 0.365752 0.133636
H73   H     H_    0.323762 0.398120 0.406582 0.173104
N4    N     N_3   0.489299 0.210397 0.322378 -0.658827
H74   H     H_    0.434983 0.213270 0.341152 0.212019
H75   H     H_    0.529246 0.135649 0.311779 0.244128
N5    N     N_3   0.859718 0.493016 0.349052 -0.649385
H76   H     H_    0.868449 0.420218 0.350496 0.218999
H77   H     H_    0.917095 0.496678 0.365493 0.222149
N6    N     N_3   0.804644 0.061016 0.288325 -0.655190
H78   H     H_    0.876634 0.055570 0.287865 0.219335
H79   H     H_    0.808206 0.993754 0.278404 0.235318
C135  C     C_3   0.846327 0.050463 0.206038 -0.273991
C136  C     C_3   0.830585 0.967803 0.186477 -0.446693
H80   H     H_    0.802276 0.934487 0.207405 0.162195
H81   H     H_    0.776054 0.997020 0.162065 0.176126
H82   H     H_    0.904575 0.907898 0.175059 0.132141
H83   H     H_    0.878502 0.081274 0.185609 0.136872
H84   H     H_    0.908365 0.012981 0.227683 0.137566
N7    N     N_3   0.796943 0.259901 0.401883 -0.583145
H85   H     H_    0.864866 0.192553 0.396058 0.215609
H86   H     H_    0.802332 0.319849 0.390195 0.235398
C137  C     C_3   0.516574 0.165553 0.160708 -0.273465
C138  C     C_3   0.553793 0.069012 0.183735 -0.439275
H87   H     H_    0.594947 0.000687 0.164918 0.143334
H88   H     H_    0.605305 0.066225 0.207616 0.176249
H89   H     H_    0.487195 0.067848 0.196098 0.134973
H90   H     H_    0.475534 0.233455 0.179518 0.146531
H91   H     H_    0.458397 0.169554 0.139356 0.128490
N8    N     N_3   0.811222 0.516721 0.929162 -0.625667
H92   H     H_    0.783598 0.465477 0.929629 0.220060
H93   H     H_    0.884576 0.478190 0.917708 0.219771
N9    N     N_3   0.558226 0.813450 0.676350 -0.658918
H94   H     H_    0.618830 0.817129 0.690175 0.225949
H95   H     H_    0.509611 0.816078 0.697593 0.233210
C139  C     C_3   0.505149 0.607003 0.718615 -0.272891
C140  C     C_3   0.410052 0.703555 0.705073 -0.443628
H96   H     H_    0.346603 0.687393 0.699504 0.148515
H97   H     H_    0.385220 0.766002 0.726767 0.143466
H98   H     H_    0.424409 0.728925 0.677694 0.161169
H99   H     H_    0.539482 0.554916 0.693614 0.144689
H100  H     H_    0.481891 0.564478 0.737474 0.128294
C141  C     C_3   0.492845 0.658612 0.803142 -0.280693
C142  C     C_3   0.513360 0.563437 0.824071 -0.453735
H101  H     H_    0.535483 0.500270 0.803011 0.142789
H102  H     H_    0.575557 0.541499 0.845782 0.158868
H103  H     H_    0.443135 0.577344 0.838887 0.155980
H104  H     H_    0.472738 0.721868 0.824083 0.142131
H105  H     H_    0.422779 0.683726 0.785232 0.149630
N10   N     N_3   0.848660 0.606447 0.796048 -0.640778
H106  H     H_    0.881633 0.536889 0.809971 0.218266
H107  H     H_    0.902474 0.598929 0.776048 0.210525
C143  C     C_3   0.790656 0.436604 0.676131 -0.273850
C144  C     C_3   0.844052 0.339094 0.651633 -0.461465
H108  H     H_    0.787032 0.321005 0.638099 0.153046
H109  H     H_    0.890803 0.346855 0.629342 0.146409
H110  H     H_    0.896256 0.274510 0.669984 0.136421
H111  H     H_    0.851187 0.447655 0.690692 0.144567
H112  H     H_    0.746532 0.425109 0.698324 0.149239
N11   N     N_3   0.510587 0.806437 0.597551 -0.599330
H113  H     H_    0.539650 0.856464 0.600370 0.249881
H114  H     H_    0.439926 0.839660 0.611128 0.236356
N12   N     N_3   0.719486 0.494012 0.211673 -0.642982
H115  H     H_    0.788618 0.458485 0.197075 0.229269
H116  H     H_    0.660139 0.526463 0.191420 0.236172
C145  C     C_3   0.063702 0.530803 0.892317 -0.251313
C146  C     C_3   0.098791 0.436886 0.866113 -0.473269
H117  H     H_    0.047115 0.454305 0.840745 0.139386
H118  H     H_    0.178681 0.408406 0.856890 0.155086
H119  H     H_    0.096405 0.375592 0.881991 0.131572
H120  H     H_    0.111526 0.503591 0.918821 0.168421
H121  H     H_    0.982351 0.559529 0.899466 0.181107
N13   N     N_3   0.287183 0.549347 0.788520 -0.655901
H122  H     H_    0.296180 0.478466 0.780233 0.217320
H123  H     H_    0.354832 0.549458 0.782706 0.222355
N14   N     N_3   0.128876 0.847336 0.832606 -0.655308
H124  H     H_    0.123464 0.898972 0.854230 0.215479
H125  H     H_    0.205095 0.809261 0.823955 0.234537
C147  C     C_3   0.937221 0.853726 0.772775 -0.287439
C148  C     C_3   0.869405 0.808457 0.781588 -0.429421
H126  H     H_    0.853811 0.775583 0.755094 0.153228
H127  H     H_    0.906058 0.749191 0.803552 0.184171
H128  H     H_    0.795738 0.868024 0.793203 0.158071
H129  H     H_    0.950001 0.889115 0.798951 0.176359
H130  H     H_    0.895847 0.915724 0.751865 0.141340
C149  C     C_3   0.191434 0.817584 0.578045 -0.261211
C150  C     C_3   0.089140 0.916200 0.582006 -0.468132
H131  H     H_    0.024686 0.901487 0.575717 0.160058
H132  H     H_    0.080880 0.950036 0.611196 0.137626
H133  H     H_    0.084973 0.972616 0.561360 0.134654
H134  H     H_    0.254728 0.831109 0.587917 0.154759
H135  H     H_    0.198788 0.800158 0.546942 0.168439
N15   N     N_3   0.534075 0.799684 0.175272 -0.651875
H136  H     H_    0.533462 0.774365 0.202664 0.231857
H137  H     H_    0.518083 0.875069 0.178226 0.217479
N16   N     N_3   0.205480 0.478551 0.585814 -0.601267
H138  H     H_    0.148346 0.502682 0.564518 0.226156
H139  H     H_    0.189838 0.436586 0.605080 0.217537
C151  C     C_3   0.504262 0.101079 0.912387 -0.265403
C152  C     C_3   0.396656 0.156875 0.894473 -0.467343
H140  H     H_    0.383092 0.227975 0.880798 0.149976
H141  H     H_    0.385736 0.107047 0.873114 0.139941
H142  H     H_    0.339104 0.177524 0.917169 0.138207
H143  H     H_    0.515528 0.029325 0.924621 0.165881
H144  H     H_    0.506481 0.150084 0.936326 0.149093
C153  C     C_3   0.704877 0.273754 0.723879 -0.283882
C154  C     C_3   0.813368 0.235767 0.740196 -0.447026
H145  H     H_    0.819331 0.215937 0.770837 0.149387
H146  H     H_    0.868559 0.166922 0.723929 0.144804
H147  H     H_    0.836008 0.294815 0.738133 0.132849
H148  H     H_    0.707309 0.282067 0.692637 0.149561
H149  H     H_    0.651019 0.351562 0.734580 0.126081
C155  C     C_3   0.628645 0.270117 0.802710 -0.273724
C156  C     C_3   0.514959 0.330473 0.811644 -0.443163
H150  H     H_    0.472784 0.373331 0.785927 0.139080
H151  H     H_    0.484435 0.280309 0.819463 0.158619
H152  H     H_    0.501903 0.383908 0.836029 0.146622
H153  H     H_    0.672807 0.236125 0.829342 0.153308
H154  H     H_    0.653423 0.324446 0.794635 0.134162
N17   N     N_3   0.648011 0.984827 0.685697 -0.633354
H155  H     H_    0.705894 0.910932 0.691735 0.224956
H156  H     H_    0.577168 0.988002 0.687179 0.239418
C157  C     C_3   0.454183 0.258697 0.674522 -0.233651
C158  C     C_3   0.416242 0.362039 0.694234 -0.444247
H157  H     H_    0.476700 0.361833 0.713241 0.143001
H158  H     H_    0.393185 0.422398 0.672740 0.177759
H159  H     H_    0.348966 0.379636 0.711835 0.121992
H160  H     H_    0.391717 0.260323 0.656186 0.163984
H161  H     H_    0.469135 0.201818 0.696626 0.141600
N18   N     N_3   0.716516 0.801734 0.310486 -0.636681
H162  H     H_    0.783403 0.767466 0.327284 0.227731
H163  H     H_    0.716139 0.861425 0.296115 0.261774
N19   N     N_3   0.432787 0.345680 0.602851 -0.620343
H164  H     H_    0.409186 0.318603 0.579049 0.279648
H165  H     H_    0.430467 0.414404 0.597605 0.264544
C159  C     C_3   0.815768 0.133614 0.580234 -0.268695
C160  C     C_3   0.813689 0.070890 0.545477 -0.417940
H166  H     H_    0.806740 0.005099 0.554899 0.151171
H167  H     H_    0.748966 0.117393 0.525739 0.167719
H168  H     H_    0.885949 0.041712 0.529516 0.131749
H169  H     H_    0.827254 0.196908 0.571374 0.170821
H170  H     H_    0.884972 0.083986 0.597649 0.123478
N20   N     N_3   0.737696 0.810835 0.229502 -0.671870
H171  H     H_    0.803888 0.777300 0.213097 0.243628
H172  H     H_    0.675151 0.855751 0.211775 0.230249

loop_
_geom_bond_atom_site_label_1
_geom_bond_atom_site_label_2
_ccdc_geom_bond_type
C46   C125  S    
C35   N1    S    
C114  C115  A    
C135  H84   S    
C121  H36   S    
C157  H161  S    
C141  C142  S    
C101  C102  A    
C147  H129  S    
C66   C97   S    
C21   C59   S    
C105  N13   S    
C106  C107  A    
C125  H51   S    
C145  H120  S    
N19   H164  S    
C131  H67   S    
C101  N14   S    
C72   H13   S    
C35   C36   A    
N9    H94   S    
C150  H131  S    
C160  H168  S    
C69   N6    S    
C65   H11   S    
C25   O13   A    
C59   C60   A    
C33   O22   A    
C102  C111  S    
C156  H151  S    
C15   C159  S    
N5    H77   S    
C128  H53   S    
Cr2   O21   S    
N14   H125  S    
N2    H45   S    
C26   N12   S    
C114  N16   S    
C6    C11   A    
N16   H139  S    
C126  H47   S    
C124  H40   S    
C94   C97   A    
C99   C110  A    
C115  H22   S    
C120  H29   S    
C82   C91   S    
C66   O3    A    
C32   C34   A    
C75   C76   A    
C131  C132  S    
Cr3   O5    S    
Cr4   O14   S    
C53   C58   A    
C155  C156  S    
C150  H133  S    
C146  H117  S    
C112  H25   S    
C132  H65   S    
C103  H26   S    
C159  H170  S    
C87   C89   A    
C50   N3    S    
C60   H8    S    
C137  H90   S    
C77   O4    A    
C138  H88   S    
C8    C17   S    
C72   C73   A    
N7    H86   S    
C159  C160  S    
C73   N7    S    
C6    C7    A    
C123  H44   S    
C6    C155  S    
C104  C145  S    
C86   C139  S    
C67   H10   S    
Cr3   O23   S    
C149  H135  S    
C69   C70   A    
C88   C99   A    
C3    C11   S    
C123  C124  S    
C127  C128  S    
N17   H155  S    
C44   O1    A    
C19   O7    A    
C122  H33   S    
C44   O23   A    
C135  C136  S    
C15   C18   A    
C40   H3    S    
C148  H127  S    
C22   C98   S    
C155  H154  S    
C121  C122  S    
C95   N9    S    
C23   O16   A    
C85   C86   A    
C108  C109  A    
N6    H78   S    
C29   C30   A    
C36   C37   A    
C109  C111  A    
C79   C84   A    
Cr3   O3    S    
C61   H12   S    
C157  C158  S    
C90   N10   S    
C151  H143  S    
Cr1   O5    S    
C92   C96   A    
C133  C134  S    
C153  H148  S    
C129  H60   S    
C4    H31   S    
C55   O26   A    
C9    C10   A    
C39   C45   A    
Cr1   O12   S    
C141  H104  S    
C134  H69   S    
C142  H103  S    
C132  H64   S    
C124  H42   S    
Cr5   O16   S    
C130  H57   S    
C160  H167  S    
N12   H116  S    
C35   C38   A    
N15   H136  S    
C39   C40   A    
C16   C17   A    
C119  C151  S    
C74   H14   S    
C46   C51   A    
N16   H138  S    
N1    H39   S    
C133  H72   S    
C30   N20   S    
C144  H108  S    
C1    O20   A    
C154  H146  S    
C83   C84   A    
C92   C143  S    
N10   H106  S    
C32   C37   A    
C43   C45   A    
C53   C133  S    
Cr4   O19   S    
C18   C55   S    
C113  C117  A    
C82   C83   A    
C16   H28   S    
C158  H159  S    
C108  H24   S    
C3    C4    A    
C7    C153  S    
C63   C137  S    
C93   C97   A    
C112  C116  A    
C22   O15   A    
C52   C53   A    
C154  H147  S    
C20   O9    A    
N5    H76   S    
C12   C14   A    
C136  H82   S    
C137  C138  S    
C68   C76   S    
C147  H130  S    
C5    C118  A    
C28   C37   S    
C21   O11   A    
C49   C127  S    
C100  C101  A    
N19   H165  S    
C62   C71   S    
C61   C62   A    
C139  H100  S    
C107  C116  S    
C114  C117  A    
C10   C11   A    
Cr4   O7    S    
C4    C5    A    
C152  H142  S    
C140  H96   S    
N9    H95   S    
N3    H62   S    
C134  H71   S    
C142  H101  S    
Cr1   O24   S    
C33   C38   S    
C150  H132  S    
C130  H59   S    
Cr6   O17   S    
N18   H163  S    
N20   H171  S    
C70   C135  S    
C33   O21   A    
C41   C42   A    
C143  H112  S    
C139  C140  S    
C9    N17   S    
C25   C118  S    
C156  H150  S    
C143  H111  S    
C138  H87   S    
C128  H52   S    
C26   C27   A    
N2    H46   S    
C28   C29   A    
Cr5   O9    S    
N18   H162  S    
C144  H110  S    
Cr6   O10   S    
C30   C31   A    
C126  H48   S    
C23   O17   A    
C127  H55   S    
C100  H21   S    
N4    H74   S    
C1    O12   A    
C80   N8    S    
C44   C58   S    
C68   C69   A    
C65   C67   A    
C12   C17   A    
C146  H118  S    
C158  H157  S    
C70   C71   A    
C105  C111  A    
N14   H124  S    
C21   O6    A    
N8    H92   S    
C12   C157  S    
C1    C78   S    
C14   N19   S    
C66   O2    A    
C135  H83   S    
C121  H37   S    
C157  H160  S    
C146  H119  S    
C67   C68   A    
C48   C57   S    
C124  H41   S    
Cr1   O1    S    
C129  C130  S    
C86   C87   A    
C80   C81   A    
C99   H1    S    
C159  H169  S    
C54   H7    S    
C60   C61   A    
C131  H68   S    
C34   C121  S    
N11   H113  S    
C62   C63   A    
C83   H20   S    
C139  H99   S    
C152  H140  S    
C140  H98   S    
C50   C51   A    
C149  H134  S    
C24   C88   A    
C110  N15   S    
C48   C49   A    
C98   C100  A    
C85   C141  S    
C56   C57   A    
C122  H34   S    
C156  H152  S    
C41   H5    S    
C128  H54   S    
Cr2   O20   S    
C46   C47   A    
C2    C110  A    
C143  C144  S    
C119  C120  A    
C89   H18   S    
C105  C106  A    
C122  H35   S    
C145  H121  S    
C90   C91   A    
C136  H80   S    
Cr4   O13   S    
C84   H15   S    
C151  H144  S    
C20   C88   S    
C92   C93   A    
N13   H123  S    
C149  C150  S    
C52   C131  S    
C52   C57   A    
C148  H126  S    
C24   C129  S    
C145  C146  S    
C74   C78   A    
C103  C104  A    
C55   O25   A    
C89   C90   A    
C115  C116  A    
Cr4   O6    S    
C45   C123  S    
C138  H89   S    
C141  H105  S    
C142  H102  S    
C36   N5    S    
C14   C18   A    
C95   C96   A    
C126  H49   S    
C72   C76   A    
Cr5   O15   S    
C130  H58   S    
C81   C82   A    
C85   C91   A    
C125  C126  S    
N13   H122  S    
C59   C64   A    
Cr6   O19   S    
C125  H50   S    
C43   H6    S    
N15   H137  S    
C77   C117  S    
C137  H91   S    
C98   C104  A    
C56   N2    S    
C15   C16   A    
C27   H16   S    
C132  H66   S    
C133  H73   S    
C2    C13   A    
C113  C149  S    
C118  C119  A    
C29   N18   S    
C13   H2    S    
C8    C9    A    
N4    H75   S    
C73   C78   A    
C93   H19   S    
C19   O8    A    
C94   N11   S    
C42   C51   S    
Cr1   O25   S    
Cr2   O26   S    
C64   H9    S    
C26   C31   A    
C106  H23   S    
C155  H153  S    
C158  H158  S    
C102  C103  A    
C112  C113  A    
C77   O24   A    
C32   H32   S    
C20   O10   A    
C54   C56   A    
N6    H79   S    
C74   C75   A    
C47   H4    S    
C75   N4    S    
C10   H30   S    
C136  H81   S    
Cr3   O4    S    
C65   C71   A    
Cr2   O5    S    
C63   C64   A    
C13   C24   A    
C2    C31   S    
C153  H149  S    
C147  C148  S    
C47   C48   A    
C107  C108  A    
C87   C96   S    
C94   C95   A    
N17   H156  S    
C129  H61   S    
N11   H114  S    
C19   C39   S    
C40   C41   A    
C152  H141  S    
C140  H97   S    
C49   C50   A    
N3    H63   S    
C134  H70   S    
Cr5   O19   S    
N7    H85   S    
Cr6   O18   S    
C160  H166  S    
C123  H43   S    
C54   C58   A    
N12   H115  S    
N20   H172  S    
C34   C38   A    
Cr3   O22   S    
C109  C147  S    
N1    H38   S    
N8    H93   S    
Cr5   O8    S    
C144  H109  S    
Cr6   O11   S    
C25   O18   A    
C154  H145  S    
C127  H56   S    
C5    H27   S    
N10   H107  S    
C148  H128  S    
C7    C8    A    
C3    C120  A    
C79   C80   A    
C81   H17   S    
C151  C152  S    
C42   C43   A    
C27   C28   A    
Cr2   O2    S    
C23   C79   S    
C153  C154  S    
C22   O14   A    
