data_mof_unit_51024.cif
_audit_creation_date              2012-12-10T20:31:54-0500
_audit_creation_method            fapswitch 2.2
_symmetry_space_group_name_H-M    P1
_symmetry_Int_Tables_number       1
_space_group_crystal_system       triclinic
_cell_length_a                    9.939157
_cell_length_b                    10.692618
_cell_length_c                    15.389544
_cell_angle_alpha                 90.282469
_cell_angle_beta                  70.937004
_cell_angle_gamma                 89.064453
_cell_volume                      1545.54338758

loop_
_atom_site_label
_atom_site_type_symbol
_atom_type_description
_atom_site_fract_x
_atom_site_fract_y
_atom_site_fract_z
_atom_type_partial_charge
C1    C     C_R   0.501136 0.740059 0.496571 0.871476
C2    C     C_R   0.428812 0.605829 0.903549 0.050988
C3    C     C_R   0.283747 0.606369 0.958406 -0.030390
C4    C     C_R   0.535674 0.609798 0.945801 0.084612
C5    C     C_R   0.493315 0.621718 0.042789 0.007768
C6    C     C_R   0.351688 0.660037 0.090608 -0.302099
C7    C     C_R   0.246125 0.652011 0.049426 0.446032
C8    C     C_R   0.680044 0.581593 0.896348 -0.186611
C9    C     C_R   0.772761 0.543731 0.941684 -0.166141
C10   C     C_R   0.725037 0.532330 0.036449 0.149888
C11   C     C_R   0.589041 0.581010 0.088638 0.128796
C12   C     C_R   0.412888 0.502073 0.675283 0.955180
C13   C     C_R   0.808477 0.466276 0.079267 -0.095589
C14   C     C_R   0.763179 0.454596 0.173790 -0.092963
C15   C     C_R   0.548282 0.572739 0.184565 -0.237509
C16   C     C_R   0.397461 0.938897 0.467274 0.138574
C17   C     C_R   0.510529 0.871560 0.480086 -0.095353
C18   C     C_R   0.637817 0.933158 0.472571 -0.183550
C19   C     C_R   0.639243 0.062527 0.472233 -0.207478
C20   C     C_R   0.513516 0.129023 0.479089 -0.103051
C21   C     C_R   0.399107 0.066703 0.466937 0.126231
C22   C     C_3   0.243692 0.079376 0.518453 -0.429007
C23   C     C_R   0.502968 0.260252 0.496171 0.904977
C24   C     C_3   0.241610 0.938048 0.519059 -0.507639
C25   C     C_R   0.890541 0.544419 0.574180 0.203398
C26   C     C_R   0.964674 0.446596 0.429964 -0.103393
C27   C     C_R   0.108159 0.446683 0.429924 -0.148297
C28   C     C_R   0.032373 0.543338 0.574447 0.315362
C29   C     C_3   0.016500 0.671902 0.613728 -0.494045
C30   C     C_3   0.865159 0.674594 0.611739 -0.515523
C31   C     C_R   0.586817 0.500788 0.325309 0.864690
C32   C     C_R   0.365934 0.526367 0.774417 -0.182007
C33   C     C_R   0.634830 0.510196 0.226356 -0.057478
C34   C     C_R   0.185551 0.548814 0.923091 -0.215862
C35   C     C_R   0.230732 0.495816 0.834272 0.432466
C36   C     C_R   0.462157 0.584309 0.809527 -0.279829
H1    H     H_    0.732470 0.882939 0.474112 0.169471
H2    H     H_    0.734224 0.109229 0.474032 0.174096
H3    H     H_    0.220746 0.121656 0.588098 0.249483
H4    H     H_    0.183688 0.121729 0.475996 0.201320
H5    H     H_    0.217695 0.899167 0.589278 0.218257
H6    H     H_    0.180250 0.900020 0.476411 0.203273
H7    H     H_    0.940923 0.405163 0.372499 0.163989
H8    H     H_    0.191466 0.405323 0.372425 0.161768
H9    H     H_    0.023687 0.674300 0.684287 0.239586
H10   H     H_    0.448377 0.611255 0.228630 0.153867
H11   H     H_    0.085840 0.736924 0.564794 0.202115
H12   H     H_    0.785036 0.680647 0.681241 0.197926
H13   H     H_    0.848011 0.742532 0.561768 0.214805
H14   H     H_    0.827676 0.401384 0.205798 0.163854
H15   H     H_    0.879738 0.515761 0.902193 0.219585
H16   H     H_    0.564920 0.608395 0.763087 0.164747
H17   H     H_    0.318549 0.689728 0.161572 0.164506
H18   H     H_    0.721964 0.576150 0.822545 0.153475
N1    N     N_R   0.856900 0.500860 0.500610 -0.114667
N2    N     N_R   0.142540 0.500820 0.500610 -0.119411
O1    O     O_R   0.385310 0.683210 0.499990 -0.625750
O2    O     O_R   0.614650 0.683240 0.500000 -0.620619
O3    O     O_R   0.319830 0.499970 0.632240 -0.549318
O4    O     O_R   0.549170 0.500000 0.632250 -0.627390
O5    O     O_R   0.385350 0.316760 0.500000 -0.604558
O6    O     O_R   0.614690 0.316790 0.500010 -0.626486
O7    O     O_R   0.450830 0.500000 0.367750 -0.633331
O8    O     O_R   0.680170 0.500030 0.367760 -0.599304
Zn1   Zn    Zn3+2 0.346870 0.499980 0.499990 0.981203
Zn2   Zn    Zn3+2 0.653130 0.500020 0.500010 0.965602
S1    S     S_3+6 0.071042 0.698541 0.116107 0.015438
O9    O     O_2   0.979241 0.723856 0.057315 -0.268398
O10   O     O_2   0.007111 0.596803 0.183044 -0.358295
O11   O     O_3   0.077310 0.830043 0.175156 -0.516389
H19   H     H_    0.081806 0.801701 0.235353 0.352900
H20   H     H_    0.905265 0.418027 0.040085 0.176480
H21   H     H_    0.079235 0.533286 0.967107 0.187958
S2    S     S_3+6 0.131446 0.375340 0.805565 -0.008364
O12   O     O_2   0.231194 0.279480 0.744737 -0.304576
O13   O     O_2   0.040833 0.312082 0.891097 -0.327537
O14   O     O_3   0.026846 0.435589 0.749388 -0.614945
H22   H     H_    0.972039 0.364006 0.738635 0.377007

loop_
_geom_bond_atom_site_label_1
_geom_bond_atom_site_label_2
_ccdc_geom_bond_type
O7    Zn1   S    
C35   S2    S    
C16   C21   A    
C24   H6    S    
C19   C20   A    
C9    H15   S    
C4    C8    A    
C26   N1    A    
C14   C33   A    
C28   N2    A    
O14   H22   S    
C25   C28   A    
C26   C27   A    
S2    O13   D    
C29   H11   S    
C32   C36   A    
C30   H12   S    
C28   C29   S    
C18   H1    S    
C5    C11   A    
C3    C7    A    
C5    C6    A    
C34   C35   A    
N2    Zn1   S    
C18   C19   A    
C12   O3    A    
C11   C15   A    
C27   H8    S    
O2    Zn2   S    
C23   O6    A    
C16   C17   A    
S2    O14   S    
C31   C33   S    
O11   H19   S    
C9    C10   A    
C36   H16   S    
O4    Zn2   S    
C16   C24   S    
C21   C22   S    
C12   C32   S    
C24   H5    S    
C26   H7    S    
S2    O12   D    
O6    Zn2   S    
S1    O9    D    
C32   C35   A    
C31   O7    A    
C8    H18   S    
C27   N2    A    
C8    C9    A    
C3    C34   A    
C29   H9    S    
S1    O10   D    
O8    Zn2   S    
C2    C4    A    
C29   C30   S    
C19   H2    S    
C1    O1    A    
C20   C23   S    
C22   H4    S    
C17   C18   A    
C30   H13   S    
C22   C24   S    
C6    H17   S    
N1    Zn2   S    
C2    C36   A    
C25   C30   S    
C31   O8    A    
C25   N1    A    
O1    Zn1   S    
C4    C5    A    
C10   C13   A    
C6    C7    A    
C13   H20   S    
C1    C17   S    
S1    O11   S    
C2    C3    A    
C1    O2    A    
O3    Zn1   S    
C14   H14   S    
C22   H3    S    
C10   C11   A    
C34   H21   S    
C7    S1    S    
C12   O4    A    
O5    Zn1   S    
C23   O5    A    
C20   C21   A    
C15   H10   S    
C13   C14   A    
C15   C33   A    
