data_mof_unit_47232.cif
_audit_creation_date              2013-03-05T15:50:26-0500
_audit_creation_method            fapswitch 2.2
_symmetry_space_group_name_H-M    P1
_symmetry_Int_Tables_number       1
_space_group_crystal_system       triclinic
_cell_length_a                    18.298395
_cell_length_b                    25.863048
_cell_length_c                    18.267353
_cell_angle_alpha                 89.989627
_cell_angle_beta                  90.133541
_cell_angle_gamma                 89.972785
_cell_volume                      8645.04164146

loop_
_atom_site_label
_atom_site_type_symbol
_atom_site_description
_atom_site_fract_x
_atom_site_fract_y
_atom_site_fract_z
_atom_type_partial_charge
Zn1   Zn    Zn3+2 0.249990 0.293780 0.913250 1.000256
Zn2   Zn    Zn3+2 0.249990 0.706220 0.086750 1.006745
Zn3   Zn    Zn3+2 0.249990 0.706220 0.913250 1.000818
Zn4   Zn    Zn3+2 0.249990 0.293780 0.086750 1.006273
Zn5   Zn    Zn3+2 0.749990 0.793780 0.413250 1.006745
Zn6   Zn    Zn3+2 0.749990 0.206220 0.586750 1.000261
Zn7   Zn    Zn3+2 0.749990 0.206220 0.413250 1.006266
Zn8   Zn    Zn3+2 0.749990 0.793780 0.586750 1.000820
Zn9   Zn    Zn3+2 0.336760 0.206240 0.000000 0.969948
Zn10  Zn    Zn3+2 0.336760 0.793760 0.000000 0.968117
Zn11  Zn    Zn3+2 0.836760 0.706240 0.500000 0.969905
Zn12  Zn    Zn3+2 0.836760 0.293760 0.500000 0.967442
Zn13  Zn    Zn3+2 0.163250 0.206230 0.000000 0.967464
Zn14  Zn    Zn3+2 0.163250 0.793770 0.000000 0.969928
Zn15  Zn    Zn3+2 0.663250 0.706230 0.500000 0.968139
Zn16  Zn    Zn3+2 0.663250 0.293770 0.500000 0.969971
O1    O     O_3   0.249990 0.250010 0.000000 -0.501417
O2    O     O_3   0.249990 0.749990 0.000000 -0.501483
O3    O     O_3   0.749990 0.750010 0.500000 -0.501482
O4    O     O_3   0.749990 0.249990 0.500000 -0.501417
O5    O     O_R   0.335430 0.280650 0.146160 -0.626981
O6    O     O_R   0.335430 0.719350 0.853840 -0.629747
O7    O     O_R   0.335430 0.719350 0.146160 -0.633458
O8    O     O_R   0.335430 0.280650 0.853840 -0.631180
O9    O     O_R   0.835430 0.780650 0.646160 -0.631129
O10   O     O_R   0.835430 0.219350 0.353840 -0.633600
O11   O     O_R   0.835430 0.219350 0.646160 -0.629244
O12   O     O_R   0.835430 0.780650 0.353840 -0.627231
O13   O     O_R   0.164550 0.280640 0.853840 -0.629242
O14   O     O_R   0.164550 0.719360 0.146160 -0.627233
O15   O     O_R   0.164550 0.719360 0.853840 -0.631127
O16   O     O_R   0.164550 0.280640 0.146160 -0.633601
O17   O     O_R   0.664550 0.780640 0.353840 -0.633462
O18   O     O_R   0.664550 0.219360 0.646160 -0.631174
O19   O     O_R   0.664550 0.219360 0.353840 -0.626989
O20   O     O_R   0.664550 0.780640 0.646160 -0.629740
O21   O     O_R   0.396160 0.219380 0.914560 -0.636791
O22   O     O_R   0.396160 0.780620 0.085440 -0.637696
O23   O     O_R   0.396160 0.780620 0.914560 -0.637815
O24   O     O_R   0.396160 0.219380 0.085440 -0.638712
O25   O     O_R   0.896160 0.719380 0.414560 -0.638172
O26   O     O_R   0.896160 0.280620 0.585440 -0.638966
O27   O     O_R   0.896160 0.280620 0.414560 -0.637161
O28   O     O_R   0.896160 0.719380 0.585440 -0.637779
O29   O     O_R   0.103840 0.219370 0.085450 -0.637183
O30   O     O_R   0.103840 0.780630 0.914550 -0.637801
O31   O     O_R   0.103840 0.780630 0.085450 -0.638194
O32   O     O_R   0.103840 0.219370 0.914550 -0.638988
O33   O     O_R   0.603840 0.719370 0.585450 -0.637840
O34   O     O_R   0.603840 0.280630 0.414550 -0.638732
O35   O     O_R   0.603840 0.280630 0.585450 -0.636815
O36   O     O_R   0.603840 0.719370 0.414550 -0.637717
O37   O     O_R   0.310730 0.133160 0.000000 -0.636613
O38   O     O_R   0.310730 0.866840 0.000000 -0.636357
O39   O     O_R   0.810730 0.633160 0.500000 -0.636790
O40   O     O_R   0.810730 0.366840 0.500000 -0.636307
O41   O     O_R   0.249970 0.366860 0.060720 -0.620358
O42   O     O_R   0.249970 0.633140 0.939280 -0.647801
O43   O     O_R   0.249970 0.633140 0.060720 -0.621533
O44   O     O_R   0.249970 0.366860 0.939280 -0.648119
O45   O     O_R   0.749970 0.866860 0.560720 -0.647798
O46   O     O_R   0.749970 0.133140 0.439280 -0.620368
O47   O     O_R   0.749970 0.133140 0.560720 -0.648119
O48   O     O_R   0.749970 0.866860 0.439280 -0.621527
O49   O     O_R   0.189290 0.133150 0.000000 -0.636316
O50   O     O_R   0.189290 0.866850 0.000000 -0.636799
O51   O     O_R   0.689290 0.633150 0.500000 -0.636366
O52   O     O_R   0.689290 0.366850 0.500000 -0.636622
C1    C     C_R   0.389747 0.250017 0.139804 0.784269
C2    C     C_R   0.389787 0.749960 0.860163 0.789850
C3    C     C_R   0.389713 0.749988 0.139832 0.780916
C4    C     C_R   0.389783 0.250023 0.860147 0.788552
C5    C     C_R   0.889730 0.750007 0.639821 0.782707
C6    C     C_R   0.889815 0.249940 0.360189 0.786116
C7    C     C_R   0.889789 0.249942 0.639756 0.782601
C8    C     C_R   0.889799 0.750035 0.360162 0.791635
C9    C     C_R   0.110199 0.250046 0.860237 0.782689
C10   C     C_R   0.110189 0.749977 0.139845 0.791723
C11   C     C_R   0.110258 0.750005 0.860172 0.782797
C12   C     C_R   0.110173 0.250049 0.139818 0.786204
C13   C     C_R   0.610275 0.750000 0.360161 0.781004
C14   C     C_R   0.610205 0.249988 0.639859 0.788644
C15   C     C_R   0.610241 0.249995 0.360189 0.784356
C16   C     C_R   0.610200 0.750029 0.639844 0.789939
C17   C     C_R   0.250029 0.109349 0.000002 0.787230
C18   C     C_R   0.249999 0.890654 0.999982 0.787031
C19   C     C_R   0.750029 0.609346 0.500019 0.787031
C20   C     C_R   0.749998 0.390651 0.499999 0.787229
C21   C     C_R   0.250122 0.391284 0.000086 0.927534
C22   C     C_R   0.249808 0.608738 0.000090 0.928922
C23   C     C_R   0.750117 0.891262 0.499910 0.928905
C24   C     C_R   0.749804 0.108716 0.499914 0.927553
C25   C     C_3   0.180560 0.469453 0.960150 0.044304
C26   C     C_3   0.320909 0.530689 0.963227 0.044960
C27   C     C_3   0.182740 0.529845 0.954287 0.059781
C28   C     C_3   0.319022 0.470259 0.957363 0.059150
C29   C     C_3   0.817187 0.970155 0.545703 0.059778
C30   C     C_3   0.680904 0.029741 0.542647 0.059152
C31   C     C_3   0.819365 0.030547 0.539839 0.044300
C32   C     C_3   0.679016 0.969311 0.536784 0.044961
H1    H     H_    0.181916 0.454423 0.902930 0.111497
H2    H     H_    0.321711 0.545701 0.905979 0.110483
H3    H     H_    0.194261 0.539526 0.895966 0.084367
H4    H     H_    0.309900 0.460521 0.898596 0.083630
H5    H     H_    0.805674 0.960475 0.604025 0.084369
H6    H     H_    0.690034 0.039479 0.601413 0.083629
H7    H     H_    0.818018 0.045576 0.597060 0.111496
H8    H     H_    0.678223 0.954298 0.594032 0.110484
H9    H     H_    0.297072 0.904376 0.130297 0.123556
H10   H     H_    0.297207 0.095552 0.130273 0.123617
H11   H     H_    0.796954 0.404354 0.630344 0.123730
H12   H     H_    0.797230 0.595531 0.630305 0.123764
H13   H     H_    0.210582 0.452768 0.114899 0.225103
H14   H     H_    0.284856 0.547207 0.116555 0.225881
H15   H     H_    0.189867 0.539077 0.104243 0.250248
H16   H     H_    0.305929 0.460979 0.106838 0.250670
H17   H     H_    0.810036 0.960923 0.395747 0.250253
H18   H     H_    0.693974 0.039022 0.393170 0.250664
H19   H     H_    0.789320 0.047232 0.385094 0.225112
H20   H     H_    0.715046 0.952792 0.383451 0.225872
C33   C     C_3   0.253243 0.470603 0.079932 -0.336016
C34   C     C_3   0.243575 0.529429 0.079721 -0.336660
C35   C     C_3   0.756332 0.970571 0.420278 -0.336656
C36   C     C_3   0.746664 0.029397 0.420068 -0.336020
C37   C     C_3   0.250943 0.448960 0.000275 -0.159740
C38   C     C_3   0.249013 0.551103 0.000237 -0.159930
C39   C     C_3   0.750907 0.948897 0.499763 -0.159931
C40   C     C_3   0.748977 0.051040 0.499725 -0.159737
H21   H     H_    0.920130 0.374538 0.925520 0.167570
H22   H     H_    0.884208 0.678472 0.038254 0.134619
H23   H     H_    0.922700 0.623313 0.923642 0.167922
H24   H     H_    0.883197 0.319730 0.037525 0.134144
H25   H     H_    0.422503 0.876639 0.423634 0.165631
H26   H     H_    0.384980 0.176757 0.538944 0.134526
H27   H     H_    0.422166 0.123787 0.424075 0.163863
H28   H     H_    0.384609 0.822623 0.538707 0.135593
C41   C     C_R   0.122192 0.183248 0.735729 -0.146697
C42   C     C_R   0.141449 0.788127 0.284193 -0.139720
C43   C     C_R   0.121263 0.817571 0.736294 -0.147683
C44   C     C_R   0.141901 0.212753 0.284528 -0.139041
C45   C     C_R   0.621446 0.682523 0.236226 -0.146159
C46   C     C_R   0.641085 0.288977 0.783874 -0.139295
C47   C     C_R   0.621508 0.317334 0.236111 -0.146950
C48   C     C_R   0.641263 0.711344 0.783976 -0.139699
C49   C     C_R   0.128435 0.150639 0.675338 -0.178486
C50   C     C_R   0.157202 0.806701 0.354057 -0.135815
C51   C     C_R   0.126890 0.850668 0.676350 -0.174729
C52   C     C_R   0.157925 0.194664 0.354592 -0.135981
C53   C     C_R   0.627118 0.649430 0.176292 -0.174147
C54   C     C_R   0.656615 0.308020 0.853558 -0.134813
C55   C     C_R   0.627269 0.350322 0.176061 -0.175003
C56   C     C_R   0.656904 0.692470 0.853720 -0.137316
C57   C     C_R   0.573036 0.649211 0.122724 -0.101675
C58   C     C_R   0.602863 0.308177 0.907121 -0.109766
C59   C     C_R   0.573299 0.350450 0.122380 -0.102686
C60   C     C_R   0.603163 0.692315 0.907301 -0.109388
C61   C     C_R   0.074848 0.150841 0.621290 -0.092069
C62   C     C_R   0.103482 0.806819 0.407657 -0.115632
C63   C     C_R   0.072851 0.850851 0.622742 -0.090098
C64   C     C_R   0.104255 0.194586 0.408228 -0.115025
C65   C     C_R   0.513127 0.682229 0.128654 -0.122398
C66   C     C_R   0.533299 0.289256 0.891314 -0.111687
C67   C     C_R   0.513404 0.317458 0.128330 -0.115966
C68   C     C_R   0.533505 0.711056 0.891437 -0.104691
C69   C     C_R   0.014690 0.183627 0.627368 -0.112075
C70   C     C_R   0.033731 0.788350 0.391684 -0.109420
C71   C     C_R   0.013004 0.817813 0.628661 -0.120419
C72   C     C_R   0.034266 0.212577 0.392086 -0.115120
C73   C     C_R   0.506166 0.716226 0.189053 0.058710
C74   C     C_R   0.516348 0.269115 0.821095 0.067467
C75   C     C_R   0.506296 0.283626 0.188900 0.056991
C76   C     C_R   0.516445 0.731041 0.821154 0.065669
C77   C     C_R   0.006890 0.216868 0.688463 0.053247
C78   C     C_R   0.016555 0.768658 0.321276 0.068256
C79   C     C_R   0.006100 0.783800 0.689061 0.056805
C80   C     C_R   0.016809 0.231803 0.321472 0.068282
C81   C     C_R   0.061420 0.216790 0.743215 0.083407
C82   C     C_R   0.071147 0.768563 0.266783 0.072082
C83   C     C_R   0.060854 0.783724 0.743597 0.082880
C84   C     C_R   0.071375 0.231897 0.266953 0.073065
C85   C     C_R   0.560948 0.716325 0.243561 0.082669
C86   C     C_R   0.570963 0.269007 0.766621 0.072887
C87   C     C_R   0.560998 0.283585 0.243485 0.082888
C88   C     C_R   0.571052 0.731162 0.766673 0.072370
C89   C     C_R   0.445784 0.749923 0.195996 -0.140926
C90   C     C_R   0.445876 0.250084 0.804012 -0.145161
C91   C     C_R   0.445840 0.250043 0.195942 -0.142203
C92   C     C_R   0.445878 0.749898 0.804017 -0.144496
C93   C     C_R   0.945911 0.249975 0.695869 -0.140355
C94   C     C_R   0.945892 0.750083 0.304025 -0.146040
C95   C     C_R   0.945813 0.750053 0.695969 -0.141013
C96   C     C_R   0.945906 0.249902 0.304043 -0.145197
C97   C     C_R   0.439038 0.783661 0.256434 0.082677
C98   C     C_R   0.429024 0.231007 0.733384 0.072898
C99   C     C_R   0.438989 0.216429 0.256510 0.082896
C100  C     C_R   0.428935 0.768824 0.733332 0.072379
C101  C     C_R   0.938566 0.283196 0.756780 0.083414
C102  C     C_R   0.928840 0.731451 0.233222 0.072091
C103  C     C_R   0.939132 0.716290 0.756398 0.082888
C104  C     C_R   0.928612 0.268089 0.233053 0.073075
C105  C     C_R   0.993095 0.283117 0.811532 0.053236
C106  C     C_R   0.983431 0.731357 0.178729 0.068246
C107  C     C_R   0.993886 0.716215 0.810934 0.056798
C108  C     C_R   0.983177 0.268181 0.178533 0.068274
C109  C     C_R   0.493820 0.783759 0.310942 0.058708
C110  C     C_R   0.483638 0.230900 0.678910 0.067458
C111  C     C_R   0.493690 0.216388 0.311095 0.056982
C112  C     C_R   0.483542 0.768944 0.678850 0.065659
C113  C     C_R   0.054075 0.250010 0.804126 -0.140380
C114  C     C_R   0.054095 0.749932 0.195980 -0.146062
C115  C     C_R   0.054173 0.749961 0.804026 -0.141038
C116  C     C_R   0.054081 0.250083 0.195962 -0.145218
C117  C     C_R   0.554202 0.750062 0.303998 -0.140950
C118  C     C_R   0.554110 0.249931 0.695994 -0.145182
C119  C     C_R   0.554146 0.249971 0.304053 -0.142227
C120  C     C_R   0.554109 0.750087 0.695988 -0.144517
C121  C     C_R   0.378542 0.817465 0.263767 -0.146158
C122  C     C_R   0.358902 0.211035 0.716132 -0.139295
C123  C     C_R   0.378480 0.182678 0.263882 -0.146947
C124  C     C_R   0.358724 0.788643 0.716029 -0.139698
C125  C     C_R   0.877795 0.316739 0.764264 -0.146696
C126  C     C_R   0.858538 0.711886 0.215813 -0.139718
C127  C     C_R   0.878725 0.682442 0.763699 -0.147683
C128  C     C_R   0.858086 0.287235 0.215478 -0.139041
C129  C     C_R   0.372870 0.850558 0.323701 -0.174161
C130  C     C_R   0.343374 0.191992 0.646449 -0.134818
C131  C     C_R   0.372719 0.149690 0.323932 -0.175024
C132  C     C_R   0.343084 0.807518 0.646285 -0.137324
C133  C     C_R   0.871552 0.349348 0.824655 -0.178507
C134  C     C_R   0.842786 0.693312 0.145948 -0.135823
C135  C     C_R   0.873098 0.649344 0.823643 -0.174745
C136  C     C_R   0.842063 0.305323 0.145414 -0.135986
C137  C     C_R   0.925137 0.349144 0.878705 -0.092039
C138  C     C_R   0.896505 0.693195 0.092348 -0.115617
C139  C     C_R   0.927136 0.649162 0.877252 -0.090077
C140  C     C_R   0.895732 0.305399 0.091777 -0.115012
C141  C     C_R   0.426951 0.850776 0.377269 -0.101672
C142  C     C_R   0.397125 0.191837 0.592884 -0.109747
C143  C     C_R   0.426687 0.149564 0.377614 -0.102674
C144  C     C_R   0.396824 0.807671 0.592704 -0.109363
C145  C     C_R   0.985294 0.316357 0.872628 -0.112067
C146  C     C_R   0.966256 0.711666 0.108321 -0.109428
C147  C     C_R   0.986981 0.682201 0.871334 -0.120426
C148  C     C_R   0.965720 0.287407 0.107918 -0.115137
C149  C     C_R   0.486859 0.817756 0.371341 -0.122414
C150  C     C_R   0.466687 0.210759 0.608691 -0.111693
C151  C     C_R   0.486582 0.182557 0.371665 -0.115976
C152  C     C_R   0.466481 0.788928 0.608568 -0.104690
H29   H     H_    0.165290 0.181775 0.776365 0.105957
H30   H     H_    0.184855 0.789636 0.244151 0.122026
H31   H     H_    0.164628 0.818825 0.776656 0.105669
H32   H     H_    0.185289 0.211191 0.244475 0.123230
H33   H     H_    0.664841 0.681294 0.276559 0.105184
H34   H     H_    0.684508 0.290430 0.743842 0.122021
H35   H     H_    0.664825 0.318621 0.276521 0.105005
H36   H     H_    0.684680 0.709876 0.743940 0.122349
H37   H     H_    0.175049 0.125103 0.670474 0.129763
H38   H     H_    0.211218 0.821330 0.366530 0.135706
H39   H     H_    0.173372 0.876297 0.671503 0.129347
H40   H     H_    0.212117 0.180377 0.367194 0.135973
H41   H     H_    0.673663 0.623830 0.171426 0.128938
H42   H     H_    0.710481 0.322965 0.865939 0.134666
H43   H     H_    0.673800 0.375905 0.171189 0.129512
H44   H     H_    0.710850 0.677642 0.866115 0.135461
H45   H     H_    0.577485 0.623348 0.076359 0.165612
H46   H     H_    0.615008 0.323257 0.961062 0.134522
H47   H     H_    0.577820 0.376227 0.075919 0.163844
H48   H     H_    0.615378 0.677362 0.961298 0.135590
H49   H     H_    0.079854 0.125446 0.574476 0.167548
H50   H     H_    0.115780 0.821543 0.461751 0.134616
H51   H     H_    0.077286 0.876700 0.576352 0.167900
H52   H     H_    0.116790 0.180256 0.462479 0.134144
H53   H     H_    0.472477 0.680752 0.085562 0.137222
H54   H     H_    0.493115 0.290949 0.934592 0.133097
H55   H     H_    0.472876 0.318817 0.085122 0.145437
H56   H     H_    0.493337 0.709341 0.934726 0.136316
H57   H     H_    0.974480 0.182584 0.583862 0.144546
H58   H     H_    0.993585 0.790050 0.434994 0.136183
H59   H     H_    0.972369 0.819282 0.585551 0.138523
H60   H     H_    0.994176 0.210875 0.435440 0.133023
H61   H     H_    0.335148 0.818694 0.223433 0.105181
H62   H     H_    0.315480 0.209580 0.756165 0.122025
H63   H     H_    0.335163 0.181391 0.223471 0.105002
H64   H     H_    0.315308 0.790113 0.756066 0.122353
H65   H     H_    0.834699 0.318213 0.723628 0.105955
H66   H     H_    0.815133 0.710376 0.255855 0.122029
H67   H     H_    0.835360 0.681187 0.723337 0.105667
H68   H     H_    0.814699 0.288798 0.255531 0.123233
H69   H     H_    0.824940 0.374885 0.829518 0.129768
H70   H     H_    0.788770 0.678682 0.133476 0.135707
H71   H     H_    0.826617 0.623714 0.828488 0.129352
H72   H     H_    0.787871 0.319611 0.132812 0.135975
H73   H     H_    0.326327 0.876159 0.328564 0.128943
H74   H     H_    0.289508 0.177045 0.634068 0.134669
H75   H     H_    0.326189 0.124106 0.328803 0.129518
H76   H     H_    0.289138 0.822347 0.633891 0.135464
H77   H     H_    0.025503 0.317399 0.916135 0.144541
H78   H     H_    0.006401 0.709967 0.065010 0.136184
H79   H     H_    0.027616 0.680733 0.914445 0.138529
H80   H     H_    0.005810 0.289108 0.064564 0.133020
H81   H     H_    0.527508 0.819233 0.414434 0.137217
H82   H     H_    0.506872 0.209067 0.565412 0.133098
H83   H     H_    0.527109 0.181199 0.414874 0.145443
H84   H     H_    0.506649 0.790641 0.565278 0.136313
H85   H     H_    0.337974 0.047642 0.237233 0.143311
H86   H     H_    0.337919 0.952223 0.237240 0.143323
H87   H     H_    0.837912 0.547601 0.737292 0.144803
H88   H     H_    0.837743 0.452172 0.737325 0.144667
C153  C     C_R   0.203036 0.053877 0.872827 -0.140234
C154  C     C_R   0.202886 0.946237 0.872849 -0.140513
C155  C     C_R   0.702950 0.553855 0.372876 -0.139759
C156  C     C_R   0.702878 0.446216 0.372887 -0.139829
C157  C     C_R   0.179889 0.026940 0.810941 -0.122446
C158  C     C_R   0.179803 0.973234 0.810957 -0.122010
C159  C     C_R   0.679777 0.526906 0.311008 -0.123688
C160  C     C_R   0.679744 0.473202 0.311012 -0.123698
C161  C     C_R   0.225898 0.972832 0.936778 0.071097
C162  C     C_R   0.225958 0.027226 0.936770 0.071210
C163  C     C_R   0.725888 0.472820 0.436810 0.070987
C164  C     C_R   0.725927 0.527213 0.436805 0.071100
C165  C     C_R   0.249983 0.946284 0.999989 -0.141108
C166  C     C_R   0.250068 0.053724 0.999980 -0.141146
C167  C     C_R   0.749978 0.446276 0.500015 -0.141146
C168  C     C_R   0.750063 0.553716 0.500006 -0.141108
C169  C     C_R   0.274123 0.972787 0.063189 0.071098
C170  C     C_R   0.274163 0.027180 0.063184 0.070984
C171  C     C_R   0.774093 0.472774 0.563224 0.071208
C172  C     C_R   0.774153 0.527168 0.563216 0.071095
C173  C     C_R   0.297102 0.946145 0.127117 -0.139776
C174  C     C_R   0.297174 0.053784 0.127106 -0.139844
C175  C     C_R   0.797017 0.446123 0.627165 -0.140253
C176  C     C_R   0.797167 0.553763 0.627144 -0.140533
C177  C     C_R   0.320277 0.973094 0.188984 -0.123691
C178  C     C_R   0.320311 0.026798 0.188980 -0.123702
C179  C     C_R   0.820166 0.473060 0.689050 -0.122448
C180  C     C_R   0.820252 0.526766 0.689034 -0.122011
H89   H     H_    0.203099 0.095646 0.869648 0.123715
H90   H     H_    0.202823 0.904469 0.869688 0.123748
H91   H     H_    0.702980 0.595624 0.369696 0.123540
H92   H     H_    0.702846 0.404448 0.369720 0.123603
H93   H     H_    0.162314 0.047828 0.762666 0.144647
H94   H     H_    0.162145 0.952399 0.762699 0.144782
H95   H     H_    0.662137 0.547777 0.262752 0.143307
H96   H     H_    0.662082 0.452358 0.262759 0.143294
N1    N     N_R   0.112942 0.449855 0.993817 0.254218
O53   O     O_R   0.071617 0.417994 0.957384 -0.416104
O54   O     O_R   0.091720 0.465323 0.058135 -0.355740
N2    N     N_R   0.387125 0.550456 0.999760 0.251943
O55   O     O_R   0.429127 0.583016 0.965534 -0.406950
O56   O     O_R   0.406007 0.534972 0.064901 -0.363062
N3    N     N_R   0.111402 0.553709 0.970774 0.258214
O57   O     O_R   0.057049 0.546204 0.925961 -0.361150
O58   O     O_R   0.101768 0.584234 0.026556 -0.414598
N4    N     N_R   0.389644 0.446471 0.977175 0.258673
O59   O     O_R   0.445801 0.454014 0.934931 -0.348435
O60   O     O_R   0.397051 0.416066 0.033479 -0.421629
N5    N     N_R   0.888522 0.946292 0.529207 0.258211
O61   O     O_R   0.942880 0.953794 0.574015 -0.361147
O62   O     O_R   0.898151 0.915770 0.473419 -0.414567
N6    N     N_R   0.610279 0.053530 0.522844 0.258680
O63   O     O_R   0.554127 0.045985 0.565093 -0.348422
O64   O     O_R   0.602868 0.083939 0.466546 -0.421666
N7    N     N_R   0.886979 0.050145 0.506163 0.254222
O65   O     O_R   0.928310 0.082005 0.542591 -0.416093
O66   O     O_R   0.908191 0.034677 0.441841 -0.355730
N8    N     N_R   0.612795 0.949544 0.500261 0.251937
O67   O     O_R   0.570799 0.916982 0.534493 -0.406943
O68   O     O_R   0.593903 0.965028 0.435123 -0.363082

loop_
_geom_bond_atom_site_label_1
_geom_bond_atom_site_label_2
_geom_bond_distance
_ccdc_geom_bond_type
C48   C88   1.417966 A    
N5    O61   1.301315 A    
C32   C39   1.571694 S    
C129  C141  1.390103 A    
C172  C176  1.418609 A    
C21   C37   1.491747 S    
C177  C178  1.388952 A    
C94   C102  1.414517 A    
O26   C7    1.275905 A    
C23   C39   1.490688 S    
C75   C87   1.411213 A    
C109  C149  1.416893 A    
O30   C11   1.276163 A    
C158  H94   1.082100 S    
C153  H89   1.081829 S    
C52   C64   1.388875 A    
C53   C57   1.390102 A    
Zn12  O26   1.929875 S    
O20   C16   1.276482 A    
C29   C31   1.566093 S    
C56   C60   1.389076 A    
C169  C173  1.418622 A    
C55   C59   1.390085 A    
C29   H5    1.114959 S    
C110  C118  1.414672 A    
C47   C55   1.393772 A    
H26   C142  1.082414 S    
C52   H40   1.082314 S    
O11   C7    1.276841 A    
C53   H41   1.082359 S    
O34   C15   1.276065 A    
C63   H51   1.082507 S    
C163  C167  1.412709 A    
C64   H52   1.082046 S    
H16   C33   1.109274 S    
C49   H37   1.082335 S    
Zn1   O44   1.949050 S    
C25   H1    1.115598 S    
C153  C157  1.393232 A    
Zn2   O43   1.949050 S    
H23   C139  1.082507 S    
Zn5   O48   1.949050 S    
C57   C65   1.393710 A    
Zn6   O47   1.949050 S    
C125  H65   1.082407 S    
Zn15  O3    1.950124 S    
Zn7   O46   1.948883 S    
O16   C12   1.276595 A    
C49   C61   1.389896 A    
C41   H29   1.082409 S    
Zn16  O4    1.949248 S    
C155  C164  1.418623 A    
C108  C116  1.414644 A    
Zn1   O13   1.931394 S    
C22   C38   1.490686 S    
C156  C163  1.418619 A    
C141  C149  1.393709 A    
C124  H64   1.081746 S    
H18   C36   1.109275 S    
C26   C28   1.566971 S    
H24   C140  1.082047 S    
C139  C147  1.393706 A    
Zn4   O16   1.935415 S    
C65   H53   1.082447 S    
C46   C86   1.418210 A    
H28   C144  1.082221 S    
C71   H59   1.082457 S    
Zn6   O4    1.947326 S    
C72   H60   1.081675 S    
C154  C158  1.393333 A    
C93   C101  1.412537 A    
C151  H83   1.082323 S    
C152  H84   1.081789 S    
C111  C151  1.416744 A    
C136  H72   1.082315 S    
C31   C40   1.572147 S    
C30   H6    1.114915 S    
Zn10  O22   1.929875 S    
C132  H76   1.082282 S    
C133  H69   1.082334 S    
C126  H66   1.081720 S    
O25   C8    1.276203 A    
Zn13  O29   1.934319 S    
Zn10  O2    1.950423 S    
N2    O55   1.301327 A    
C44   C84   1.418126 A    
C63   C71   1.393706 A    
C134  C138  1.389046 A    
O29   C12   1.276392 A    
C167  C171  1.412724 A    
Zn15  O33   1.934319 S    
C18   C165  1.438759 S    
C43   C83   1.416871 A    
C179  C180  1.389000 A    
C26   H2    1.115583 S    
O37   C17   1.270277 A    
O48   C23   1.274839 A    
C122  C130  1.393683 A    
C171  C175  1.418641 A    
C34   C38   1.559731 S    
C155  C159  1.393266 A    
N3    O57   1.301317 A    
Zn16  O35   1.934401 S    
C134  H70   1.082297 S    
H9    C173  1.081819 S    
C35   C36   1.531587 S    
C97   C121  1.416870 A    
C130  H74   1.082337 S    
Zn7   O10   1.935372 S    
O33   C16   1.276487 A    
C132  C144  1.389076 A    
C101  C125  1.416926 A    
O40   C20   1.270261 A    
C106  C146  1.418049 A    
C136  C140  1.388874 A    
H85   C178  1.082152 S    
C82   C114  1.414519 A    
H11   C175  1.081829 S    
C84   C116  1.414503 A    
N8    O67   1.301326 A    
C13   C117  1.449275 S    
Zn5   O17   1.931394 S    
C102  C106  1.411888 A    
C31   N7    1.473128 S    
C1    C91   1.449237 S    
C45   C85   1.416870 A    
C2    C92   1.452680 S    
C12   C116  1.452675 S    
C65   C73   1.416892 A    
C64   C72   1.393275 A    
C61   H49   1.082410 S    
C25   C27   1.566106 S    
C47   H35   1.082413 S    
C74   C86   1.411940 A    
C107  C115  1.412856 A    
O28   C5    1.276257 A    
H25   C141  1.082524 S    
C3    C89   1.449274 S    
C105  C113  1.412932 A    
N6    O63   1.301277 A    
C27   H3    1.114958 S    
C25   C37   1.572145 S    
C32   H8    1.115582 S    
Zn8   O3    1.947659 S    
C97   C109  1.411259 A    
C8    C94   1.452592 S    
C61   C69   1.393842 A    
O38   C18   1.270293 A    
C96   C104  1.414507 A    
C59   C67   1.393738 A    
O5    C1    1.276254 A    
O32   C9    1.275811 A    
C100  C112  1.411943 A    
C112  C152  1.417984 A    
C33   C37   1.559660 S    
C153  C162  1.418642 A    
C35   C39   1.559729 S    
C60   H48   1.082219 S    
C104  C108  1.411886 A    
Zn15  O51   1.948988 S    
Zn11  O28   1.930156 S    
Zn12  O40   1.948947 S    
C20   C167  1.438632 S    
C138  C146  1.393278 A    
C6    C96   1.452677 S    
C50   H38   1.082297 S    
C155  H91   1.081822 S    
C148  H80   1.081675 S    
C71   C79   1.416902 A    
C149  H81   1.082445 S    
C72   C80   1.418076 A    
C90   C98   1.414772 A    
C42   H30   1.081719 S    
O50   C18   1.270322 A    
C50   C62   1.389044 A    
C154  C161  1.418611 A    
C55   H43   1.082387 S    
C122  H62   1.081773 S    
Zn1   O1    1.947327 S    
C46   H34   1.081774 S    
Zn13  O1    1.950124 S    
Zn2   O14   1.935224 S    
C48   C56   1.393306 A    
C66   H54   1.081807 S    
C27   C38   1.572747 S    
C166  C170  1.412711 A    
C42   C50   1.393294 A    
C157  H93   1.082252 S    
O9    C5    1.276160 A    
O39   C19   1.270320 A    
O36   C13   1.276289 A    
C68   C76   1.417987 A    
C80   C84   1.411886 A    
O13   C9    1.276748 A    
C126  C134  1.393294 A    
Zn1   O8    1.935180 S    
C147  H79   1.082456 S    
N4    O59   1.301280 A    
Zn2   O7    1.931350 S    
C173  C177  1.393269 A    
Zn3   O6    1.935372 S    
C135  C139  1.390066 A    
O18   C14   1.276049 A    
O31   C10   1.276110 A    
O6    C2    1.276575 A    
C121  C129  1.393814 A    
C44   H32   1.081658 S    
Zn14  O30   1.930408 S    
C67   H55   1.082324 S    
C11   C115  1.449231 S    
C48   H36   1.081748 S    
Zn11  O3    1.949548 S    
O41   C21   1.275007 A    
C164  C168  1.412793 A    
C41   C49   1.393608 A    
C110  C150  1.418259 A    
Zn16  O34   1.930408 S    
C88   C120  1.414473 A    
C124  C132  1.393307 A    
C143  C151  1.393738 A    
Zn8   O20   1.935415 S    
H87   C180  1.082100 S    
C27   N3    1.475378 S    
C170  C174  1.418619 A    
N7    O65   1.300850 A    
N1    O54   1.301315 A    
C67   C75   1.416744 A    
C78   C82   1.411887 A    
C135  H71   1.082346 S    
H20   C35   1.110318 S    
C29   C39   1.572746 S    
C36   C40   1.559661 S    
C56   H44   1.082282 S    
C30   C40   1.573162 S    
C109  C117  1.412864 A    
C159  C160  1.388952 A    
N5    O62   1.301424 A    
C103  C107  1.411255 A    
Zn8   O9    1.931020 S    
C30   N6    1.475284 S    
C99   C123  1.416894 A    
C108  C148  1.418077 A    
C127  C135  1.393803 A    
C19   C168  1.438759 S    
C70   C78   1.418050 A    
C162  C166  1.412723 A    
O7    C3    1.276377 A    
O19   C15   1.276160 A    
C145  H77   1.082130 S    
H19   C36   1.110275 S    
H22   C138  1.082264 S    
Zn9   O24   1.930156 S    
C29   N5    1.475380 S    
Zn6   O18   1.935224 S    
Zn10  O23   1.934069 S    
C47   C87   1.416894 A    
C57   H45   1.082523 S    
C66   C74   1.418264 A    
C168  C172  1.412822 A    
C131  C143  1.390083 A    
C74   C90   1.414675 A    
C111  C119  1.412885 A    
Zn15  O36   1.930127 S    
O15   C11   1.276068 A    
O42   C22   1.277506 A    
C4    C90   1.452585 S    
C33   C34   1.531590 S    
C78   C94   1.414495 A    
Zn4   O1    1.947659 S    
C30   C32   1.566983 S    
Zn9   O37   1.949386 S    
O12   C8    1.276202 A    
H86   C177  1.082097 S    
Zn11  O39   1.949386 S    
C62   C70   1.393280 A    
C68   H56   1.081788 S    
C69   H57   1.082131 S    
C58   C66   1.393581 A    
C15   C119  1.449237 S    
N3    O58   1.301424 A    
Zn5   O3    1.947327 S    
C31   H7    1.115597 S    
C62   H50   1.082263 S    
C45   H33   1.082414 S    
C46   C54   1.393687 A    
C171  C172  1.406793 A    
C157  C158  1.389000 A    
C129  H73   1.082360 S    
C169  C170  1.406782 A    
C159  H95   1.082094 S    
C17   C166  1.438632 S    
C163  C164  1.406777 A    
Zn3   O42   1.948883 S    
C161  C165  1.412820 A    
C99   C111  1.411211 A    
C150  H82   1.081809 S    
Zn7   O4    1.947661 S    
O21   C4    1.276241 A    
C125  C133  1.393608 A    
C144  C152  1.393282 A    
C123  C131  1.393774 A    
C175  C179  1.393230 A    
C123  H63   1.082414 S    
C130  C142  1.388994 A    
Zn2   O2    1.947326 S    
Zn14  O2    1.949248 S    
H10   C174  1.081820 S    
C51   C63   1.390067 A    
C44   C52   1.393139 A    
N6    O64   1.301357 A    
C160  H96   1.082151 S    
C45   C53   1.393816 A    
C98   C122  1.418206 A    
Zn13  O49   1.948988 S    
O44   C21   1.277913 A    
C43   C51   1.393802 A    
Zn12  O4    1.950423 S    
C51   H39   1.082347 S    
C102  C126  1.418028 A    
C95   C103  1.412931 A    
Zn12  O27   1.934069 S    
C128  C136  1.393140 A    
C79   C95   1.412855 A    
C80   C96   1.414643 A    
C107  C147  1.416904 A    
C69   C77   1.416330 A    
C83   C115  1.412932 A    
C105  C145  1.416333 A    
Zn3   O2    1.947661 S    
C81   C113  1.412537 A    
C137  C145  1.393843 A    
C41   C81   1.416927 A    
C14   C118  1.452583 S    
O46   C24   1.275005 A    
O47   C24   1.277914 A    
C101  C105  1.411137 A    
Zn16  O52   1.949427 S    
H88   C179  1.082255 S    
C9    C113  1.449288 S    
Zn8   O45   1.948883 S    
O27   C6    1.276485 A    
C26   N2    1.473684 S    
C112  C120  1.414446 A    
H15   C34   1.109335 S    
C133  C137  1.389894 A    
N7    O66   1.301315 A    
C142  C150  1.393577 A    
C106  C114  1.414492 A    
C24   C40   1.491748 S    
N2    O56   1.301354 A    
C100  C124  1.417965 A    
C156  H92   1.081817 S    
C26   C38   1.571694 S    
O8    C4    1.276143 A    
C98   C110  1.411941 A    
O24   C1    1.276159 A    
C104  C128  1.418126 A    
C25   N1    1.473125 S    
C79   C83   1.411255 A    
C156  C160  1.393231 A    
H21   C137  1.082409 S    
O43   C22   1.274839 A    
O14   C10   1.276108 A    
Zn4   O41   1.948883 S    
Zn3   O15   1.931063 S    
C32   N8    1.473683 S    
Zn5   O12   1.935180 S    
C76   C88   1.411944 A    
C121  H61   1.082414 S    
Zn6   O11   1.931350 S    
C77   C81   1.411138 A    
C73   C85   1.411261 A    
C87   C119  1.412821 A    
Zn9   O21   1.934151 S    
Zn14  O50   1.949427 S    
H13   C33   1.110274 S    
O35   C14   1.276147 A    
C92   C100  1.414477 A    
C5    C95   1.449231 S    
C127  H67   1.082414 S    
Zn9   O1    1.949548 S    
C128  H68   1.081656 S    
C54   H42   1.082338 S    
N4    O60   1.301355 A    
C174  C178  1.393233 A    
O52   C20   1.270279 A    
C42   C82   1.418028 A    
C154  H90   1.081819 S    
C146  H78   1.081759 S    
C10   C114  1.452590 S    
O22   C3    1.276382 A    
C91   C99   1.412821 A    
Zn7   O19   1.931063 S    
C43   H31   1.082415 S    
C176  C180  1.393336 A    
C89   C97   1.412923 A    
C58   H46   1.082418 S    
C28   N4    1.475285 S    
Zn13  O32   1.930127 S    
C85   C117  1.412920 A    
O49   C17   1.270264 A    
Zn14  O31   1.934401 S    
O51   C19   1.270296 A    
C75   C91   1.412883 A    
C140  C148  1.393273 A    
C28   H4    1.114915 S    
H17   C35   1.109335 S    
C73   C89   1.412862 A    
Zn4   O5    1.931020 S    
C76   C92   1.414447 A    
C165  C169  1.412795 A    
C77   C93   1.412933 A    
O10   C6    1.276691 A    
O23   C2    1.276580 A    
H27   C143  1.082496 S    
C28   C37   1.573162 S    
Zn11  O25   1.934151 S    
C131  H75   1.082385 S    
C161  C162  1.406790 A    
Zn10  O38   1.948947 S    
N8    O68   1.301355 A    
C7    C93   1.449286 S    
H12   C176  1.081817 S    
H14   C34   1.110316 S    
O45   C23   1.277505 A    
C103  C127  1.416873 A    
C60   C68   1.393280 A    
C54   C58   1.388993 A    
C86   C118  1.414772 A    
N1    O53   1.300850 A    
O17   C13   1.276284 A    
C70   H58   1.081758 S    
C59   H47   1.082493 S    
C16   C120  1.452676 S    
