data_mof_unit_59979.cif
_audit_creation_date              2013-03-05T16:18:15-0500
_audit_creation_method            fapswitch 2.2
_symmetry_space_group_name_H-M    P1
_symmetry_Int_Tables_number       1
_space_group_crystal_system       triclinic
_cell_length_a                    8.337688
_cell_length_b                    19.190242
_cell_length_c                    23.066609
_cell_angle_alpha                 101.09429
_cell_angle_beta                  90.437376
_cell_angle_gamma                 91.649836
_cell_volume                      3619.90891222

loop_
_atom_site_label
_atom_site_type_symbol
_atom_site_description
_atom_site_fract_x
_atom_site_fract_y
_atom_site_fract_z
_atom_type_partial_charge
P1    P     P_3+3 0.933470 0.664380 0.557030 0.433387
O1    O     O_2   0.108070 0.674980 0.540650 -0.351971
O2    O     O_3   0.861930 0.586170 0.535430 -0.428741
O3    O     O_3   0.366390 0.628250 0.433820 -0.355909
O4    O     O_2   0.287705 0.750975 0.490556 -0.419860
O5    O     O_3   0.966646 0.676782 0.633647 -0.570407
O6    O     O_3   0.312143 0.744992 0.376799 -0.515154
H1    H     H_    0.401662 0.661696 0.315807 0.116143
C1    C     C_3   0.357951 0.752725 0.276144 -0.894347
H2    H     H_    0.240999 0.728623 0.258141 0.286238
H3    H     H_    0.346999 0.811087 0.290079 0.236639
P2    P     P_3+3 0.383600 0.440030 0.365120 0.473442
P3    P     P_3+3 0.942986 0.585567 0.325855 0.463143
O7    O     O_2   0.211060 0.461230 0.357810 -0.360648
O8    O     O_3   0.958150 0.591500 0.402390 -0.383761
O9    O     O_2   0.075814 0.536676 0.296664 -0.371259
O10   O     O_3   0.375787 0.347270 0.344170 -0.557477
O11   O     O_3   0.994695 0.668447 0.309338 -0.510466
C2    C     C_3   0.920400 0.721026 0.350251 0.526632
H4    H     H_    0.979939 0.727075 0.394332 0.129497
H5    H     H_    0.791021 0.707758 0.354085 -0.013835
C3    C     C_3   0.935282 0.791531 0.329443 -1.004313
H6    H     H_    0.063261 0.807668 0.326913 0.285819
H7    H     H_    0.877666 0.786628 0.285220 0.264286
C4    C     C_3   0.819687 0.374900 0.344000 0.419982
H8    H     H_    0.700143 0.389933 0.361768 0.095957
H9    H     H_    0.906389 0.420547 0.355934 0.128931
C5    C     C_3   0.807186 0.354900 0.276979 -0.928289
H10   H     H_    0.717086 0.310792 0.263876 0.273556
H11   H     H_    0.770003 0.400959 0.258211 0.226549
H12   H     H_    0.925482 0.337834 0.258458 0.263810
Ba1   Ba    Ba6+2 0.157290 0.533910 0.474710 1.539387
C6    C     C_3   0.821811 0.682360 0.664049 0.367134
H13   H     H_    0.835565 0.656672 0.702966 0.091123
H14   H     H_    0.722663 0.653549 0.637273 0.126904
C7    C     C_3   0.784963 0.760166 0.686240 -0.997308
H15   H     H_    0.889961 0.788356 0.711107 0.269251
H16   H     H_    0.680787 0.763977 0.716218 0.252166
H17   H     H_    0.756177 0.786231 0.648651 0.237725
C8    C     C_3   0.318296 0.317410 0.390996 0.450778
H18   H     H_    0.194197 0.334174 0.400805 0.085986
H19   H     H_    0.396008 0.333217 0.430959 0.137928
C9    C     C_3   0.318113 0.236869 0.372886 -0.977708
H20   H     H_    0.237879 0.219070 0.333874 0.266720
H21   H     H_    0.274994 0.211911 0.409660 0.220596
H22   H     H_    0.441704 0.219191 0.361697 0.269936
P4    P     P_3+3 0.876840 0.335610 0.442930 0.455672
O12   O     O_2   0.702240 0.324970 0.459330 -0.350380
O13   O     O_3   0.948380 0.413820 0.464520 -0.447460
O14   O     O_3   0.443920 0.371740 0.566130 -0.352434
O15   O     O_3   0.871906 0.316040 0.365604 -0.556703
P5    P     P_3+3 0.859256 0.417598 0.676095 0.441793
O16   O     O_3   0.358830 0.538360 0.571050 -0.396052
O17   O     O_3   0.852160 0.408490 0.597560 -0.419790
O18   O     O_2   0.693932 0.445846 0.697352 -0.360525
O19   O     O_3   0.853488 0.333995 0.695858 -0.520588
Ba2   Ba    Ba6+2 0.652900 0.466090 0.525240 1.515873
P6    P     P_3+3 0.394931 0.718996 0.438854 0.425610
C10   C     C_3   0.410555 0.720676 0.328341 0.444807
H23   H     H_    0.537336 0.738010 0.338219 0.014148
H24   H     H_    0.448755 0.742963 0.240897 0.260587
O20   O     O_3   0.451480 0.461630 0.428900 -0.408783
C11   C     C_3   0.410185 0.691952 0.624649 0.436082
H25   H     H_    0.523084 0.702476 0.602635 0.015521
H26   H     H_    0.330661 0.661779 0.590694 0.167641
C12   C     C_3   0.335412 0.762797 0.649223 -0.908086
H27   H     H_    0.420727 0.797167 0.680053 0.237062
H28   H     H_    0.305271 0.790341 0.612627 0.233940
H29   H     H_    0.224152 0.754226 0.673342 0.281130
P7    P     P_3+3 0.420312 0.563157 0.646809 0.423816
O21   O     O_2   0.599240 0.538720 0.642170 -0.371973
O22   O     O_3   0.438840 0.655819 0.671078 -0.598982
H30   H     H_    0.876302 0.833807 0.360834 0.224510
C13   C     C_3   0.889436 0.282222 0.646541 0.523378
H31   H     H_    0.800309 0.281200 0.610271 0.154062
H32   H     H_    0.011450 0.292856 0.631093 -0.001878
C14   C     C_3   0.883771 0.209807 0.664309 -0.993843
H33   H     H_    0.897030 0.167089 0.624990 0.226489
H34   H     H_    0.981999 0.206835 0.696453 0.257052
H35   H     H_    0.766884 0.200859 0.684779 0.284938
P8    P     P_3+3 0.415784 0.281215 0.562231 0.417742
C15   C     C_3   0.395164 0.286908 0.673421 0.399056
H36   H     H_    0.269834 0.265710 0.665621 0.031793
O23   O     O_2   0.526674 0.248104 0.512034 -0.413272
O24   O     O_3   0.493365 0.257985 0.626165 -0.516370
H37   H     H_    0.396990 0.345969 0.680121 0.112273
H38   H     H_    0.371139 0.281648 0.765734 0.273616
C16   C     C_3   0.456882 0.265702 0.729515 -0.874760
H39   H     H_    0.575234 0.292240 0.742615 0.283312
H40   H     H_    0.468937 0.207189 0.722363 0.241511
C17   C     C_R   0.950897 0.197089 0.469018 -0.304163
H41   H     H_    0.863769 0.175198 0.434987 0.155211
C18   C     C_R   0.989593 0.270974 0.477083 0.320926
C19   C     C_R   0.139586 0.188439 0.546935 -0.343268
H42   H     H_    0.180667 0.166517 0.583888 0.143162
C20   C     C_R   0.208367 0.253788 0.540253 0.227675
C21   C     C_R   0.673994 0.810391 0.452358 -0.361941
H43   H     H_    0.634277 0.831132 0.414689 0.137085
C22   C     C_R   0.602866 0.746031 0.460520 0.223009
C23   C     C_R   0.861910 0.803549 0.531016 -0.321121
H44   H     H_    0.951189 0.825645 0.564175 0.153865
C24   C     C_R   0.819222 0.730277 0.525132 0.285935
C25   C     C_R   0.018943 0.153735 0.507028 0.097829
C26   C     C_R   0.125567 0.296740 0.509566 -0.470990
H45   H     H_    0.172314 0.349498 0.508193 0.146811
C27   C     C_R   0.794797 0.845768 0.491876 0.117930
C28   C     C_R   0.682352 0.704354 0.493218 -0.407707
H46   H     H_    0.634858 0.651694 0.494929 0.161605
C29   C     C_R   0.229172 0.035341 0.535977 -0.174784
C30   C     C_R   0.323194 0.984267 0.553357 -0.123533
C31   C     C_R   0.277597 0.913676 0.536719 -0.114531
C32   C     C_R   0.131559 0.895613 0.507730 -0.140750
C33   C     C_R   0.014648 0.946734 0.506155 0.056406
C34   C     C_R   0.068113 0.020322 0.516155 0.103085
C35   C     C_R   0.851792 0.924216 0.491846 -0.077813
C36   C     C_R   0.746838 0.978677 0.480677 0.101473
C37   C     C_R   0.800089 0.052284 0.491171 0.057096
C38   C     C_R   0.962708 0.074878 0.505705 -0.076817
C39   C     C_R   0.586560 0.963765 0.459682 -0.178085
C40   C     C_R   0.493542 0.015133 0.442146 -0.125876
C41   C     C_R   0.538709 0.085694 0.459605 -0.101933
C42   C     C_R   0.683183 0.103360 0.489698 -0.146828
H47   H     H_    0.293426 0.083718 0.534885 0.144390
H48   H     H_    0.441927 0.998617 0.572026 0.138746
H49   H     H_    0.361031 0.873494 0.542634 0.151367
H50   H     H_    0.108976 0.841312 0.486683 0.187511
H51   H     H_    0.521510 0.915435 0.459982 0.146171
H52   H     H_    0.375524 0.000957 0.422745 0.138571
H53   H     H_    0.456245 0.126196 0.453506 0.155562
H54   H     H_    0.704844 0.157352 0.511569 0.184283
H55   H     H_    0.422151 0.325042 0.035232 0.193758
C43   C     C_R   0.641178 0.523602 0.336257 -0.510410
C44   C     C_R   0.325652 0.563948 0.958434 -0.031513
C45   C     C_R   0.278837 0.560998 0.899074 0.542745
O25   O     O_2   0.253685 0.615952 0.881576 -0.581270
N1    N     N_R   0.262267 0.496421 0.860430 -0.164836
C46   C     C_R   0.282218 0.433542 0.880302 0.558082
O26   O     O_2   0.261795 0.377155 0.845816 -0.565817
C47   C     C_R   0.327329 0.434141 0.939887 -0.232165
C48   C     C_R   0.351090 0.500255 0.978824 -0.073813
C49   C     C_R   0.349098 0.629324 0.997726 -0.125570
C50   C     C_R   0.398545 0.631802 0.056031 -0.123000
C51   C     C_R   0.425376 0.568963 0.077049 -0.030448
C52   C     C_R   0.400525 0.502933 0.038460 -0.014599
C53   C     C_R   0.349860 0.370783 0.961763 0.645559
C54   C     C_R   0.401421 0.374302 0.020379 -0.283924
C55   C     C_R   0.426213 0.439741 0.059253 -0.114726
C56   C     C_R   0.476732 0.443359 0.118495 0.560443
N2    N     N_R   0.500785 0.508452 0.156123 -0.166968
C57   C     C_R   0.476360 0.570770 0.135853 0.527061
C58   C     C_2   0.077196 0.469697 0.776626 -0.245558
C59   C     C_3   0.028556 0.478915 0.715643 0.124199
C60   C     C_1   0.307193 0.518418 0.700617 0.187619
C61   C     C_2   0.344719 0.522548 0.758141 0.069623
C62   C     C_2   0.224203 0.494582 0.798439 0.130039
C63   C     C_R   0.698543 0.545110 0.238294 -0.221583
C64   C     C_R   0.744210 0.550029 0.297638 0.194501
C65   C     C_R   0.498936 0.486872 0.315406 0.304893
C66   C     C_R   0.453047 0.481371 0.255902 -0.193956
C67   C     C_R   0.550857 0.511761 0.217096 0.139885
O27   O     O_2   0.500730 0.388596 0.136440 -0.585203
O28   O     O_2   0.498140 0.627940 0.169222 -0.616639
C68   C     C_2   0.176293 0.481305 0.678033 -0.210549
H56   H     H_    0.415981 0.683322 0.084659 0.166321
H57   H     H_    0.777998 0.566209 0.208541 0.160205
H58   H     H_    0.330423 0.679036 0.983364 0.169173
H59   H     H_    0.988781 0.451366 0.805068 0.163162
H60   H     H_    0.342003 0.453480 0.239735 0.166299
H61   H     H_    0.677293 0.527294 0.381935 0.175155
O29   O     O_3   0.331930 0.304899 0.925064 -0.583471
C69   C     C_3   0.182851 0.274091 0.936618 -0.130289
H62   H     H_    0.081771 0.308701 0.930244 0.135309
H63   H     H_    0.180612 0.261978 0.981874 0.110333
H64   H     H_    0.164347 0.223159 0.904842 0.170782
N3    N     N_2   0.486946 0.560476 0.783455 -0.083901
H65   H     H_    0.541821 0.595707 0.760830 0.205086
C70   C     C_3   0.596106 0.524016 0.815828 -0.789962
H66   H     H_    0.598139 0.549966 0.863143 0.228335
H67   H     H_    0.719812 0.527909 0.799018 0.239748
H68   H     H_    0.561555 0.466855 0.811622 0.252330
N4    N     N_2   0.152725 0.466136 0.616841 -0.105981
H69   H     H_    0.131645 0.413188 0.599814 0.149731
C71   C     C_3   0.047712 0.516040 0.597861 -0.436539
H70   H     H_    0.002937 0.492119 0.553899 0.279840
H71   H     H_    0.109739 0.567336 0.599211 0.229258
H72   H     H_    0.942738 0.529824 0.626490 0.187925

loop_
_geom_bond_atom_site_label_1
_geom_bond_atom_site_label_2
_geom_bond_distance
_ccdc_geom_bond_type
C12   H28   1.109622 S    
H38   C16   1.107257 S    
C11   H26   1.088010 S    
C68   N4    1.396424 S    
P7    C60   1.883744 S    
N2    C67   1.453103 S    
C55   C56   1.415147 A    
C37   C42   1.406864 A    
C21   H43   1.076725 S    
N2    C57   1.384925 Am   
Ba2   O20   2.761794 S    
P4    O13   1.585142 S    
N4    H69   1.025991 S    
C36   C37   1.442791 A    
C4    C5    1.521512 S    
C69   H63   1.112457 S    
C49   H58   1.083274 S    
C13   H32   1.106845 S    
C61   N3    1.432860 S    
C60   C68   1.331748 D    
C1    H24   1.108264 S    
C56   O27   1.222302 D    
C5    H10   1.110674 S    
C2    H5    1.109330 S    
C54   C55   1.404504 A    
C71   H71   1.093663 S    
H1    C10   1.113129 S    
C50   H56   1.083359 S    
C58   H59   1.085759 S    
C12   H29   1.109691 S    
P4    Ba2   3.443027 S    
O29   C69   1.410290 S    
C35   C36   1.441264 A    
C6    C7    1.523321 S    
O13   Ba2   2.948146 S    
C66   H60   1.082653 S    
H55   C54   1.083524 S    
O1    Ba1   2.880881 S    
P1    O1    1.524564 D    
P3    C64   1.839323 S    
C30   C31   1.376570 A    
C26   H45   1.080624 S    
C30   H48   1.083255 S    
C49   C50   1.395279 A    
C51   C57   1.412103 A    
C47   C53   1.419874 A    
N3    H65   1.029775 S    
C70   H67   1.110205 S    
C13   C14   1.522194 S    
P2    O10   1.751635 S    
C31   H49   1.080317 S    
C58   C59   1.505212 S    
P7    O21   1.574923 D    
C58   C62   1.359390 D    
C1    H2    1.109572 S    
O6    P6    1.747500 S    
C32   H50   1.072208 S    
P5    O18   1.544470 D    
N4    C71   1.441943 S    
C12   H27   1.109730 S    
C11   C12   1.521816 S    
C10   H23   1.107631 S    
P2    Ba1   3.422298 S    
C66   C67   1.411060 A    
C19   H42   1.078283 S    
Ba1   Ba2   4.576870 S    
C52   C55   1.408437 A    
O16   P7    1.787513 S    
C18   C26   1.379629 A    
O6    C10   1.405617 S    
C32   C33   1.407880 A    
C21   C22   1.400570 A    
P5    O17   1.786513 S    
C53   C54   1.404207 A    
C14   H34   1.110607 S    
C57   O28   1.220841 D    
C69   H64   1.109153 S    
C11   O22   1.405795 S    
O19   C13   1.399431 S    
C13   H31   1.111714 S    
P1    O5    1.755944 S    
C36   C39   1.420213 A    
O12   Ba2   2.881624 S    
C2    C3    1.522362 S    
C56   N2    1.385494 Am   
N3    C70   1.450131 S    
C71   H72   1.107715 S    
C17   C25   1.443289 A    
C17   H41   1.080379 S    
N1    C62   1.455921 S    
O16   Ba2   2.953474 S    
C29   H47   1.063052 S    
C45   N1    1.382934 Am   
C4    H8    1.105418 S    
C14   H33   1.107895 S    
C7    H17   1.109136 S    
P1    Ba1   3.442432 S    
C43   C65   1.395478 A    
P1    O2    1.585171 S    
O10   C8    1.398222 S    
C9    H20   1.110552 S    
C4    O15   1.398363 S    
C71   H70   1.087930 S    
C17   C18   1.421363 A    
P3    O11   1.748411 S    
P2    O20   1.547778 S    
P4    O12   1.524812 D    
C63   C67   1.410641 A    
P5    C59   1.918566 S    
C70   H68   1.111787 S    
C8    C9    1.521440 S    
C23   C24   1.420996 A    
C6    H13   1.110841 S    
P4    C18   1.864099 S    
C24   C28   1.380289 A    
C34   C38   1.439937 A    
Ba2   O21   2.832870 S    
C19   C20   1.399862 A    
C1    H3    1.110773 S    
C69   H62   1.113962 S    
C61   C62   1.528708 S    
C41   C42   1.385982 A    
O3    Ba1   2.776182 S    
C29   C34   1.418814 A    
C21   C27   1.419418 A    
O4    P6    1.537650 D    
C8    H18   1.104546 S    
C16   H40   1.110685 S    
C19   C25   1.419164 A    
C15   H36   1.110992 S    
P3    O8    1.750418 S    
C65   C66   1.405470 A    
C3    H7    1.110466 S    
C25   C38   1.565877 S    
C43   H61   1.082146 S    
C28   H46   1.082666 S    
C7    H16   1.109654 S    
O2    Ba2   2.820783 S    
Ba1   O16   2.762424 S    
P8    O23   1.538269 D    
C40   C41   1.376946 A    
C47   C48   1.414182 A    
C33   C34   1.443250 A    
C14   H35   1.109415 S    
P8    C20   1.832021 S    
C53   O29   1.383030 S    
C63   C64   1.402820 A    
C31   C32   1.387057 A    
C46   C47   1.420003 A    
O14   Ba2   2.775706 S    
C23   C27   1.443792 A    
C5    H12   1.110755 S    
P6    C22   1.832988 S    
C48   C52   1.423980 A    
C41   H53   1.080751 S    
N1    C46   1.384574 Am   
O8    Ba1   2.744799 S    
P4    O15   1.750510 S    
C39   C40   1.389075 A    
C40   H52   1.083303 S    
C45   O25   1.222409 D    
C4    H9    1.110573 S    
C15   O24   1.404854 S    
C22   C28   1.379416 A    
C46   O26   1.220135 D    
C44   C49   1.406830 A    
C43   C64   1.396125 A    
O5    C6    1.397503 S    
C27   C35   1.565688 S    
C2    H4    1.112350 S    
C20   C26   1.380905 A    
P2    O7    1.523111 D    
Ba1   O20   2.954405 S    
C5    H11   1.107141 S    
C9    H21   1.108716 S    
C15   H37   1.113681 S    
C37   C38   1.428997 A    
C44   C45   1.411080 A    
C63   H57   1.082712 S    
C15   C16   1.519569 S    
C8    H19   1.110644 S    
C23   H44   1.080378 S    
C6    H14   1.097728 S    
C3    H6    1.107603 S    
O2    Ba1   2.947244 S    
C9    H22   1.110875 S    
Ba1   O13   2.820342 S    
C59   C68   1.516709 S    
C11   H25   1.104769 S    
P5    O19   1.749697 S    
O7    Ba1   2.832745 S    
C16   H39   1.109818 S    
C44   C48   1.412372 A    
C7    H15   1.110728 S    
C70   H66   1.108825 S    
P3    O9    1.545403 D    
O3    P6    1.732226 S    
O11   C2    1.403876 S    
C50   C51   1.406456 A    
P7    O22   1.760414 S    
C3    H30   1.107548 S    
P2    C65   1.847038 S    
C60   C61   1.347791 D    
C29   C30   1.388002 A    
C1    C10   1.520763 S    
P1    C24   1.861364 S    
C42   H54   1.071150 S    
P8    O24   1.745570 S    
C51   C52   1.410266 A    
O14   P8    1.731198 S    
C33   C35   1.429640 A    
O17   Ba2   2.745514 S    
C39   H51   1.062072 S    
