data_mof_unit_12849.cif
_audit_creation_date              2012-12-10T20:41:51-0500
_audit_creation_method            fapswitch 2.2
_symmetry_space_group_name_H-M    P1
_symmetry_Int_Tables_number       1
_space_group_crystal_system       triclinic
_cell_length_a                    14.981835
_cell_length_b                    15.163045
_cell_length_c                    9.962756
_cell_angle_alpha                 89.095209
_cell_angle_beta                  88.884986
_cell_angle_gamma                 89.886044
_cell_volume                      2262.52776478

loop_
_atom_site_label
_atom_site_type_symbol
_atom_type_description
_atom_site_fract_x
_atom_site_fract_y
_atom_site_fract_z
_atom_type_partial_charge
C1    C     C_R   0.378669 0.881393 0.501257 0.874678
C2    C     C_R   0.381614 0.121215 0.500157 0.897684
C3    C     C_R   0.882152 0.378194 0.501189 0.868375
C4    C     C_R   0.878889 0.618329 0.499815 0.847800
C5    C     C_3   0.225017 0.155568 0.713117 -0.564029
C6    C     C_3   0.185305 0.865198 0.668629 -0.490726
C7    C     C_3   0.675879 0.607663 0.618053 -0.548192
C8    C     C_3   0.736720 0.327904 0.728413 -0.515482
C9    C     C_R   0.422045 0.995757 0.073310 0.062265
C10   C     C_R   0.946478 0.556414 0.071124 -0.059747
C11   C     C_R   0.576324 0.011872 0.070561 -0.102828
C12   C     C_R   0.061937 0.453827 0.071808 -0.058628
C13   C     C_R   0.577433 0.010231 0.927921 0.464759
C14   C     C_R   0.064966 0.457224 0.928932 0.486611
C15   C     C_R   0.421914 0.999345 0.931886 -0.023916
C16   C     C_R   0.946542 0.556139 0.930029 -0.036869
C17   C     C_3   0.348712 0.932550 0.928739 0.680886
C18   C     C_3   0.847421 0.570438 0.927569 0.760953
C19   C     C_3   0.351676 0.925116 0.082529 -0.168603
C20   C     C_3   0.847344 0.570731 0.082880 -0.163445
C21   C     C_R   0.621418 0.118187 0.498892 0.870090
C22   C     C_R   0.619318 0.880054 0.499667 0.851923
C23   C     C_R   0.120167 0.618890 0.497791 0.862960
C24   C     C_R   0.121438 0.382010 0.499771 0.878945
C25   C     C_R   0.277810 0.214686 0.620150 0.158814
C26   C     C_R   0.224241 0.834310 0.538209 0.042438
C27   C     C_R   0.722990 0.661053 0.511420 0.073750
C28   C     C_R   0.784523 0.275890 0.622733 0.173630
C29   C     C_R   0.323480 0.194747 0.501702 -0.087937
C30   C     C_R   0.312230 0.814825 0.500684 -0.013362
C31   C     C_R   0.812504 0.684118 0.496034 0.005093
C32   C     C_R   0.825899 0.303035 0.503251 -0.100814
C33   C     C_R   0.314710 0.248777 0.387191 -0.171536
C34   C     C_R   0.331464 0.736466 0.433349 -0.093493
C35   C     C_R   0.836246 0.769397 0.453569 -0.137136
C36   C     C_R   0.813438 0.255083 0.385390 -0.178231
C37   C     C_R   0.771709 0.835078 0.454312 -0.144692
C38   C     C_R   0.747636 0.191131 0.383503 -0.210083
C39   C     C_R   0.249842 0.313881 0.386960 -0.207933
C40   C     C_R   0.266863 0.671341 0.428653 -0.128778
C41   C     C_R   0.684807 0.813655 0.496660 -0.046238
C42   C     C_R   0.695511 0.175952 0.499563 -0.135659
C43   C     C_R   0.194686 0.323453 0.501027 -0.137871
C44   C     C_R   0.183602 0.686766 0.489377 -0.070002
C45   C     C_R   0.659212 0.726108 0.513577 0.018066
C46   C     C_R   0.719249 0.213597 0.620484 0.083552
C47   C     C_R   0.213182 0.277924 0.619475 0.097856
C48   C     C_R   0.159660 0.770408 0.530678 -0.009247
C49   C     C_3   0.607300 0.681594 0.624948 -0.161062
C50   C     C_3   0.664080 0.258145 0.726944 -0.206146
C51   C     C_3   0.153030 0.226019 0.713362 -0.174589
C52   C     C_3   0.112753 0.796806 0.656688 -0.190855
H1    H     H_    0.354267 0.237929 0.296741 0.187569
H2    H     H_    0.397089 0.724542 0.389819 0.134923
H3    H     H_    0.904560 0.785447 0.425480 0.119428
H4    H     H_    0.850199 0.270416 0.293309 0.213310
H5    H     H_    0.790002 0.902371 0.428006 0.135686
H6    H     H_    0.734517 0.157717 0.290626 0.182219
H7    H     H_    0.239901 0.352975 0.296504 0.175462
H8    H     H_    0.283093 0.608134 0.385037 0.146287
H9    H     H_    0.608447 0.718726 0.720475 0.216163
H10   H     H_    0.659225 0.218267 0.821541 0.222904
H11   H     H_    0.143854 0.257399 0.812729 0.242363
H12   H     H_    0.113763 0.745207 0.737427 0.208785
H13   H     H_    0.257415 0.147694 0.812020 0.252695
H14   H     H_    0.228217 0.847330 0.753316 0.303051
H15   H     H_    0.713676 0.600783 0.711115 0.286451
H16   H     H_    0.773734 0.327801 0.824020 0.276805
H17   H     H_    0.205715 0.093128 0.664382 0.180516
H18   H     H_    0.161775 0.934731 0.663032 0.192430
H19   H     H_    0.650698 0.544343 0.578521 0.176458
H20   H     H_    0.715724 0.394116 0.690896 0.186203
H21   H     H_    0.638297 0.019205 0.123278 0.172652
H22   H     H_    0.112435 0.417045 0.125009 0.155190
N1    N     N_R   0.499140 0.000000 0.142800 -0.160425
N2    N     N_R   0.999140 0.500000 0.142800 -0.109951
N3    N     N_R   0.499160 0.000000 0.857150 -0.181031
N4    N     N_R   0.999160 0.500000 0.857150 -0.146958
O1    O     O_R   0.408400 0.908380 0.614690 -0.571951
O2    O     O_R   0.408400 0.091620 0.614690 -0.604266
O3    O     O_R   0.908400 0.408380 0.614690 -0.602836
O4    O     O_R   0.908400 0.591620 0.614690 -0.592754
O5    O     O_R   0.408370 0.908370 0.385350 -0.640771
O6    O     O_R   0.408370 0.091630 0.385350 -0.575153
O7    O     O_R   0.908370 0.408370 0.385350 -0.607540
O8    O     O_R   0.908370 0.591630 0.385350 -0.660528
O9    O     O_R   0.591610 0.091610 0.614650 -0.611203
O10   O     O_R   0.591610 0.908390 0.614650 -0.642705
O11   O     O_R   0.091610 0.591610 0.614650 -0.630362
O12   O     O_R   0.091610 0.408390 0.614650 -0.589091
O13   O     O_R   0.591590 0.091600 0.385310 -0.628074
O14   O     O_R   0.591590 0.908400 0.385310 -0.617596
O15   O     O_R   0.091590 0.591600 0.385310 -0.611581
O16   O     O_R   0.091590 0.408400 0.385310 -0.635514
Zn1   Zn    Zn3+2 0.500010 0.000000 0.653130 0.987909
Zn2   Zn    Zn3+2 0.000010 0.500000 0.653130 0.994357
Zn3   Zn    Zn3+2 0.499980 0.000000 0.346870 0.971038
Zn4   Zn    Zn3+2 0.999980 0.500000 0.346870 0.960296
C53   C     C_2   0.266896 0.953155 0.155079 0.553003
H23   H     H_    0.207265 0.913141 0.147569 0.088682
O17   O     O_2   0.264180 0.019746 0.222448 -0.577164
C54   C     C_2   0.385105 0.836283 0.131254 0.368932
H24   H     H_    0.453112 0.828197 0.165087 0.101996
O18   O     O_2   0.336600 0.771748 0.128249 -0.547635
C55   C     C_2   0.824312 0.659218 0.142128 0.354755
H25   H     H_    0.876739 0.703281 0.173484 0.091369
O19   O     O_2   0.746601 0.683060 0.152127 -0.543225
C56   C     C_2   0.798407 0.495044 0.153106 0.609123
H26   H     H_    0.749566 0.508290 0.232223 0.040323
O20   O     O_2   0.813103 0.418563 0.122646 -0.562483
C57   C     C_2   0.516008 0.653285 0.584696 0.420657
H27   H     H_    0.506458 0.620724 0.489763 0.062115
O21   O     O_2   0.452015 0.665703 0.659710 -0.534659
C58   C     C_2   0.576040 0.293026 0.678254 0.474890
H28   H     H_    0.573141 0.332626 0.586649 0.043455
O22   O     O_2   0.507256 0.276573 0.741251 -0.543375
C59   C     C_2   0.067440 0.196558 0.651257 0.454085
H29   H     H_    0.068503 0.165325 0.553891 0.058048
O23   O     O_2   0.996209 0.207950 0.709950 -0.543525
C60   C     C_2   0.022318 0.835873 0.632210 0.440514
H30   H     H_    0.013065 0.884274 0.552141 0.062672
O24   O     O_2   0.958634 0.813853 0.703126 -0.558579
O25   O     O_3   0.659702 0.017516 0.865455 -0.761108
H31   H     H_    0.654699 0.996804 0.773318 0.387065
O26   O     O_3   0.139302 0.423542 0.866314 -0.774201
H32   H     H_    0.159195 0.469485 0.800636 0.363083
O27   O     O_3   0.270018 0.971078 0.882162 -0.788732
H33   H     H_    0.284002 0.990510 0.788726 0.342035
O28   O     O_3   0.370735 0.854145 0.860845 -0.706175
H34   H     H_    0.434495 0.839706 0.875853 0.329899
O29   O     O_3   0.822438 0.651404 0.867116 -0.744129
H35   H     H_    0.869276 0.695991 0.883616 0.347235
O30   O     O_3   0.801096 0.499111 0.875024 -0.743253
H36   H     H_    0.817710 0.497391 0.778619 0.350453

loop_
_geom_bond_atom_site_label_1
_geom_bond_atom_site_label_2
_ccdc_geom_bond_type
C21   O9    A    
C40   H8    S    
C12   H22   S    
C3    O7    A    
C2    O6    A    
C57   H27   S    
C58   H28   S    
O25   H31   S    
C6    C26   S    
C55   O19   D    
C28   C46   A    
C33   C39   A    
C14   O26   S    
C2    C29   S    
C34   C40   A    
O6    Zn3   S    
C32   C36   A    
C35   C37   A    
C38   C42   A    
C48   C52   S    
C59   O23   D    
C7    H19   S    
C13   O25   S    
C19   C54   S    
C22   C41   S    
C4    O8    A    
O16   Zn4   S    
N2    Zn4   S    
C29   C33   A    
N1    Zn3   S    
C7    C27   S    
C56   H26   S    
C18   O30   S    
C6    H18   S    
C42   C46   A    
C5    H17   S    
O7    Zn4   S    
C51   C59   S    
C38   H6    S    
C10   N2    A    
C9    C19   S    
C10   C20   S    
O9    Zn1   S    
C3    O3    A    
C23   O11   A    
C22   O10   A    
C25   C47   A    
C18   C20   S    
C26   C48   A    
C49   C57   S    
C27   C45   A    
O10   Zn1   S    
C33   H1    S    
C18   O29   S    
C3    C32   S    
C60   O24   D    
O14   Zn3   S    
C25   C29   A    
C13   N3    A    
C8    H20   S    
C49   H9    S    
C30   C34   A    
C27   C31   A    
C28   C32   A    
O4    Zn2   S    
C7    C49   S    
C5    H13   S    
C52   H12   S    
N4    Zn2   S    
O3    Zn2   S    
C19   C53   S    
O28   H34   S    
C17   O27   S    
C47   C51   S    
C35   H3    S    
N3    Zn1   S    
C23   C44   S    
C23   O15   A    
C50   C58   S    
O1    Zn1   S    
C36   H4    S    
C24   O16   A    
O30   H36   S    
C58   O22   D    
C53   H23   S    
C6    H14   S    
C39   H7    S    
C45   C49   S    
C51   H11   S    
C57   O21   D    
O13   Zn3   S    
O2    Zn1   S    
C54   O18   D    
C5    C25   S    
C52   C60   S    
C53   O17   D    
C12   C14   A    
C8    H16   S    
C12   N2    A    
C11   H21   S    
O26   H32   S    
C50   H10   S    
C31   C35   A    
O27   H33   S    
C8    C50   S    
C60   H30   S    
C20   C55   S    
C21   O13   A    
C15   C17   S    
C22   O14   A    
C24   O12   A    
C39   C43   A    
O12   Zn2   S    
C1    O5    A    
C55   H25   S    
C46   C50   S    
O11   Zn2   S    
C36   C38   A    
C9    C15   A    
C10   C16   A    
C59   H29   S    
C11   C13   A    
C34   H2    S    
C15   N3    A    
C1    O1    A    
C1    C30   S    
C17   C19   S    
C56   O20   D    
C16   N4    A    
C14   N4    A    
C37   C41   A    
C54   H24   S    
O8    Zn4   S    
C4    C31   S    
C2    O2    A    
C7    H15   S    
C21   C42   S    
C44   C48   A    
C40   C44   A    
C4    O4    A    
C8    C28   S    
C16   C18   S    
O5    Zn3   S    
C24   C43   S    
C41   C45   A    
C5    C51   S    
C11   N1    A    
C9    N1    A    
C6    C52   S    
C43   C47   A    
O15   Zn4   S    
C17   O28   S    
C37   H5    S    
O29   H35   S    
C20   C56   S    
C26   C30   A    
