data_mof_unit_66747.cif
_audit_creation_date              2013-03-05T15:40:46-0500
_audit_creation_method            fapswitch 2.2
_symmetry_space_group_name_H-M    P1
_symmetry_Int_Tables_number       1
_space_group_crystal_system       triclinic
_cell_length_a                    8.396309
_cell_length_b                    12.826415
_cell_length_c                    15.119394
_cell_angle_alpha                 95.86781
_cell_angle_beta                  99.845694
_cell_angle_gamma                 96.532286
_cell_volume                      1581.51592341

loop_
_atom_site_label
_atom_site_type_symbol
_atom_site_description
_atom_site_fract_x
_atom_site_fract_y
_atom_site_fract_z
_atom_type_partial_charge
P1    P     P_3+3 0.998660 0.747790 0.570900 0.483045
O1    O     O_2   0.168170 0.764170 0.543850 -0.348425
O2    O     O_3   0.898670 0.629780 0.545890 -0.375572
O3    O     O_3   0.365980 0.695510 0.380810 -0.341519
O4    O     O_2   0.295818 0.883644 0.443749 -0.402805
O5    O     O_3   0.053019 0.773809 0.688989 -0.580347
O6    O     O_3   0.363708 0.874184 0.284535 -0.582075
C1    C     C_3   0.501848 0.922758 0.167997 -0.627373
H1    H     H_    0.389994 0.955654 0.140225 0.236742
H2    H     H_    0.587368 0.986949 0.213060 0.204365
P2    P     P_3+3 0.306970 0.411860 0.294270 0.489809
P3    P     P_3+3 0.875687 0.613326 0.217325 0.480415
O7    O     O_2   0.136040 0.444100 0.280280 -0.353862
O8    O     O_3   0.934510 0.640480 0.335500 -0.350658
O9    O     O_2   0.007342 0.561888 0.174712 -0.378821
O10   O     O_3   0.290158 0.276124 0.256979 -0.575922
O11   O     O_3   0.864993 0.731749 0.170276 -0.574570
C2    C     C_3   0.985195 0.812292 0.217453 0.512693
H3    H     H_    0.093034 0.780610 0.252562 0.163019
C3    C     C_3   0.038322 0.880144 0.147746 -0.838209
H4    H     H_    0.128009 0.947489 0.181630 0.234079
H5    H     H_    0.093322 0.832496 0.098400 0.255114
C4    C     C_3   0.699041 0.303529 0.271620 0.252368
H6    H     H_    0.598983 0.328637 0.303797 0.116025
H7    H     H_    0.796894 0.371665 0.279296 0.135202
C5    C     C_3   0.633005 0.265856 0.171326 -0.196699
H8    H     H_    0.583388 0.180538 0.161195 0.192921
H9    H     H_    0.532099 0.309181 0.145556 0.136087
Ba1   Ba    Ba6+2 0.153570 0.551840 0.456200 1.586680
C6    C     C_3   0.084640 0.681833 0.727098 0.402163
H10   H     H_    0.169982 0.640560 0.692500 0.118255
H11   H     H_    0.969335 0.628281 0.722159 0.110629
C7    C     C_3   0.160657 0.713100 0.826849 -0.985417
H12   H     H_    0.287519 0.752258 0.833864 0.300520
H13   H     H_    0.160359 0.642808 0.863545 0.227474
H14   H     H_    0.091720 0.769427 0.859773 0.261951
C8    C     C_3   0.223523 0.203234 0.308703 0.516575
C9    C     C_3   0.322516 0.111739 0.306517 -0.878872
H15   H     H_    0.316547 0.078795 0.235623 0.246099
H16   H     H_    0.277958 0.050525 0.346516 0.255175
H17   H     H_    0.451545 0.140666 0.332939 0.263321
P4    P     P_3+3 0.811620 0.252200 0.429030 0.445045
O12   O     O_2   0.642110 0.235770 0.456130 -0.373545
O13   O     O_3   0.911620 0.370210 0.454030 -0.393274
O14   O     O_3   0.444310 0.304480 0.619110 -0.395672
O15   O     O_3   0.758887 0.219176 0.311911 -0.617502
P5    P     P_3+3 0.931800 0.375147 0.782851 0.475547
O16   O     O_3   0.400800 0.556680 0.607590 -0.354037
O17   O     O_3   0.875770 0.359510 0.664420 -0.351996
O18   O     O_2   0.818016 0.444577 0.824534 -0.393193
O19   O     O_3   0.885409 0.252862 0.819423 -0.506288
Ba2   Ba    Ba6+2 0.656590 0.448150 0.543720 1.569136
P6    P     P_3+3 0.417606 0.834527 0.391526 0.431480
C10   C     C_3   0.457846 0.833561 0.223655 0.461858
H18   H     H_    0.573491 0.808747 0.257897 0.048959
O20   O     O_3   0.409490 0.443300 0.392340 -0.362298
C11   C     C_3   0.648137 0.776981 0.717980 0.357122
H19   H     H_    0.708993 0.726303 0.673746 0.077262
C12   C     C_3   0.771197 0.821998 0.803676 -0.051993
H20   H     H_    0.813544 0.755494 0.838481 0.109944
H21   H     H_    0.878145 0.869603 0.787145 0.177975
P7    P     P_3+3 0.498042 0.587597 0.720706 0.432006
O21   O     O_2   0.674250 0.555830 0.719690 -0.393899
O22   O     O_3   0.511225 0.724508 0.744309 -0.580303
H22   H     H_    0.933485 0.912397 0.110160 0.269021
C13   C     C_3   0.983609 0.181564 0.786628 0.754877
H23   H     H_    0.059236 0.211919 0.738625 -0.105138
C14   C     C_3   0.098349 0.146418 0.864702 -0.132773
H24   H     H_    0.154799 0.077983 0.839301 0.113207
H25   H     H_    0.196229 0.212286 0.893515 0.096738
P8    P     P_3+3 0.396217 0.168414 0.617365 0.453745
C15   C     C_3   0.475867 0.220535 0.789247 0.450973
H26   H     H_    0.352524 0.245399 0.783352 -0.028027
O23   O     O_2   0.498252 0.116285 0.553647 -0.341786
O24   O     O_3   0.477936 0.135090 0.723638 -0.501484
H27   H     H_    0.564334 0.288847 0.781901 0.173029
H28   H     H_    0.444873 0.116242 0.891415 0.245617
C16   C     C_3   0.525044 0.188068 0.883012 -0.778549
H29   H     H_    0.515031 0.253384 0.935107 0.217663
H30   H     H_    0.652482 0.170276 0.893053 0.342421
C17   C     C_R   0.071805 0.186250 0.541946 -0.433878
C18   C     C_R   0.726816 0.825672 0.488826 -0.449204
C19   C     C_R   0.696793 0.995825 0.438423 -0.190266
C20   C     C_R   0.630379 0.891373 0.444367 0.241757
C21   C     C_R   0.890565 0.856896 0.524752 0.263584
C22   C     C_R   0.956986 0.967220 0.528676 -0.012991
C23   C     C_R   0.856996 0.038041 0.483672 -0.056999
C24   C     C_R   0.918170 0.149339 0.489613 0.293209
C25   C     C_R   0.175790 0.117642 0.577031 0.135283
C26   C     C_R   0.115458 0.010866 0.577504 -0.016443
H31   H     H_    0.620730 0.043970 0.400983 0.173396
H32   H     H_    0.116702 0.269773 0.550414 0.158741
H33   H     H_    0.671169 0.748693 0.498122 0.189972
C27   C     C_R   0.243947 0.460319 0.767520 -0.487116
C28   C     C_R   0.146534 0.425725 0.826842 0.202756
C29   C     C_R   0.211075 0.431247 0.919129 -0.313065
C30   C     C_R   0.369833 0.483462 0.955711 0.119090
C31   C     C_R   0.455403 0.536602 0.895556 -0.117709
C32   C     C_R   0.395949 0.518618 0.800973 0.261863
C33   C     C_R   0.608505 0.515893 0.088569 -0.239801
C34   C     C_R   0.670107 0.542637 0.180818 0.217307
C35   C     C_R   0.407801 0.482513 0.214351 0.262274
C36   C     C_R   0.340993 0.466008 0.121168 -0.325229
C37   C     C_R   0.439272 0.489038 0.055961 0.044317
C38   C     C_R   0.566716 0.532523 0.243155 -0.099244
H34   H     H_    0.694856 0.519098 0.043410 0.195660
H35   H     H_    0.133999 0.395087 0.960769 0.189069
H36   H     H_    0.214468 0.432897 0.101739 0.208056
H37   H     H_    0.194732 0.450920 0.695712 0.156918
N1    N     N_3   0.360064 0.743597 0.163935 -0.190270
H38   H     H_    0.318300 0.688655 0.203969 0.147819
H39   H     H_    0.436030 0.706056 0.126744 0.099773
Br1   Br    Br    0.800815 0.288812 0.099218 -0.501343
N2    N     N_3   0.057114 0.163063 0.263967 -0.158215
H40   H     H_    0.998962 0.119562 0.306951 0.084806
H41   H     H_    0.997773 0.228329 0.251276 0.208311
N3    N     N_3   0.228978 0.244721 0.402925 -0.234045
H42   H     H_    0.159126 0.306583 0.406737 0.124060
H43   H     H_    0.348835 0.270661 0.435478 0.202961
N4    N     N_3   0.574449 0.885964 0.091773 -0.176621
H44   H     H_    0.671535 0.846674 0.115627 0.190971
H45   H     H_    0.624208 0.953326 0.067439 0.220130
N5    N     N_3   0.596523 0.861244 0.666768 -0.192430
H46   H     H_    0.510075 0.826259 0.610314 0.123978
H47   H     H_    0.536331 0.909782 0.705794 0.212816
Br2   Br    Br    0.672618 0.907696 0.887059 -0.515764
Br3   Br    Br    0.840101 0.064114 0.717503 -0.520614
Br4   Br    Br    0.994553 0.108910 0.963948 -0.405669
N6    N     N_3   0.210526 0.950870 0.635197 -0.134931
H48   H     H_    0.322463 0.949702 0.614651 0.174523
H49   H     H_    0.229334 0.987908 0.701673 0.140261
N7    N     N_3   0.588983 0.618189 0.930976 -0.206611
H50   H     H_    0.554538 0.690240 0.913965 0.180743
H51   H     H_    0.689535 0.602609 0.902092 0.162680
Br5   Br    Br    0.639049 0.589986 0.366602 -0.430866
N8    N     N_3   0.916583 0.877335 0.282726 -0.220815
H52   H     H_    0.011982 0.929244 0.323694 0.094633
H53   H     H_    0.868859 0.828458 0.325603 0.116978

loop_
_geom_bond_atom_site_label_1
_geom_bond_atom_site_label_2
_geom_bond_distance
_ccdc_geom_bond_type
C13   C14   1.530837 S    
C23   C24   1.449482 A    
O3    P6    1.770490 S    
O14   P8    1.742471 S    
C19   C23   1.419292 A    
C28   C29   1.399320 A    
C15   H27   1.109883 S    
C30   C31   1.430669 A    
N5    H46   1.045200 S    
P5    O17   1.756364 S    
C21   C22   1.452210 A    
C12   Br2   1.939906 S    
C5    H8    1.111195 S    
P7    O21   1.580767 D    
P6    C20   1.859544 S    
O7    Ba1   2.841515 S    
C9    H16   1.108970 S    
P1    O1    1.544562 D    
N3    H43   1.042412 S    
C6    H10   1.106895 S    
C16   H30   1.107756 S    
O12   Ba2   2.884634 S    
N5    H47   1.043853 S    
C33   C37   1.412477 A    
C7    H14   1.106775 S    
C13   Br3   1.909981 S    
C10   N1    1.462445 S    
C35   C38   1.389565 A    
C2    H3    1.109145 S    
P4    O15   1.745545 S    
C4    C5    1.530371 S    
O2    Ba1   2.936152 S    
N1    H38   1.043815 S    
P7    O22   1.742846 S    
C17   H32   1.081542 S    
C1    H1    1.108098 S    
P3    O11   1.746815 S    
C15   C16   1.520966 S    
C4    H6    1.102500 S    
C2    N8    1.461928 S    
C36   H36   1.077193 S    
C6    H11   1.108227 S    
C14   Br4   1.934435 S    
O3    Ba1   2.872756 S    
O10   C8    1.406705 S    
C38   Br5   1.903926 S    
C17   C25   1.389224 A    
O13   Ba2   2.937074 S    
C13   H23   1.113866 S    
C12   H20   1.108037 S    
C4    O15   1.395687 S    
C34   C38   1.392088 A    
C26   N6    1.424468 S    
C35   C36   1.409296 A    
P4    O13   1.619965 S    
C15   O24   1.404759 S    
N4    H45   1.044925 S    
C7    H12   1.107634 S    
P5    O18   1.545217 D    
P1    C21   1.881769 S    
C12   H21   1.106727 S    
Ba1   O16   2.805130 S    
P1    O5    1.752799 S    
C17   C24   1.396284 A    
C3    H22   1.108491 S    
C9    H17   1.095973 S    
N8    H53   1.043381 S    
C22   C26   1.427913 A    
C1    C10   1.536414 S    
C16   H29   1.110442 S    
C14   H24   1.109338 S    
P5    O19   1.740563 S    
C8    N2    1.454968 S    
O14   Ba2   2.872086 S    
H28   C16   1.109088 S    
P1    O2    1.619942 S    
O19   C13   1.407348 S    
C8    C9    1.514130 S    
C11   N5    1.455470 S    
P2    O10   1.756439 S    
O16   P7    1.748987 S    
C19   C20   1.409155 A    
P8    C25   1.865459 S    
P3    O9    1.547554 D    
O17   Ba2   2.785925 S    
C29   C30   1.414314 A    
P1    Ba1   3.411749 S    
O11   C2    1.400191 S    
C1    H2    1.114080 S    
O5    C6    1.397189 S    
C29   H35   1.077514 S    
C3    H5    1.110055 S    
C18   C20   1.379339 A    
O1    Ba1   2.884239 S    
Ba1   O13   2.905188 S    
P4    C24   1.901426 S    
P4    O12   1.544928 D    
O6    P6    1.746588 S    
O8    Ba1   2.785325 S    
N4    H44   1.038556 S    
C1    N4    1.454984 S    
C11   O22   1.402919 S    
N6    H48   1.040270 S    
O4    P6    1.544986 D    
C10   H18   1.115453 S    
C6    C7    1.526991 S    
C22   C23   1.448271 A    
C33   H34   1.077871 S    
P3    O8    1.757699 S    
C15   H26   1.109757 S    
Ba2   O21   2.841705 S    
P8    O23   1.545969 D    
N2    H41   1.039662 S    
O2    Ba2   2.905848 S    
N2    H40   1.045355 S    
Ba1   O20   2.933087 S    
C18   C21   1.385851 A    
C19   H31   1.071085 S    
C27   H37   1.082815 S    
C5    H9    1.103139 S    
C5    Br1   1.938329 S    
P3    C34   1.822625 S    
N3    H42   1.041626 S    
P8    O24   1.750808 S    
P2    O7    1.524661 D    
C11   H19   1.111050 S    
C9    H15   1.101889 S    
C27   C32   1.388734 A    
C33   C34   1.394858 A    
C7    H13   1.105871 S    
N7    H50   1.042988 S    
P2    C35   1.843158 S    
C2    C3    1.525507 S    
C4    H7    1.111561 S    
C27   C28   1.385640 A    
N1    H39   1.045012 S    
C30   C37   1.519398 S    
C11   C12   1.527493 S    
P7    C32   1.842050 S    
O16   Ba2   2.932161 S    
C8    N3    1.460077 S    
C3    H4    1.097840 S    
P2    Ba1   3.403297 S    
N7    H51   1.044070 S    
C31   C32   1.417610 A    
C31   N7    1.432750 S    
C36   C37   1.422122 A    
C18   H33   1.076484 S    
C14   H25   1.106022 S    
P5    C28   1.830157 S    
N8    H52   1.045576 S    
O6    C10   1.409944 S    
C25   C26   1.406317 A    
P2    O20   1.569847 S    
Ba2   O20   2.804354 S    
P4    Ba2   3.412228 S    
N6    H49   1.044904 S    
Ba1   Ba2   4.681617 S    
