data_mof_unit_46623.cif
_audit_creation_date              2012-12-11T14:50:46-0500
_audit_creation_method            fapswitch 2.2
_symmetry_space_group_name_H-M    P1
_symmetry_Int_Tables_number       1
_space_group_crystal_system       triclinic
_cell_length_a                    10.866473
_cell_length_b                    10.934216
_cell_length_c                    18.823687
_cell_angle_alpha                 90.30802
_cell_angle_beta                  90.030796
_cell_angle_gamma                 60.404855
_cell_volume                      1944.73907532

loop_
_atom_site_label
_atom_site_type_symbol
_atom_type_description
_atom_site_fract_x
_atom_site_fract_y
_atom_site_fract_z
_atom_type_partial_charge
C1    C     C_R   0.233636 0.647361 0.608736 0.536330
C2    C     C_R   0.613033 0.071542 0.773123 -0.145160
C3    C     C_R   0.596772 0.102476 0.701877 -0.144333
C4    C     C_R   0.651205 0.617462 0.603227 0.544265
C5    C     C_R   0.678690 0.152332 0.669412 0.026546
C6    C     C_R   0.197231 0.553589 0.721744 -0.155232
C7    C     C_R   0.184284 0.565197 0.795155 -0.165123
C8    C     C_R   0.163294 0.688101 0.829832 0.019758
C9    C     C_R   0.159342 0.801027 0.789336 0.005822
C10   C     C_R   0.155129 0.792362 0.715785 -0.114881
C11   C     C_R   0.182946 0.667326 0.681836 -0.000799
C12   C     C_3   0.733160 0.511582 0.799107 -0.247663
C13   C     C_R   0.728611 0.526197 0.271695 -0.122782
C14   C     C_R   0.727473 0.539049 0.198934 -0.129432
C15   C     C_R   0.650751 0.671513 0.167717 0.030110
C16   C     C_R   0.630294 0.224811 0.601750 0.541022
C17   C     C_R   0.562565 0.789095 0.210103 -0.128410
C18   C     C_R   0.559620 0.774953 0.283685 -0.133083
C19   C     C_R   0.647108 0.643950 0.314962 0.034626
C20   C     C_R   0.540982 0.162051 0.286995 -0.136392
C21   C     C_R   0.541428 0.156853 0.214193 -0.138572
C22   C     C_R   0.651400 0.158087 0.176239 0.037427
C23   C     C_3   0.695928 0.664601 0.815316 0.059604
C24   C     C_R   0.757755 0.171019 0.211893 -0.146064
C25   C     C_R   0.756338 0.177989 0.285217 -0.146682
C26   C     C_R   0.645977 0.176905 0.322896 0.038418
C27   C     C_R   0.087462 0.803175 0.305072 -0.135938
C28   C     C_R   0.218856 0.649567 0.402488 0.549757
C29   C     C_R   0.068895 0.815402 0.232928 -0.121824
C30   C     C_R   0.106868 0.695483 0.190664 0.038463
C31   C     C_R   0.151159 0.564966 0.221844 -0.138039
C32   C     C_R   0.172014 0.552127 0.294577 -0.127681
C33   C     C_R   0.148221 0.670272 0.335361 0.031704
C34   C     C_3   0.667311 0.638951 0.679463 0.051951
C35   C     C_R   0.726288 0.045554 0.888687 0.553130
C36   C     C_R   0.719145 0.684003 0.890485 0.533220
C37   C     C_R   0.113894 0.710681 0.903849 0.537190
C38   C     C_R   0.674536 0.107950 0.103926 0.557314
C39   C     C_R   0.694084 0.690019 0.097121 0.547465
C40   C     C_R   0.640008 0.619736 0.390598 0.550127
C41   C     C_R   0.082475 0.715527 0.115488 0.555975
C42   C     C_R   0.617703 0.228034 0.395092 0.547682
C43   C     C_3   0.540070 0.760442 0.793177 -0.243682
C44   C     C_3   0.525435 0.752009 0.712504 -0.230215
C45   C     C_3   0.778854 0.684642 0.690752 -0.249061
C46   C     C_3   0.797141 0.697711 0.770862 -0.212817
C47   C     C_3   0.163657 0.927450 0.823326 -0.257779
C48   C     C_3   0.178349 0.030391 0.773709 -0.486651
C49   C     C_3   0.715123 0.497156 0.719110 -0.220410
C50   C     C_R   0.785441 0.159255 0.708254 -0.147647
C51   C     C_R   0.800031 0.129970 0.780844 -0.142766
C52   C     C_R   0.715033 0.083703 0.813530 0.024561
Cr1   Cr    Cr6+3 0.392930 0.397900 0.502230 1.009853
Cr2   Cr    Cr6+3 0.398240 0.708600 0.501260 1.009650
Cr3   Cr    Cr6+3 0.708800 0.393470 0.496460 1.005941
Cr4   Cr    Cr6+3 0.937620 0.938540 0.007640 0.998979
Cr5   Cr    Cr6+3 0.625150 0.937450 0.994520 1.002590
Cr6   Cr    Cr6+3 0.937990 0.625080 0.001190 1.009639
H1    H     H_    0.499247 0.871001 0.809392 0.128270
H2    H     H_    0.188637 0.478542 0.824849 0.132071
H3    H     H_    0.473189 0.724092 0.820326 0.119666
H4    H     H_    0.141501 0.879831 0.683820 0.147430
H5    H     H_    0.793628 0.422814 0.293953 0.132407
H6    H     H_    0.795231 0.446427 0.167526 0.126580
H7    H     H_    0.502747 0.892704 0.187056 0.127573
H8    H     H_    0.492365 0.866122 0.316046 0.118752
H9    H     H_    0.454044 0.161316 0.314786 0.125668
H10   H     H_    0.458954 0.145145 0.188065 0.124467
H11   H     H_    0.844636 0.170339 0.183345 0.115115
H12   H     H_    0.818760 0.415089 0.697682 0.131687
H13   H     H_    0.838466 0.188943 0.312155 0.114846
H14   H     H_    0.065499 0.895597 0.336116 0.125507
H15   H     H_    0.440686 0.725646 0.701457 0.152670
H16   H     H_    0.027360 0.919038 0.210209 0.138276
H17   H     H_    0.174950 0.473049 0.189972 0.121228
H18   H     H_    0.217688 0.448201 0.317612 0.134874
H19   H     H_    0.493979 0.856005 0.688305 0.113991
H20   H     H_    0.779853 0.803810 0.783511 0.120489
H21   H     H_    0.745175 0.787279 0.664450 0.120143
H22   H     H_    0.844336 0.436373 0.814441 0.133716
H23   H     H_    0.908686 0.622792 0.785157 0.139636
H24   H     H_    0.663386 0.483234 0.829806 0.122296
H25   H     H_    0.636147 0.461736 0.710618 0.133065
H26   H     H_    0.270520 0.975535 0.738147 0.147439
H27   H     H_    0.081901 0.089476 0.741100 0.137650
H28   H     H_    0.192731 0.107819 0.805910 0.136710
H29   H     H_    0.066232 0.992702 0.853867 0.189541
H30   H     H_    0.253225 0.887107 0.861291 0.153867
H31   H     H_    0.881878 0.606102 0.666865 0.127484
H32   H     H_    0.850369 0.196579 0.683655 0.113657
H33   H     H_    0.870198 0.152141 0.811655 0.114374
H34   H     H_    0.542380 0.041277 0.797212 0.126284
H35   H     H_    0.513577 0.095682 0.673458 0.126083
H36   H     H_    0.220993 0.455068 0.696475 0.136856
O1    O     O_R   0.507430 0.255570 0.581420 -0.525178
O2    O     O_R   0.837200 0.593290 0.915250 -0.527713
O3    O     O_R   0.065330 0.635370 0.931590 -0.503190
O4    O     O_R   0.280190 0.527390 0.578910 -0.503281
O5    O     O_R   0.068300 0.828790 0.091860 -0.527815
O6    O     O_R   0.798730 0.057480 0.079370 -0.506447
O7    O     O_R   0.584680 0.080480 0.076790 -0.522995
O8    O     O_R   0.626790 0.809640 0.067050 -0.505420
O9    O     O_R   0.816010 0.596460 0.076500 -0.520426
O10   O     O_R   0.045680 0.638310 0.081070 -0.498915
O11   O     O_3   0.833590 0.833690 0.001120 -0.261678
O12   O     O_R   0.524460 0.695920 0.424060 -0.498842
O13   O     O_R   0.260310 0.739740 0.584580 -0.536712
O14   O     O_R   0.532250 0.695150 0.573830 -0.508985
O15   O     O_R   0.744930 0.503430 0.576380 -0.528223
O16   O     O_R   0.699250 0.276390 0.571950 -0.511683
O17   O     O_R   0.499020 0.256400 0.419850 -0.529890
O18   O     O_R   0.272400 0.528160 0.429140 -0.508922
O19   O     O_R   0.251910 0.740570 0.423020 -0.519934
O20   O     O_R   0.736530 0.504260 0.414810 -0.526088
O21   O     O_R   0.691460 0.277160 0.422180 -0.509762
O22   O     O_3   0.499990 0.499990 0.499980 -0.245204
O23   O     O_R   0.089490 0.825610 0.930610 -0.545600
O24   O     O_R   0.818370 0.054540 0.929880 -0.511504
O25   O     O_R   0.605870 0.077310 0.915530 -0.519111
O26   O     O_R   0.646440 0.806700 0.917570 -0.526849

loop_
_geom_bond_atom_site_label_1
_geom_bond_atom_site_label_2
_ccdc_geom_bond_type
Cr5   O11   S    
C4    O15   A    
Cr1   O1    S    
Cr4   O23   S    
C20   H9    S    
C35   O25   A    
C1    C11   S    
C43   C44   S    
C37   O3    A    
C12   C49   S    
C16   O16   A    
C7    C8    A    
C45   C46   S    
C27   C33   A    
Cr5   O8    S    
C4    O14   A    
C12   C23   S    
C26   C42   S    
Cr3   O21   S    
Cr2   O13   S    
C44   H19   S    
C38   O7    A    
C30   C31   A    
C27   C29   A    
Cr3   O22   S    
C22   C38   S    
Cr2   O19   S    
C23   C43   S    
C18   C19   A    
Cr6   O2    S    
C5    C16   S    
C51   H33   S    
C50   H32   S    
C40   O20   A    
C31   C32   A    
C8    C9    A    
C6    H36   S    
Cr2   O22   S    
C41   O5    A    
C30   C41   S    
C25   H13   S    
C45   H31   S    
C9    C10   A    
Cr1   O22   S    
C43   H1    S    
Cr5   O25   S    
Cr1   O17   S    
C23   C46   S    
C13   C14   A    
Cr3   O15   S    
C10   H4    S    
Cr6   O3    S    
C24   H11   S    
C50   C51   A    
C4    C34   S    
C13   C19   A    
C51   C52   A    
C34   C44   S    
C24   C25   A    
C45   H21   S    
C28   O19   A    
C6    C11   A    
C46   H20   S    
Cr2   O12   S    
C29   H16   S    
C25   C26   A    
C28   O18   A    
C48   H26   S    
C47   H29   S    
C42   O17   A    
C29   C30   A    
C46   H23   S    
C36   O2    A    
C31   H17   S    
C47   C48   S    
C13   H5    S    
C14   H6    S    
C17   C18   A    
C12   H24   S    
C3    H35   S    
C34   C45   S    
C2    H34   S    
C15   C39   S    
C2    C52   A    
C1    O13   A    
Cr5   O26   S    
Cr1   O18   S    
C38   O6    A    
C28   C33   S    
C9    C47   S    
C49   H12   S    
Cr3   O16   S    
C48   H28   S    
C5    C50   A    
Cr6   O10   S    
C8    C37   S    
Cr4   O6    S    
C7    H2    S    
C43   H3    S    
C39   O8    A    
C40   O12   A    
C15   C17   A    
C16   O1    A    
C14   C15   A    
Cr4   O24   S    
C3    C5    A    
C1    O4    A    
C32   H18   S    
C39   O9    A    
C6    C7    A    
Cr3   O20   S    
Cr1   O4    S    
C18   H8    S    
Cr5   O7    S    
C17   H7    S    
C41   O10   A    
Cr2   O14   S    
Cr6   O11   S    
C10   C11   A    
C47   H30   S    
C49   H25   S    
C2    C3    A    
C21   H10   S    
C32   C33   A    
C20   C26   A    
C12   H22   S    
C22   C24   A    
C44   H15   S    
C36   O26   A    
Cr4   O11   S    
C19   C40   S    
C42   O21   A    
C37   O23   A    
C20   C21   A    
C34   C49   S    
C23   C36   S    
C35   C52   S    
C48   H27   S    
C35   O24   A    
Cr6   O9    S    
Cr4   O5    S    
C21   C22   A    
C27   H14   S    
