data_mof_unit_24651.cif
_audit_creation_date              2012-12-11T14:57:51-0500
_audit_creation_method            fapswitch 2.2
_symmetry_space_group_name_H-M    P1
_symmetry_Int_Tables_number       1
_space_group_crystal_system       triclinic
_cell_length_a                    6.938851
_cell_length_b                    16.75851
_cell_length_c                    17.048696
_cell_angle_alpha                 100.495969
_cell_angle_beta                  90.473497
_cell_angle_gamma                 90.441918
_cell_volume                      1949.1802305

loop_
_atom_site_label
_atom_site_type_symbol
_atom_type_description
_atom_site_fract_x
_atom_site_fract_y
_atom_site_fract_z
_atom_type_partial_charge
O1    O     O_R   0.506180 0.438940 0.579430 -0.540654
O2    O     O_R   0.170520 0.406230 0.413590 -0.537180
O3    O     O_R   0.005180 0.561060 0.420570 -0.540132
C1    C     C_R   0.339066 0.383373 0.385032 0.697762
O4    O     O_R   0.176140 0.429310 0.578370 -0.544063
O5    O     O_R   0.010830 0.584300 0.586530 -0.536126
C2    C     C_R   0.343576 0.413643 0.605262 0.695091
O6    O     O_R   0.500520 0.415700 0.413470 -0.534690
O7    O     O_3   0.340830 0.550820 0.502480 -0.367528
V1    V     V_3+5 0.064040 0.490570 0.499540 1.413995
O8    O     O_R   0.681400 0.593770 0.586410 -0.537480
C3    C     C_R   0.851259 0.616674 0.614657 0.693452
O9    O     O_R   0.675790 0.570690 0.421630 -0.543967
C4    C     C_R   0.842534 0.586483 0.394822 0.696828
V2    V     V_3+5 0.564650 0.509430 0.500460 1.416684
O10   O     O_3   0.837730 0.449180 0.497520 -0.367158
C5    C     C_R   0.928773 0.860376 0.166367 -0.062992
C6    C     C_R   0.837703 0.639571 0.333498 -0.063179
C7    C     C_R   0.645897 0.698067 0.237095 -0.210089
C8    C     C_R   0.666181 0.643165 0.289110 -0.163782
C9    C     C_R   0.990947 0.691933 0.323451 -0.247730
C10   C     C_R   0.970372 0.748290 0.271606 0.164859
C11   C     C_R   0.796114 0.751677 0.228282 0.164816
C12   C     C_R   0.775528 0.808029 0.176437 -0.248557
C13   C     C_R   0.100311 0.856787 0.210746 -0.164045
C14   C     C_R   0.120591 0.801899 0.262782 -0.209721
H1    H     H_    0.643522 0.809227 0.142214 0.120117
H2    H     H_    0.221692 0.895964 0.204385 0.122629
H3    H     H_    0.511535 0.699137 0.204448 0.121263
H4    H     H_    0.254956 0.800833 0.295428 0.121700
H5    H     H_    0.544795 0.603982 0.295450 0.122565
H6    H     H_    0.122938 0.690736 0.357684 0.120777
H7    H     H_    0.618489 0.646105 0.968948 0.112374
C15   C     C_R   0.051323 0.899271 0.728677 -0.148293
C16   C     C_R   0.116572 0.909899 0.654024 0.401858
C17   C     C_R   0.098078 0.845853 0.588911 -0.215170
C18   C     C_R   0.015522 0.772263 0.598536 -0.175798
C19   C     C_R   0.950463 0.760013 0.673915 0.070927
C20   C     C_R   0.968653 0.824827 0.740332 -0.006044
C21   C     C_R   0.864720 0.685240 0.683403 -0.168224
C22   C     C_R   0.796881 0.675378 0.759366 0.066673
C23   C     C_R   0.815143 0.740213 0.825845 0.074319
C24   C     C_R   0.900897 0.814941 0.816330 -0.164252
C25   C     C_R   0.714061 0.600985 0.771096 -0.149020
C26   C     C_R   0.649480 0.591076 0.845916 -0.122829
C27   C     C_R   0.667518 0.654305 0.910788 -0.119299
C28   C     C_R   0.750088 0.727952 0.901314 -0.133960
H8    H     H_    0.065416 0.950566 0.777160 0.127236
H9    H     H_    0.146463 0.852973 0.530318 0.111209
H10   H     H_    0.001913 0.725485 0.545890 0.121087
H11   H     H_    0.699314 0.549429 0.722951 0.109004
H12   H     H_    0.586302 0.533782 0.853672 0.116154
H13   H     H_    0.763742 0.774660 0.954010 0.102088
H14   H     H_    0.555582 0.488515 0.150229 0.116873
C29   C     C_R   0.246163 0.216600 0.397074 -0.138531
C30   C     C_R   0.209247 0.136887 0.405931 -0.114193
C31   C     C_R   0.239366 0.073228 0.342736 -0.126606
C32   C     C_R   0.306739 0.088776 0.270192 -0.135150
C33   C     C_R   0.343927 0.169068 0.258968 0.073567
C34   C     C_R   0.312872 0.234407 0.323891 0.065969
C35   C     C_R   0.414254 0.184451 0.185016 -0.185974
C36   C     C_R   0.453891 0.265489 0.176373 0.067372
C37   C     C_R   0.422811 0.330827 0.241290 0.073442
C38   C     C_R   0.352384 0.315451 0.315226 -0.186585
C39   C     C_R   0.520796 0.283292 0.103218 -0.140419
C40   C     C_R   0.557945 0.362994 0.094396 -0.117948
C41   C     C_R   0.527764 0.426656 0.157579 -0.125578
C42   C     C_R   0.460132 0.411116 0.230084 -0.135850
H15   H     H_    0.222333 0.263831 0.448326 0.106963
H16   H     H_    0.158037 0.124432 0.462336 0.121903
H17   H     H_    0.211710 0.011363 0.350110 0.117292
H18   H     H_    0.331550 0.037102 0.223415 0.096840
H19   H     H_    0.544660 0.236069 0.051964 0.104051
H20   H     H_    0.609385 0.375436 0.038024 0.113461
H21   H     H_    0.435288 0.462797 0.276848 0.096695
C43   C     C_R   0.425987 0.138907 0.833029 -0.055261
C44   C     C_R   0.339613 0.360854 0.666859 -0.072784
C45   C     C_R   0.150774 0.303934 0.764646 -0.198487
C46   C     C_R   0.171652 0.358976 0.712738 -0.160394
C47   C     C_R   0.489247 0.307035 0.675628 -0.244534
C48   C     C_R   0.468187 0.250718 0.727516 0.155110
C49   C     C_R   0.297152 0.248834 0.772154 0.162627
C50   C     C_R   0.276204 0.192607 0.824135 -0.222212
C51   C     C_R   0.593789 0.140657 0.787031 -0.136176
C52   C     C_R   0.614535 0.195595 0.735007 -0.191136
H22   H     H_    0.146997 0.192609 0.859457 0.118167
H23   H     H_    0.711770 0.099863 0.792092 0.131883
H24   H     H_    0.018966 0.304004 0.798331 0.119113
H25   H     H_    0.746290 0.195479 0.701281 0.128666
H26   H     H_    0.053690 0.399787 0.707706 0.127368
H27   H     H_    0.618489 0.307065 0.640332 0.124763
O11   O     O_R   0.265840 0.084300 0.086750 -0.535561
O12   O     O_R   0.589750 0.070740 0.921690 -0.546972
O13   O     O_R   0.755020 0.915730 0.913400 -0.535338
C53   C     C_R   0.422242 0.086322 0.894799 0.697779
O14   O     O_R   0.595830 0.093740 0.086480 -0.537403
O15   O     O_R   0.761150 0.938890 0.079360 -0.540181
C54   C     C_R   0.427375 0.116558 0.115171 0.696149
O16   O     O_R   0.259710 0.061140 0.920790 -0.537981
O17   O     O_3   0.425260 0.949200 0.997610 -0.368019
V3    V     V_3+5 0.702060 0.009430 0.000450 1.414992
O18   O     O_R   0.090530 0.929220 0.078150 -0.544284
C55   C     C_R   0.923852 0.913457 0.105041 0.696136
O19   O     O_R   0.084440 0.906220 0.913360 -0.537995
C56   C     C_R   0.914520 0.883409 0.885141 0.693542
V4    V     V_3+5 0.201450 0.990520 0.999290 1.420766
O20   O     O_3   0.928380 0.050800 0.002390 -0.367840
O21   O     O_3   0.196431 0.983799 0.646670 -0.647635
H28   H     H_    0.235025 0.981682 0.590444 0.282033

loop_
_geom_bond_atom_site_label_1
_geom_bond_atom_site_label_2
_ccdc_geom_bond_type
V3    O20   S    
C29   C30   A    
O13   C56   A    
C6    C9    A    
C22   C23   A    
C4    C6    S    
O2    C1    A    
C7    C8    A    
C12   H1    S    
C1    O6    A    
C43   C51   A    
O19   V4    S    
C48   C49   A    
O11   C54   A    
C26   C27   A    
C30   C31   A    
C13   H2    S    
C36   C37   A    
C9    C10   A    
C17   C18   A    
C43   C53   S    
O5    C3    A    
C19   C20   A    
C53   O16   A    
V4    O20   S    
V2    O10   S    
C40   H20   S    
C39   H19   S    
O21   H28   S    
C15   C16   A    
C24   C56   S    
C46   H26   S    
C16   O21   S    
C37   C42   A    
O8    V2    S    
C16   C17   A    
O13   V3    S    
O14   C54   A    
C11   C12   A    
C51   H23   S    
O1    V2    S    
O9    C4    A    
O7    V1    S    
C2    C44   S    
C40   C41   A    
C33   C34   A    
O12   C53   A    
C29   C34   A    
H7    C27   S    
C35   C36   A    
C43   C50   A    
O19   C56   A    
C44   C46   A    
C9    H6    S    
C33   C35   A    
C5    C12   A    
C41   C42   A    
C51   C52   A    
O12   V3    S    
O4    C2    A    
C52   H25   S    
C45   C46   A    
C20   C24   A    
H14   C41   S    
C26   H12   S    
C32   C33   A    
C49   C50   A    
C15   C20   A    
C42   H21   S    
C3    C21   S    
C7    C11   A    
C18   C19   A    
C45   C49   A    
C5    C55   S    
C29   H15   S    
C31   H17   S    
O15   C55   A    
O3    C4    A    
C25   H11   S    
O11   V4    S    
C21   C22   A    
C14   H4    S    
O6    V2    S    
C30   H16   S    
O9    V2    S    
C22   C25   A    
C15   H8    S    
C23   C24   A    
O2    V1    S    
C25   C26   A    
C44   C47   A    
C45   H24   S    
O16   V4    S    
C27   C28   A    
C36   C39   A    
O1    C2    A    
C47   C48   A    
O5    V1    S    
O8    C3    A    
C1    C38   S    
O17   V4    S    
C28   H13   S    
C34   C38   A    
C5    C13   A    
C47   H27   S    
C13   C14   A    
O4    V1    S    
O3    V1    S    
V1    O10   S    
C19   C21   A    
C18   H10   S    
C35   C54   S    
C32   H18   S    
C31   C32   A    
O17   V3    S    
O18   V4    S    
C6    C8    A    
C23   C28   A    
O7    V2    S    
O18   C55   A    
O15   V3    S    
C37   C38   A    
C50   H22   S    
C39   C40   A    
C10   C14   A    
C10   C11   A    
O14   V3    S    
C48   C52   A    
C17   H9    S    
C8    H5    S    
C7    H3    S    
