data_mof_unit_25892.cif
_audit_creation_date              2012-10-26T21:00:17-0400
_audit_creation_method            fapswitch 2.2
_symmetry_space_group_name_H-M    P1
_symmetry_Int_Tables_number       1
_space_group_crystal_system       triclinic
_cell_length_a                    19.329295
_cell_length_b                    8.709845
_cell_length_c                    7.602314
_cell_angle_alpha                 104.039511
_cell_angle_beta                  95.636654
_cell_angle_gamma                 96.141995
_cell_volume                      1224.25657446

loop_
_atom_site_label
_atom_site_type_symbol
_atom_type_description
_atom_site_fract_x
_atom_site_fract_y
_atom_site_fract_z
_atom_type_partial_charge
C1    C     C_R   0.497809 0.199564 0.452259 0.555208
C2    C     C_R   0.812022 0.457886 0.346024 -0.065509
C3    C     C_R   0.144182 0.480699 0.488138 -0.025655
C4    C     C_R   0.855818 0.519300 0.511863 -0.025655
C5    C     C_R   0.173757 0.425358 0.325153 0.037706
C6    C     C_R   0.826243 0.574641 0.674848 0.037705
C7    C     C_R   0.247009 0.436983 0.333384 -0.143919
C8    C     C_R   0.752991 0.563016 0.666616 -0.143919
C9    C     C_R   0.291038 0.498640 0.499979 -0.003926
C10   C     C_R   0.708962 0.501360 0.500021 -0.003927
C11   C     C_R   0.931309 0.513479 0.509085 0.375382
C12   C     C_R   0.502191 0.800436 0.547741 0.555208
C13   C     C_R   0.068691 0.486519 0.490916 0.375381
C14   C     C_2   0.130223 0.347705 0.146866 0.616061
C15   C     C_2   0.869776 0.652295 0.853135 0.616060
C16   C     C_2   0.425294 0.327997 0.950413 0.762094
C17   C     C_2   0.574706 0.672003 0.049587 0.762095
C18   C     C_2   0.496839 0.030441 0.427042 -0.121034
C19   C     C_2   0.503161 0.969558 0.572958 -0.121033
C20   C     C_R   0.367618 0.501089 0.500403 0.573867
C21   C     C_R   0.632382 0.498911 0.499597 0.573867
C22   C     C_R   0.260563 0.552402 0.661845 0.234623
C23   C     C_R   0.739437 0.447599 0.338155 0.234623
C24   C     C_R   0.187978 0.542114 0.653976 -0.065509
Cl1   Cl    Cl    0.309588 0.641358 0.877975 -0.547512
Cl2   Cl    Cl    0.690412 0.358645 0.122024 -0.547512
Cu1   Cu    Cu3+1 0.507710 0.517380 0.684380 1.141311
Cu2   Cu    Cu3+1 0.492290 0.482620 0.315620 1.141311
H1    H     H_    0.165519 0.587133 0.778519 0.199358
H2    H     H_    0.638233 0.810217 0.270056 0.324394
H3    H     H_    0.834481 0.412868 0.221482 0.199357
H4    H     H_    0.269746 0.392581 0.209179 0.206933
H5    H     H_    0.730254 0.607418 0.790821 0.206935
H6    H     H_    0.490936 0.955910 0.287827 0.161752
H7    H     H_    0.509064 0.044090 0.712173 0.161752
H8    H     H_    0.041003 0.210540 0.011499 0.365161
H9    H     H_    0.958997 0.789458 0.988502 0.365161
H10   H     H_    0.361767 0.189783 0.729944 0.324394
N1    N     N_R   0.031174 0.541320 0.364368 -0.164795
N2    N     N_R   0.968826 0.458678 0.635633 -0.164794
N3    N     N_R   0.963494 0.553306 0.372463 -0.178203
N4    N     N_R   0.036506 0.446692 0.627537 -0.178201
N5    N     N_2   0.480680 0.456420 0.038530 -0.147446
N6    N     N_2   0.519320 0.543580 0.961470 -0.147446
O1    O     O_R   0.505010 0.286130 0.619770 -0.482535
O2    O     O_R   0.065167 0.257930 0.140926 -0.655784
O3    O     O_2   0.847700 0.641947 0.995803 -0.488393
O4    O     O_R   0.934833 0.742066 0.859076 -0.655783
O5    O     O_2   0.395970 0.254823 0.046310 -0.487749
O6    O     O_R   0.401428 0.282139 0.765280 -0.659095
O7    O     O_2   0.604030 0.745177 0.953690 -0.487749
O8    O     O_R   0.598572 0.717861 0.234720 -0.659095
O9    O     O_R   0.494990 0.713870 0.380230 -0.482535
O10   O     O_R   0.491990 0.256780 0.308370 -0.471074
O11   O     O_R   0.508010 0.743220 0.691630 -0.471074
O12   O     O_R   0.406650 0.514660 0.655750 -0.420504
O13   O     O_R   0.593350 0.485340 0.344250 -0.420504
O14   O     O_R   0.393640 0.485310 0.344340 -0.490717
O15   O     O_R   0.606360 0.514690 0.655660 -0.490717
O16   O     O_2   0.152298 0.358058 0.004198 -0.488394

loop_
_geom_bond_atom_site_label_1
_geom_bond_atom_site_label_2
_ccdc_geom_bond_type
C2    C4    A    
Cu2   O9    S    
C5    C7    A    
H8    O2    S    
H10   O6    S    
Cu2   O14   S    
C10   C23   A    
C14   O16   D    
C9    C20   S    
C12   O9    A    
C3    C13   S    
C15   O3    D    
N5    N6    D    
Cu1   O1    S    
N2    N4    A    
C1    C18   S    
C17   N6    S    
N1    N3    A    
C21   O15   A    
Cu1   O15   S    
Cu2   O13   S    
H9    O4    S    
C21   O13   A    
C18   H6    S    
C16   N5    S    
C1    O1    A    
C3    C24   A    
C15   O4    S    
C1    O10   A    
C12   C19   S    
C8    C10   A    
C13   N4    A    
C16   O6    S    
C11   N3    A    
Cu1   O11   S    
C20   O12   A    
C2    H3    S    
C10   C21   S    
C11   N2    A    
C22   C24   A    
C9    C22   A    
C13   N1    A    
C12   O11   A    
C20   O14   A    
C7    C9    A    
C2    C23   A    
C16   O5    D    
C17   O8    S    
C17   O7    D    
C14   O2    S    
C4    C6    A    
C23   Cl2   S    
Cu1   Cu2   S    
C19   H7    S    
H2    O8    S    
Cu1   O12   S    
C18   C19   D    
C6    C8    A    
C7    H4    S    
Cu2   N5    S    
C3    C5    A    
C6    C15   S    
C24   H1    S    
Cu2   O10   S    
C5    C14   S    
Cu1   N6    S    
C8    H5    S    
C4    C11   S    
C22   Cl1   S    
