data_mof_unit_62772.cif
_audit_creation_date              2013-03-05T16:19:29-0500
_audit_creation_method            fapswitch 2.2
_symmetry_space_group_name_H-M    P1
_symmetry_Int_Tables_number       1
_space_group_crystal_system       triclinic
_cell_length_a                    38.839686
_cell_length_b                    38.839623
_cell_length_c                    47.14972
_cell_angle_alpha                 90.000026
_cell_angle_beta                  90.000026
_cell_angle_gamma                 90.0
_cell_volume                      71126.2372279

loop_
_atom_site_label
_atom_site_type_symbol
_atom_site_description
_atom_site_fract_x
_atom_site_fract_y
_atom_site_fract_z
_atom_type_partial_charge
O1    O     O_R   0.550920 0.971200 0.999980 -0.612047
O2    O     O_R   0.028800 0.550920 0.999980 -0.612177
O3    O     O_R   0.449080 0.028800 0.999980 -0.612047
O4    O     O_R   0.971200 0.449080 0.999980 -0.612177
O5    O     O_R   0.550920 0.028800 0.000020 -0.612047
O6    O     O_R   0.028800 0.449080 0.000020 -0.612178
O7    O     O_R   0.449080 0.971200 0.000020 -0.612047
O8    O     O_R   0.971200 0.550920 0.000020 -0.612178
O9    O     O_R   0.050920 0.471200 0.499980 -0.612047
O10   O     O_R   0.528800 0.050920 0.499980 -0.612178
O11   O     O_R   0.949080 0.528800 0.499980 -0.612047
O12   O     O_R   0.471200 0.949080 0.499980 -0.612177
O13   O     O_R   0.050920 0.528800 0.500020 -0.612047
O14   O     O_R   0.528800 0.949080 0.500020 -0.612178
O15   O     O_R   0.949080 0.471200 0.500020 -0.612047
O16   O     O_R   0.471200 0.050920 0.500020 -0.612178
C1    C     C_R   0.567260 0.000000 0.000000 0.900358
C2    C     C_R   0.000000 0.567260 1.000000 0.901270
C3    C     C_R   0.432740 0.000000 0.000000 0.900360
C4    C     C_R   0.000000 0.432739 1.000000 0.901271
C5    C     C_R   0.067260 0.500000 0.500000 0.900359
C6    C     C_R   0.500000 0.067260 0.500000 0.901276
C7    C     C_R   0.932740 0.500000 0.500000 0.900360
C8    C     C_R   0.500000 0.932739 0.500000 0.901277
O17   O     O_R   0.499990 0.971200 0.958070 -0.582544
O18   O     O_R   0.028800 0.499990 0.958070 -0.583264
O19   O     O_R   0.500010 0.028800 0.958070 -0.582544
O20   O     O_R   0.971200 0.500010 0.958070 -0.583264
O21   O     O_R   0.499990 0.028800 0.041930 -0.582543
O22   O     O_R   0.028800 0.500010 0.041930 -0.583259
O23   O     O_R   0.500010 0.971200 0.041930 -0.582543
O24   O     O_R   0.971200 0.499990 0.041930 -0.583260
O25   O     O_R   0.999990 0.471200 0.458070 -0.582544
O26   O     O_R   0.528800 0.999990 0.458070 -0.583265
O27   O     O_R   0.000010 0.528800 0.458070 -0.582544
O28   O     O_R   0.471200 0.000010 0.458070 -0.583265
O29   O     O_R   0.999990 0.528800 0.541930 -0.582544
O30   O     O_R   0.528800 0.000010 0.541930 -0.583262
O31   O     O_R   0.000010 0.471200 0.541930 -0.582544
O32   O     O_R   0.471200 0.999990 0.541930 -0.583263
C9    C     C_R   0.500000 0.000000 0.944651 0.978843
C10   C     C_R   0.000000 0.500000 0.944651 0.980310
C11   C     C_R   0.500000 0.000000 0.055349 0.978838
C12   C     C_R   0.000000 0.500000 0.055349 0.980300
C13   C     C_R   0.000000 0.500000 0.444651 0.978845
C14   C     C_R   0.500000 0.000000 0.444651 0.980313
C15   C     C_R   0.000000 0.500000 0.555349 0.978841
C16   C     C_R   0.500000 0.000000 0.555349 0.980305
Zn1   Zn    Zn3+2 0.500000 0.961560 0.000000 1.101955
Zn2   Zn    Zn3+2 0.038440 0.500000 0.000000 1.100149
Zn3   Zn    Zn3+2 0.500000 0.038440 0.000000 1.101956
Zn4   Zn    Zn3+2 0.961560 0.500000 0.000000 1.100149
Zn5   Zn    Zn3+2 0.000000 0.461560 0.500000 1.101955
Zn6   Zn    Zn3+2 0.538440 0.000000 0.500000 1.100146
Zn7   Zn    Zn3+2 0.000000 0.538440 0.500000 1.101955
Zn8   Zn    Zn3+2 0.461560 0.000000 0.500000 1.100146
C17   C     C_R   0.484631 0.026533 0.689939 0.536211
C18   C     C_R   0.014661 0.526935 0.689797 0.537944
C19   C     C_R   0.515369 0.973466 0.689939 0.536211
C20   C     C_R   0.985339 0.473065 0.689797 0.537946
C21   C     C_R   0.484623 0.973471 0.310061 0.536213
C22   C     C_R   0.014648 0.473057 0.310204 0.537943
C23   C     C_R   0.515377 0.026529 0.310061 0.536213
C24   C     C_R   0.985352 0.526942 0.310204 0.537944
C25   C     C_R   0.984638 0.526538 0.189939 0.536209
C26   C     C_R   0.514665 0.026933 0.189797 0.537946
C27   C     C_R   0.015362 0.473462 0.189939 0.536209
C28   C     C_R   0.485335 0.973067 0.189797 0.537948
C29   C     C_R   0.984626 0.473469 0.810061 0.536212
C30   C     C_R   0.514656 0.973062 0.810203 0.537944
C31   C     C_R   0.015373 0.526531 0.810061 0.536212
C32   C     C_R   0.485344 0.026938 0.810203 0.537944
N1    N     N_R   0.500000 1.000000 0.676002 -0.335961
N2    N     N_R   1.000000 0.500000 0.675907 -0.337579
N3    N     N_R   0.500000 0.000000 0.323998 -0.335962
N4    N     N_R   0.000000 0.500000 0.324093 -0.337576
N5    N     N_R   0.000000 0.500000 0.176002 -0.335959
N6    N     N_R   0.500000 0.000000 0.175907 -0.337580
N7    N     N_R   1.000000 0.500000 0.823998 -0.335962
N8    N     N_R   0.500000 1.000000 0.824093 -0.337578
C33   C     C_R   0.515199 0.972147 0.719935 -0.066664
C34   C     C_R   0.985042 0.472001 0.719799 -0.067515
C35   C     C_R   0.484801 0.027853 0.719935 -0.066664
C36   C     C_R   0.014957 0.527999 0.719799 -0.067516
C37   C     C_R   0.515208 0.027848 0.280065 -0.066666
C38   C     C_R   0.985057 0.528007 0.280201 -0.067512
C39   C     C_R   0.484792 0.972152 0.280065 -0.066666
C40   C     C_R   0.014943 0.471993 0.280201 -0.067512
C41   C     C_R   0.015190 0.472142 0.219936 -0.066663
C42   C     C_R   0.485037 0.972003 0.219799 -0.067516
C43   C     C_R   0.984810 0.527858 0.219936 -0.066663
C44   C     C_R   0.514962 0.027997 0.219799 -0.067516
C45   C     C_R   0.015203 0.527850 0.780065 -0.066665
C46   C     C_R   0.485048 0.028002 0.780201 -0.067514
C47   C     C_R   0.984796 0.472150 0.780065 -0.066665
C48   C     C_R   0.514952 0.971998 0.780201 -0.067514
C49   C     C_R   0.500000 1.000000 0.735017 -0.019384
C50   C     C_R   1.000000 0.500000 0.734879 -0.019679
C51   C     C_R   0.500000 0.000000 0.264983 -0.019384
C52   C     C_R   0.000000 0.500000 0.265121 -0.019681
C53   C     C_R   1.000000 0.500000 0.235017 -0.019384
C54   C     C_R   0.500000 0.000000 0.234879 -0.019679
C55   C     C_R   1.000000 0.500000 0.764983 -0.019383
C56   C     C_R   0.500000 1.000000 0.765121 -0.019680
C57   C     C_R   0.529671 0.944078 0.735153 -0.071684
C58   C     C_R   0.970421 0.444019 0.735030 -0.071345
C59   C     C_R   0.470329 0.055921 0.735153 -0.071685
C60   C     C_R   0.029578 0.555981 0.735030 -0.071344
C61   C     C_R   0.529692 0.055910 0.264847 -0.071685
C62   C     C_R   0.970452 0.555997 0.264970 -0.071343
C63   C     C_R   0.470308 0.944090 0.264847 -0.071685
C64   C     C_R   0.029548 0.444003 0.264970 -0.071343
C65   C     C_R   0.029652 0.444068 0.235153 -0.071684
C66   C     C_R   0.470411 0.944024 0.235030 -0.071344
C67   C     C_R   0.970348 0.555932 0.235153 -0.071685
C68   C     C_R   0.529588 0.055976 0.235030 -0.071344
C69   C     C_R   0.029682 0.555916 0.764847 -0.071685
C70   C     C_R   0.470433 0.055987 0.764970 -0.071344
C71   C     C_R   0.970318 0.444084 0.764847 -0.071685
C72   C     C_R   0.529567 0.944013 0.764970 -0.071344
O33   O     O_2   0.469023 0.051230 0.674471 -0.524905
O34   O     O_2   0.028976 0.552340 0.674259 -0.523837
O35   O     O_2   0.530977 0.948770 0.674471 -0.524905
O36   O     O_2   0.971023 0.447660 0.674259 -0.523838
O37   O     O_2   0.469008 0.948778 0.325530 -0.524905
O38   O     O_2   0.028953 0.447646 0.325741 -0.523841
O39   O     O_2   0.530991 0.051222 0.325530 -0.524904
O40   O     O_2   0.971047 0.552354 0.325741 -0.523841
O41   O     O_2   0.969036 0.551238 0.174471 -0.524906
O42   O     O_2   0.528984 0.052336 0.174259 -0.523836
O43   O     O_2   0.030964 0.448762 0.174471 -0.524906
O44   O     O_2   0.471016 0.947664 0.174259 -0.523837
O45   O     O_2   0.969015 0.448774 0.825530 -0.524905
O46   O     O_2   0.528968 0.947655 0.825741 -0.523839
O47   O     O_2   0.030985 0.551226 0.825530 -0.524905
O48   O     O_2   0.471032 0.052345 0.825741 -0.523839
C73   C     C_R   0.524005 0.019932 0.869137 -0.118175
C74   C     C_R   0.980061 0.523999 0.869141 -0.115883
C75   C     C_R   0.475995 0.980068 0.869137 -0.118176
C76   C     C_R   0.019939 0.476001 0.869140 -0.115883
C77   C     C_R   0.524004 0.980067 0.130863 -0.118180
C78   C     C_R   0.980057 0.476005 0.130860 -0.115881
C79   C     C_R   0.475995 0.019933 0.130863 -0.118181
C80   C     C_R   0.019943 0.523995 0.130860 -0.115881
C81   C     C_R   0.024006 0.519931 0.369137 -0.118169
C82   C     C_R   0.480062 0.024000 0.369140 -0.115883
C83   C     C_R   0.975994 0.480069 0.369137 -0.118170
C84   C     C_R   0.519937 0.976000 0.369140 -0.115883
C85   C     C_R   0.024005 0.480068 0.630863 -0.118178
C86   C     C_R   0.480060 0.976003 0.630860 -0.115883
C87   C     C_R   0.975995 0.519932 0.630863 -0.118178
C88   C     C_R   0.519940 0.023997 0.630860 -0.115881
H1    H     H_    0.542659 0.035116 0.857508 0.190304
H2    H     H_    0.964768 0.542597 0.857546 0.193410
H3    H     H_    0.457341 0.964884 0.857508 0.190304
H4    H     H_    0.035232 0.457403 0.857546 0.193410
H5    H     H_    0.542658 0.964883 0.142492 0.190300
H6    H     H_    0.964761 0.457410 0.142454 0.193414
H7    H     H_    0.457342 0.035117 0.142492 0.190300
H8    H     H_    0.035239 0.542590 0.142454 0.193415
H9    H     H_    0.042660 0.535115 0.357508 0.190307
H10   H     H_    0.464771 0.042599 0.357546 0.193408
H11   H     H_    0.957340 0.464885 0.357508 0.190307
H12   H     H_    0.535229 0.957401 0.357546 0.193408
H13   H     H_    0.042658 0.464883 0.642492 0.190302
H14   H     H_    0.464765 0.957406 0.642454 0.193411
H15   H     H_    0.957341 0.535117 0.642492 0.190302
H16   H     H_    0.535234 0.042594 0.642454 0.193411
C89   C     C_R   0.524209 0.020053 0.898675 0.324970
C90   C     C_R   0.979955 0.524207 0.898677 0.323176
C91   C     C_R   0.475791 0.979947 0.898675 0.324971
C92   C     C_R   0.020045 0.475793 0.898677 0.323176
C93   C     C_R   0.524208 0.979946 0.101325 0.324973
C94   C     C_R   0.979951 0.475796 0.101323 0.323178
C95   C     C_R   0.475791 0.020054 0.101325 0.324974
C96   C     C_R   0.020049 0.524204 0.101323 0.323178
C97   C     C_R   0.024209 0.520053 0.398675 0.324967
C98   C     C_R   0.479956 0.024208 0.398677 0.323174
C99   C     C_R   0.975791 0.479947 0.398675 0.324968
C100  C     C_R   0.520044 0.975792 0.398676 0.323175
C101  C     C_R   0.024209 0.479946 0.601325 0.324972
C102  C     C_R   0.479953 0.975794 0.601323 0.323177
C103  C     C_R   0.975791 0.520054 0.601325 0.324972
C104  C     C_R   0.520047 0.024206 0.601323 0.323176
C105  C     C_R   0.500000 1.000000 0.913671 -0.240875
C106  C     C_R   1.000000 0.500000 0.913670 -0.241406
C107  C     C_R   0.500000 0.000000 0.086329 -0.240875
C108  C     C_R   0.000000 0.500000 0.086330 -0.241415
C109  C     C_R   0.000000 0.500000 0.413671 -0.240875
C110  C     C_R   0.500000 0.000000 0.413670 -0.241404
C111  C     C_R   1.000000 0.500000 0.586329 -0.240874
C112  C     C_R   0.500000 0.000000 0.586330 -0.241410
C113  C     C_R   0.500000 1.000000 0.854420 0.178303
C114  C     C_R   1.000000 0.500000 0.854374 0.172608
C115  C     C_R   0.500000 0.000000 0.145580 0.178313
C116  C     C_R   0.000000 0.500000 0.145626 0.172596
C117  C     C_R   1.000000 0.500000 0.354420 0.178294
C118  C     C_R   0.500000 0.000000 0.354374 0.172611
C119  C     C_R   1.000000 0.500000 0.645580 0.178309
C120  C     C_R   0.500000 1.000000 0.645626 0.172603
O49   O     O_R   0.000010 0.050920 0.976360 -0.609433
O50   O     O_R   0.949080 0.000010 0.976360 -0.609439
O51   O     O_R   0.999990 0.949080 0.976360 -0.609433
O52   O     O_R   0.050920 0.999990 0.976360 -0.609439
O53   O     O_R   0.000010 0.949080 0.023640 -0.609434
O54   O     O_R   0.949080 0.999990 0.023640 -0.609440
O55   O     O_R   0.999990 0.050920 0.023640 -0.609434
O56   O     O_R   0.050920 0.000010 0.023640 -0.609440
O57   O     O_R   0.500010 0.550920 0.476360 -0.609434
O58   O     O_R   0.449080 0.500010 0.476360 -0.609439
O59   O     O_R   0.499990 0.449080 0.476360 -0.609433
O60   O     O_R   0.550920 0.499990 0.476360 -0.609439
O61   O     O_R   0.500010 0.449080 0.523640 -0.609434
O62   O     O_R   0.449080 0.499990 0.523640 -0.609440
O63   O     O_R   0.499990 0.550920 0.523640 -0.609434
O64   O     O_R   0.550920 0.500010 0.523640 -0.609440
C121  C     C_R   0.000000 0.067101 0.000000 0.885190
C122  C     C_R   0.932898 0.000000 0.000000 0.885191
C123  C     C_R   0.000000 0.932898 0.000000 0.885191
C124  C     C_R   0.067101 0.000000 0.000000 0.885190
C125  C     C_R   0.500000 0.567101 0.500000 0.885190
C126  C     C_R   0.432898 0.500000 0.500000 0.885191
C127  C     C_R   0.500000 0.432898 0.500000 0.885190
C128  C     C_R   0.567101 0.500000 0.500000 0.885190
Zn9   Zn    Zn3+2 0.000000 0.000000 0.968380 1.043368
Zn10  Zn    Zn3+2 0.000000 0.000000 0.031620 1.043367
Zn11  Zn    Zn3+2 0.500000 0.500000 0.468380 1.043368
Zn12  Zn    Zn3+2 0.500000 0.500000 0.531620 1.043367
C129  C     C_R   0.877411 0.026632 0.013921 -0.116205
C130  C     C_R   0.973362 0.877411 0.013914 -0.116222
C131  C     C_R   0.122589 0.973367 0.013921 -0.116205
C132  C     C_R   0.026638 0.122589 0.013914 -0.116222
C133  C     C_R   0.877411 0.973368 0.986079 -0.116205
C134  C     C_R   0.973362 0.122589 0.986086 -0.116222
C135  C     C_R   0.122589 0.026632 0.986079 -0.116205
C136  C     C_R   0.026638 0.877411 0.986086 -0.116221
C137  C     C_R   0.377411 0.526633 0.513921 -0.116205
C138  C     C_R   0.473362 0.377411 0.513914 -0.116222
C139  C     C_R   0.622589 0.473367 0.513921 -0.116205
C140  C     C_R   0.526638 0.622589 0.513914 -0.116222
C141  C     C_R   0.377411 0.473368 0.486079 -0.116205
C142  C     C_R   0.473362 0.622589 0.486086 -0.116221
C143  C     C_R   0.622589 0.526633 0.486079 -0.116205
C144  C     C_R   0.526638 0.377411 0.486086 -0.116222
C145  C     C_R   0.841414 0.026661 0.013794 0.342383
C146  C     C_R   0.973333 0.841414 0.013786 0.342382
C147  C     C_R   0.158586 0.973339 0.013794 0.342383
C148  C     C_R   0.026667 0.158586 0.013786 0.342382
C149  C     C_R   0.841414 0.973339 0.986206 0.342383
C150  C     C_R   0.973333 0.158585 0.986214 0.342382
C151  C     C_R   0.158586 0.026661 0.986206 0.342382
C152  C     C_R   0.026667 0.841414 0.986214 0.342383
C153  C     C_R   0.341414 0.526661 0.513794 0.342383
C154  C     C_R   0.473333 0.341414 0.513786 0.342382
C155  C     C_R   0.658586 0.473339 0.513794 0.342383
C156  C     C_R   0.526667 0.658586 0.513786 0.342382
C157  C     C_R   0.341414 0.473339 0.486206 0.342383
C158  C     C_R   0.473333 0.658586 0.486214 0.342382
C159  C     C_R   0.658586 0.526661 0.486206 0.342383
C160  C     C_R   0.526667 0.341414 0.486214 0.342383
C161  C     C_R   0.823622 0.000000 1.000000 -0.114817
C162  C     C_R   0.000000 0.823622 1.000000 -0.114859
C163  C     C_R   0.176378 0.000000 0.000000 -0.114816
C164  C     C_R   1.000000 0.176378 1.000000 -0.114859
C165  C     C_R   0.323622 0.500000 0.500000 -0.114817
C166  C     C_R   0.500000 0.323622 0.500000 -0.114859
C167  C     C_R   0.676378 0.500000 0.500000 -0.114817
C168  C     C_R   0.500000 0.676378 0.500000 -0.114858
C169  C     C_R   0.895384 0.000000 1.000000 -0.223189
C170  C     C_R   0.000000 0.895384 1.000000 -0.223179
C171  C     C_R   0.104616 0.000000 0.000000 -0.223190
C172  C     C_R   1.000000 0.104616 0.000000 -0.223179
C173  C     C_R   0.395384 0.500000 0.500000 -0.223189
C174  C     C_R   0.500000 0.395384 0.500000 -0.223178
C175  C     C_R   0.604616 0.500000 0.500000 -0.223189
C176  C     C_R   0.500000 0.604616 0.500000 -0.223179
C177  C     C_R   0.767954 0.014373 0.976898 -0.055082
C178  C     C_R   0.985645 0.767954 0.976891 -0.055199
C179  C     C_R   0.232046 0.985627 0.976898 -0.055082
C180  C     C_R   0.014355 0.232046 0.976891 -0.055199
C181  C     C_R   0.767954 0.985627 0.023101 -0.055081
C182  C     C_R   0.985645 0.232046 0.023109 -0.055199
C183  C     C_R   0.232046 0.014372 0.023102 -0.055082
C184  C     C_R   0.014355 0.767954 0.023109 -0.055198
C185  C     C_R   0.267954 0.514373 0.476898 -0.055081
C186  C     C_R   0.485645 0.267954 0.476890 -0.055199
C187  C     C_R   0.732046 0.485627 0.476898 -0.055082
C188  C     C_R   0.514355 0.732046 0.476891 -0.055200
C189  C     C_R   0.267954 0.485627 0.523101 -0.055081
C190  C     C_R   0.485645 0.732046 0.523109 -0.055199
C191  C     C_R   0.732046 0.514373 0.523101 -0.055082
C192  C     C_R   0.514355 0.267954 0.523109 -0.055200
C193  C     C_R   0.731956 0.014217 0.976839 0.320917
C194  C     C_R   0.985802 0.731956 0.976831 0.320998
C195  C     C_R   0.268043 0.985784 0.976839 0.320918
C196  C     C_R   0.014198 0.268044 0.976831 0.320997
C197  C     C_R   0.731956 0.985783 0.023161 0.320917
C198  C     C_R   0.985802 0.268044 0.023168 0.320997
C199  C     C_R   0.268043 0.014216 0.023161 0.320917
C200  C     C_R   0.014198 0.731956 0.023168 0.320997
C201  C     C_R   0.231956 0.514217 0.476839 0.320916
C202  C     C_R   0.485802 0.231956 0.476831 0.320998
C203  C     C_R   0.768043 0.485783 0.476839 0.320917
C204  C     C_R   0.514198 0.768044 0.476831 0.320998
C205  C     C_R   0.231956 0.485783 0.523161 0.320917
C206  C     C_R   0.485802 0.768044 0.523169 0.320997
C207  C     C_R   0.768043 0.514216 0.523161 0.320917
C208  C     C_R   0.514198 0.231956 0.523169 0.320997
C209  C     C_R   0.714093 0.000000 1.000000 -0.138374
C210  C     C_R   1.000000 0.714093 1.000000 -0.138545
C211  C     C_R   0.285907 1.000000 0.000000 -0.138374
C212  C     C_R   1.000000 0.285907 1.000000 -0.138545
C213  C     C_R   0.214093 0.500000 0.500000 -0.138374
C214  C     C_R   0.500000 0.214093 0.500000 -0.138545
C215  C     C_R   0.785907 0.500000 0.500000 -0.138374
C216  C     C_R   0.500000 0.785907 0.500000 -0.138545
C217  C     C_R   0.785868 0.000000 1.000000 0.010448
C218  C     C_R   0.000000 0.785868 1.000000 0.010484
C219  C     C_R   0.214131 1.000000 0.000000 0.010448
C220  C     C_R   1.000000 0.214131 1.000000 0.010484
C221  C     C_R   0.285869 0.500000 0.500000 0.010447
C222  C     C_R   0.500000 0.285868 0.500000 0.010484
C223  C     C_R   0.714131 0.500000 0.500000 0.010448
C224  C     C_R   0.500000 0.714132 0.500000 0.010484
C225  C     C_R   0.658724 0.969146 0.995877 -0.051256
C226  C     C_R   0.030856 0.658724 0.995887 -0.050805
C227  C     C_R   0.341276 0.030854 0.995877 -0.051255
C228  C     C_R   0.969144 0.341276 0.995887 -0.050806
C229  C     C_R   0.658724 0.030854 0.004123 -0.051255
C230  C     C_R   0.030856 0.341276 0.004113 -0.050805
C231  C     C_R   0.341276 0.969146 0.004123 -0.051254
C232  C     C_R   0.969144 0.658724 0.004113 -0.050806
C233  C     C_R   0.158724 0.469146 0.495877 -0.051256
C234  C     C_R   0.530856 0.158724 0.495887 -0.050805
C235  C     C_R   0.841276 0.530854 0.495877 -0.051255
C236  C     C_R   0.469144 0.841276 0.495887 -0.050805
C237  C     C_R   0.158724 0.530854 0.504123 -0.051255
C238  C     C_R   0.530856 0.841276 0.504113 -0.050805
C239  C     C_R   0.841276 0.469146 0.504123 -0.051255
C240  C     C_R   0.469144 0.158724 0.504113 -0.050806
H17   H     H_    0.672539 0.945235 0.992623 0.169861
H18   H     H_    0.054769 0.672539 0.992641 0.169790
H19   H     H_    0.327461 0.054765 0.992624 0.169861
H20   H     H_    0.945231 0.327461 0.992641 0.169790
H21   H     H_    0.672539 0.054765 0.007376 0.169861
H22   H     H_    0.054769 0.327461 0.007359 0.169789
H23   H     H_    0.327461 0.945235 0.007376 0.169861
H24   H     H_    0.945231 0.672539 0.007358 0.169789
H25   H     H_    0.172539 0.445235 0.492623 0.169861
H26   H     H_    0.554769 0.172539 0.492641 0.169789
H27   H     H_    0.827461 0.554765 0.492623 0.169861
H28   H     H_    0.445231 0.827461 0.492641 0.169790
H29   H     H_    0.172539 0.554765 0.507376 0.169861
H30   H     H_    0.554769 0.827461 0.507359 0.169789
H31   H     H_    0.827461 0.445235 0.507376 0.169861
H32   H     H_    0.445231 0.172539 0.507359 0.169789
C241  C     C_R   0.622961 0.969097 0.995977 -0.138789
C242  C     C_R   0.030905 0.622961 0.995986 -0.138230
C243  C     C_R   0.377039 0.030903 0.995977 -0.138790
C244  C     C_R   0.969095 0.377039 0.995986 -0.138229
C245  C     C_R   0.622961 0.030903 0.004023 -0.138789
C246  C     C_R   0.030905 0.377039 0.004014 -0.138230
C247  C     C_R   0.377039 0.969096 0.004023 -0.138790
C248  C     C_R   0.969095 0.622961 0.004014 -0.138229
C249  C     C_R   0.122961 0.469097 0.495977 -0.138789
C250  C     C_R   0.530905 0.122961 0.495986 -0.138228
C251  C     C_R   0.877039 0.530903 0.495977 -0.138790
C252  C     C_R   0.469095 0.877039 0.495986 -0.138227
C253  C     C_R   0.122961 0.530903 0.504023 -0.138789
C254  C     C_R   0.530905 0.877039 0.504014 -0.138228
C255  C     C_R   0.877039 0.469097 0.504023 -0.138789
C256  C     C_R   0.469095 0.122961 0.504014 -0.138227
H33   H     H_    0.609539 0.944972 0.992751 0.179424
H34   H     H_    0.055031 0.609539 0.992768 0.179203
H35   H     H_    0.390461 0.055028 0.992751 0.179424
H36   H     H_    0.944969 0.390461 0.992768 0.179203
H37   H     H_    0.609539 0.055028 0.007249 0.179424
H38   H     H_    0.055031 0.390461 0.007232 0.179203
H39   H     H_    0.390461 0.944972 0.007249 0.179424
H40   H     H_    0.944969 0.609539 0.007232 0.179203
H41   H     H_    0.109539 0.444972 0.492751 0.179423
H42   H     H_    0.555031 0.109539 0.492768 0.179203
H43   H     H_    0.890461 0.555028 0.492751 0.179424
H44   H     H_    0.444969 0.890461 0.492768 0.179203
H45   H     H_    0.109539 0.555028 0.507249 0.179424
H46   H     H_    0.555031 0.890461 0.507232 0.179202
H47   H     H_    0.890461 0.444972 0.507249 0.179424
H48   H     H_    0.444969 0.109539 0.507232 0.179202
C257  C     C_R   0.604857 0.000000 1.000000 -0.039559
C258  C     C_R   1.000000 0.604857 1.000000 -0.039334
C259  C     C_R   0.395143 0.000000 0.000000 -0.039560
C260  C     C_R   0.000000 0.395143 1.000000 -0.039334
C261  C     C_R   0.104857 0.500000 0.500000 -0.039559
C262  C     C_R   0.500000 0.104857 0.500000 -0.039331
C263  C     C_R   0.895143 0.500000 0.500000 -0.039559
C264  C     C_R   0.500000 0.895143 0.500000 -0.039331
C265  C     C_R   0.676566 0.000000 1.000000 0.196113
C266  C     C_R   0.000000 0.676566 1.000000 0.195997
C267  C     C_R   0.323433 1.000000 0.000000 0.196112
C268  C     C_R   1.000000 0.323433 1.000000 0.195997
C269  C     C_R   0.176566 0.500000 0.500000 0.196113
C270  C     C_R   0.500000 0.176566 0.500000 0.195997
C271  C     C_R   0.823433 0.500000 0.500000 0.196113
C272  C     C_R   0.500000 0.823433 0.500000 0.195997
C273  C     C_1   0.544452 0.914420 0.720713 0.308601
N9    N     N_1   0.556239 0.890734 0.709401 -0.106596
C274  C     C_1   0.955387 0.414474 0.720611 0.308519
N10   N     N_1   0.943388 0.390881 0.709319 -0.109127
C275  C     C_1   0.455548 0.085580 0.720713 0.308601
N11   N     N_1   0.443761 0.109265 0.709401 -0.106595
C276  C     C_1   0.044612 0.585526 0.720612 0.308518
N12   N     N_1   0.056611 0.609119 0.709319 -0.109126
C277  C     C_1   0.544485 0.085562 0.279287 0.308603
N13   N     N_1   0.556282 0.109243 0.290599 -0.106598
C278  C     C_1   0.955436 0.585552 0.279388 0.308516
N14   N     N_1   0.943451 0.609152 0.290681 -0.109126
C279  C     C_1   0.455515 0.914438 0.279287 0.308603
N15   N     N_1   0.443717 0.890757 0.290599 -0.106598
C280  C     C_1   0.044564 0.414448 0.279388 0.308517
N16   N     N_1   0.056549 0.390848 0.290681 -0.109126
C281  C     C_1   0.044421 0.414405 0.220713 0.308598
N17   N     N_1   0.056200 0.390714 0.209401 -0.106593
C282  C     C_1   0.455372 0.914482 0.220612 0.308518
N18   N     N_1   0.443368 0.890891 0.209319 -0.109126
C283  C     C_1   0.955579 0.585595 0.220713 0.308600
N19   N     N_1   0.943800 0.609286 0.209401 -0.106593
C284  C     C_1   0.544628 0.085518 0.220612 0.308517
N20   N     N_1   0.556632 0.109109 0.209319 -0.109126
C285  C     C_1   0.044469 0.585570 0.779287 0.308603
N21   N     N_1   0.056262 0.609254 0.790599 -0.106597
C286  C     C_1   0.455405 0.085536 0.779388 0.308518
N22   N     N_1   0.443412 0.109131 0.790681 -0.109127
C287  C     C_1   0.955530 0.414430 0.779287 0.308602
N23   N     N_1   0.943737 0.390747 0.790599 -0.106597
C288  C     C_1   0.544595 0.914464 0.779388 0.308517
N24   N     N_1   0.556589 0.890868 0.790681 -0.109126
Cl1   Cl    Cl    0.556165 0.044425 0.916055 -0.523330
Cl2   Cl    Cl    0.955579 0.556160 0.916059 -0.522927
Cl3   Cl    Cl    0.443834 0.955575 0.916055 -0.523329
Cl4   Cl    Cl    0.044421 0.443839 0.916059 -0.522927
Cl5   Cl    Cl    0.556164 0.955574 0.083945 -0.523330
Cl6   Cl    Cl    0.955570 0.443847 0.083941 -0.522920
Cl7   Cl    Cl    0.443835 0.044426 0.083945 -0.523329
Cl8   Cl    Cl    0.044430 0.556153 0.083941 -0.522921
Cl9   Cl    Cl    0.056167 0.544423 0.416056 -0.523330
Cl10  Cl    Cl    0.455582 0.056163 0.416059 -0.522930
Cl11  Cl    Cl    0.943833 0.455577 0.416056 -0.523330
Cl12  Cl    Cl    0.544418 0.943837 0.416059 -0.522930
Cl13  Cl    Cl    0.056165 0.455575 0.583945 -0.523330
Cl14  Cl    Cl    0.455576 0.943842 0.583941 -0.522926
Cl15  Cl    Cl    0.943835 0.544425 0.583945 -0.523330
Cl16  Cl    Cl    0.544424 0.056158 0.583941 -0.522926
C289  C     C_1   0.895786 0.054501 0.027654 0.320948
N25   N     N_1   0.910495 0.076754 0.038599 -0.145900
C290  C     C_1   0.945488 0.895787 0.027640 0.320942
N26   N     N_1   0.923232 0.910496 0.038579 -0.145897
C291  C     C_1   0.104214 0.945499 0.027654 0.320948
N27   N     N_1   0.089505 0.923246 0.038599 -0.145900
C292  C     C_1   0.054512 0.104213 0.027640 0.320941
N28   N     N_1   0.076768 0.089504 0.038579 -0.145896
C293  C     C_1   0.895786 0.945498 0.972346 0.320948
N29   N     N_1   0.910495 0.923246 0.961401 -0.145899
C294  C     C_1   0.945488 0.104213 0.972360 0.320941
N30   N     N_1   0.923232 0.089503 0.961421 -0.145896
C295  C     C_1   0.104214 0.054501 0.972346 0.320948
N31   N     N_1   0.089504 0.076754 0.961401 -0.145900
C296  C     C_1   0.054512 0.895787 0.972360 0.320941
N32   N     N_1   0.076768 0.910496 0.961421 -0.145896
C297  C     C_1   0.395786 0.554501 0.527654 0.320948
N33   N     N_1   0.410495 0.576754 0.538599 -0.145899
C298  C     C_1   0.445488 0.395787 0.527640 0.320941
N34   N     N_1   0.423232 0.410496 0.538579 -0.145896
C299  C     C_1   0.604214 0.445499 0.527654 0.320948
N35   N     N_1   0.589504 0.423246 0.538599 -0.145899
C300  C     C_1   0.554512 0.604213 0.527640 0.320941
N36   N     N_1   0.576768 0.589504 0.538579 -0.145897
C301  C     C_1   0.395786 0.445499 0.472345 0.320948
N37   N     N_1   0.410495 0.423246 0.461401 -0.145899
C302  C     C_1   0.445488 0.604213 0.472360 0.320941
N38   N     N_1   0.423232 0.589503 0.461421 -0.145896
C303  C     C_1   0.604214 0.554501 0.472345 0.320948
N39   N     N_1   0.589505 0.576754 0.461401 -0.145900
C304  C     C_1   0.554512 0.395787 0.472360 0.320941
N40   N     N_1   0.576768 0.410496 0.461421 -0.145896
Cl17  Cl    Cl    0.818412 0.060274 0.030709 -0.535867
Cl18  Cl    Cl    0.939713 0.818413 0.030691 -0.535682
Cl19  Cl    Cl    0.181588 0.939726 0.030709 -0.535867
Cl20  Cl    Cl    0.060287 0.181587 0.030691 -0.535681
Cl21  Cl    Cl    0.818412 0.939726 0.969291 -0.535867
Cl22  Cl    Cl    0.939713 0.181587 0.969309 -0.535681
Cl23  Cl    Cl    0.181588 0.060274 0.969291 -0.535867
Cl24  Cl    Cl    0.060287 0.818413 0.969309 -0.535682
Cl25  Cl    Cl    0.318412 0.560274 0.530709 -0.535867
Cl26  Cl    Cl    0.439713 0.318412 0.530690 -0.535681
Cl27  Cl    Cl    0.681588 0.439726 0.530709 -0.535867
Cl28  Cl    Cl    0.560287 0.681587 0.530691 -0.535681
Cl29  Cl    Cl    0.318412 0.439726 0.469291 -0.535867
Cl30  Cl    Cl    0.439713 0.681587 0.469309 -0.535681
Cl31  Cl    Cl    0.681588 0.560274 0.469291 -0.535867
Cl32  Cl    Cl    0.560287 0.318413 0.469309 -0.535681
C305  C     C_1   0.786534 0.029254 0.953250 0.367148
N41   N     N_1   0.801436 0.041128 0.934380 -0.114412
C306  C     C_1   0.970782 0.786534 0.953235 0.367228
N42   N     N_1   0.958923 0.801435 0.934359 -0.114322
C307  C     C_1   0.213466 0.970747 0.953250 0.367148
N43   N     N_1   0.198564 0.958873 0.934380 -0.114412
C308  C     C_1   0.029217 0.213466 0.953235 0.367227
N44   N     N_1   0.041077 0.198564 0.934359 -0.114321
C309  C     C_1   0.786534 0.970746 0.046750 0.367148
N45   N     N_1   0.801436 0.958872 0.065619 -0.114412
C310  C     C_1   0.970782 0.213466 0.046765 0.367227
N46   N     N_1   0.958922 0.198565 0.065641 -0.114321
C311  C     C_1   0.213466 0.029253 0.046750 0.367148
N47   N     N_1   0.198564 0.041127 0.065620 -0.114412
C312  C     C_1   0.029217 0.786534 0.046765 0.367227
N48   N     N_1   0.041077 0.801435 0.065641 -0.114321
C313  C     C_1   0.286534 0.529254 0.453250 0.367148
N49   N     N_1   0.301436 0.541128 0.434380 -0.114412
C314  C     C_1   0.470783 0.286534 0.453235 0.367227
N50   N     N_1   0.458923 0.301435 0.434359 -0.114321
C315  C     C_1   0.713466 0.470746 0.453250 0.367148
N51   N     N_1   0.698564 0.458872 0.434381 -0.114412
C316  C     C_1   0.529218 0.713466 0.453235 0.367227
N52   N     N_1   0.541077 0.698564 0.434359 -0.114322
C317  C     C_1   0.286534 0.470746 0.546750 0.367148
N53   N     N_1   0.301436 0.458872 0.565619 -0.114412
C318  C     C_1   0.470782 0.713466 0.546765 0.367228
N54   N     N_1   0.458922 0.698565 0.565641 -0.114322
C319  C     C_1   0.713466 0.529254 0.546750 0.367148
N55   N     N_1   0.698564 0.541128 0.565620 -0.114411
C320  C     C_1   0.529217 0.286534 0.546765 0.367227
N56   N     N_1   0.541077 0.301435 0.565641 -0.114321
Cl33  Cl    Cl    0.709186 0.031193 0.947426 -0.518953
Cl34  Cl    Cl    0.968850 0.709186 0.947409 -0.517571
Cl35  Cl    Cl    0.290814 0.968808 0.947426 -0.518954
Cl36  Cl    Cl    0.031150 0.290814 0.947409 -0.517570
Cl37  Cl    Cl    0.709186 0.968807 0.052573 -0.518953
Cl38  Cl    Cl    0.968850 0.290814 0.052590 -0.517573
Cl39  Cl    Cl    0.290814 0.031192 0.052574 -0.518953
Cl40  Cl    Cl    0.031150 0.709186 0.052590 -0.517574
Cl41  Cl    Cl    0.209186 0.531192 0.447426 -0.518953
Cl42  Cl    Cl    0.468850 0.209185 0.447409 -0.517570
Cl43  Cl    Cl    0.790814 0.468807 0.447426 -0.518953
Cl44  Cl    Cl    0.531150 0.790814 0.447410 -0.517570
Cl45  Cl    Cl    0.209186 0.468808 0.552573 -0.518953
Cl46  Cl    Cl    0.468850 0.790815 0.552590 -0.517572
Cl47  Cl    Cl    0.790814 0.531192 0.552574 -0.518953
Cl48  Cl    Cl    0.531150 0.209185 0.552590 -0.517572

loop_
_geom_bond_atom_site_label_1
_geom_bond_atom_site_label_2
_geom_bond_distance
_ccdc_geom_bond_type
C284  N20   1.157748 T    
O25   C13   1.285121 A    
C291  N27   1.157424 T    
C320  N56   1.157260 T    
C79   C95   1.392725 A    
C292  N28   1.157428 T    
C141  C301  1.449236 S    
C134  C150  1.398104 A    
C255  H47   1.082972 S    
C297  N33   1.157426 T    
C4    C260  1.460242 S    
O49   Zn9   2.013181 S    
C314  N50   1.157260 T    
C59   C275  1.456026 S    
N7    C114  1.432196 S    
C253  H45   1.082972 S    
C138  C154  1.398108 A    
C38   C62   1.421028 A    
O21   Zn3   2.012125 S    
C43   C53   1.422818 A    
O18   Zn2   2.012129 S    
C178  C306  1.448470 S    
C225  C265  1.397894 A    
C88   C120  1.397598 A    
C188  C316  1.448464 S    
O32   C16   1.285125 A    
C186  C314  1.448465 S    
C283  N19   1.157749 T    
O24   Zn4   2.012125 S    
O62   C126  1.279597 A    
C198  C212  1.406678 A    
C129  C169  1.410006 A    
C250  H42   1.082967 S    
O19   Zn3   2.012129 S    
O54   Zn10  2.013188 S    
C28   C42   1.415274 A    
C17   C35   1.415256 A    
C75   C91   1.392725 A    
C206  Cl46  1.772026 S    
C19   N1    1.360223 A    
C192  C320  1.448468 S    
C39   C51   1.422818 A    
C130  C146  1.398108 A    
C44   C54   1.423249 A    
C188  C224  1.407902 A    
C32   C46   1.415269 A    
O15   C7    1.286084 A    
C74   H2    1.083242 S    
C156  C168  1.404569 A    
C46   C56   1.423248 A    
C232  C248  1.389050 A    
C23   C37   1.415255 A    
C34   C50   1.423247 A    
C102  C112  1.410633 A    
C78   H6    1.083239 S    
O63   C125  1.279597 A    
C241  C257  1.403943 A    
C228  H20   1.083468 S    
C204  C216  1.406683 A    
O50   Zn9   2.013189 S    
C256  C262  1.403945 A    
C41   C65   1.420998 A    
O55   C121  1.279597 A    
C122  C169  1.457055 S    
C190  C206  1.398149 A    
C91   C105  1.410913 A    
C133  C149  1.398106 A    
C294  N30   1.157427 T    
C89   C105  1.410909 A    
C153  Cl25  1.771593 S    
C238  C254  1.389050 A    
O17   C9    1.285121 A    
C22   O38   1.348885 S    
C177  C305  1.448466 S    
C130  C170  1.410005 A    
C47   C71   1.420995 A    
C22   C40   1.415274 A    
O64   C128  1.279598 A    
C178  C218  1.407903 A    
C82   H10   1.083240 S    
C25   O41   1.348896 S    
C11   C107  1.460712 S    
O59   C127  1.279601 A    
C138  C298  1.449235 S    
C245  H37   1.082972 S    
O53   Zn10  2.013185 S    
C181  C217  1.407901 A    
C199  C211  1.406688 A    
C44   C68   1.421028 A    
C137  C297  1.449235 S    
C150  C164  1.404573 A    
C186  C222  1.407910 A    
C183  C219  1.407899 A    
C85   C119  1.396464 A    
C239  C271  1.397890 A    
C77   H5    1.083205 S    
C140  C300  1.449234 S    
O26   Zn6   2.012129 S    
O7    C3    1.286084 A    
C48   C56   1.423248 A    
C139  C155  1.398106 A    
C98   Cl10  1.763025 S    
C81   C117  1.396462 A    
C160  C166  1.404572 A    
O27   C13   1.285121 A    
O51   Zn9   2.013186 S    
O31   C15   1.285121 A    
C254  H46   1.082971 S    
N3    C118  1.432196 S    
C25   C43   1.415257 A    
C128  C175  1.457055 S    
C154  C166  1.404572 A    
C41   C53   1.422820 A    
C131  C147  1.398106 A    
C29   C47   1.415256 A    
C189  C205  1.398148 A    
C226  C242  1.389050 A    
C31   C45   1.415256 A    
C37   C61   1.420995 A    
C235  C251  1.389048 A    
C241  H33   1.082972 S    
C164  C220  1.466324 S    
O61   Zn12  2.013185 S    
C273  N9    1.157746 T    
C204  Cl44  1.772027 S    
O9    C5    1.286084 A    
C313  N49   1.157261 T    
C81   H9    1.083205 S    
C87   H15   1.083204 S    
O11   C7    1.286084 A    
C209  C265  1.457525 S    
C42   C66   1.421028 A    
O4    C4    1.286087 A    
C183  C199  1.398148 A    
C39   C63   1.420997 A    
C100  Cl12  1.763025 S    
C30   O46   1.348886 S    
O5    Zn3   2.012842 S    
C100  C110  1.410633 A    
C275  N11   1.157748 T    
C104  Cl16  1.763026 S    
C135  C171  1.410006 A    
C147  C163  1.404569 A    
C75   C113  1.396461 A    
C151  C163  1.404566 A    
C148  C164  1.404571 A    
C281  N17   1.157751 T    
O58   C126  1.279602 A    
C213  C269  1.457525 S    
C142  C302  1.449233 S    
O61   C127  1.279597 A    
C92   Cl4   1.763026 S    
C280  N16   1.157751 T    
C144  C160  1.398108 A    
C278  N14   1.157750 T    
C158  C168  1.404573 A    
C45   C55   1.422819 A    
C31   N7    1.360225 A    
C189  C221  1.407903 A    
C285  N21   1.157744 T    
C187  C223  1.407904 A    
C89   Cl1   1.762990 S    
O64   Zn12  2.013185 S    
C237  H29   1.083472 S    
C135  C295  1.449233 S    
C70   C286  1.455992 S    
O63   Zn12  2.013182 S    
C197  Cl37  1.772028 S    
N4    C117  1.429881 S    
C179  C195  1.398148 A    
C80   H8    1.083239 S    
C144  C304  1.449234 S    
C141  C173  1.410006 A    
C200  Cl40  1.772028 S    
C82   C98   1.392648 A    
C249  C261  1.403943 A    
O14   C8    1.286087 A    
C64   C280  1.455990 S    
C182  C220  1.407905 A    
C42   C54   1.423245 A    
C58   C274  1.455989 S    
C21   C39   1.415260 A    
O56   Zn10  2.013185 S    
O60   Zn11  2.013185 S    
C286  N22   1.157746 T    
O17   Zn1   2.012130 S    
C99   C109  1.410909 A    
C57   C72   1.405881 A    
O28   C14   1.285125 A    
O26   C14   1.285125 A    
O29   C15   1.285121 A    
O8    Zn4   2.012840 S    
C59   C70   1.405885 A    
O30   C16   1.285125 A    
C242  H34   1.082970 S    
C152  C162  1.404572 A    
C129  C145  1.398106 A    
C317  N53   1.157260 T    
C94   Cl6   1.763029 S    
C225  H17   1.083469 S    
C144  C174  1.410002 A    
C238  H30   1.083470 S    
C236  C252  1.389050 A    
C93   Cl5   1.762989 S    
C45   C69   1.420999 A    
C136  C152  1.398108 A    
C151  Cl23  1.771595 S    
C136  C170  1.410001 A    
C150  Cl22  1.771591 S    
C167  C223  1.466322 S    
C303  N39   1.157424 T    
C129  C289  1.449235 S    
C24   N4    1.359260 A    
C183  C311  1.448466 S    
C33   C57   1.420998 A    
C140  C156  1.398108 A    
C84   H12   1.083242 S    
C85   H13   1.083206 S    
C26   C44   1.415269 A    
O6    Zn2   2.012843 S    
C62   C278  1.455990 S    
C185  C201  1.398148 A    
C132  C148  1.398108 A    
C82   C118  1.397598 A    
C30   C48   1.415269 A    
O16   Zn8   2.012840 S    
C37   C51   1.422823 A    
C195  Cl35  1.772023 S    
O55   Zn10  2.013182 S    
C304  N40   1.157426 T    
C63   C279  1.456026 S    
C75   H3    1.083205 S    
C67   C283  1.456026 S    
C80   C96   1.392649 A    
C131  C291  1.449234 S    
C319  N55   1.157262 T    
C234  C250  1.389050 A    
C159  Cl31  1.771592 S    
C8    C264  1.460242 S    
O3    C3    1.286084 A    
C157  Cl29  1.771591 S    
C232  H24   1.083469 S    
C199  Cl39  1.772028 S    
C249  H41   1.082972 S    
C255  C263  1.403944 A    
C251  H43   1.082972 S    
C253  C261  1.403940 A    
C29   N7    1.360223 A    
C236  H28   1.083469 S    
C310  N46   1.157262 T    
C226  H18   1.083470 S    
C233  C269  1.397894 A    
C57   C273  1.456028 S    
C18   N2    1.359261 A    
C245  C257  1.403941 A    
O60   C128  1.279601 A    
C7    C263  1.460244 S    
C228  C268  1.397885 A    
C93   C107  1.410913 A    
C210  C266  1.457523 S    
C60   C69   1.405881 A    
C137  C173  1.410006 A    
C316  N52   1.157260 T    
C214  C270  1.457523 S    
C87   C103  1.392725 A    
C80   C116  1.397599 A    
C216  C272  1.457523 S    
O12   C8    1.286087 A    
O1    C1    1.286084 A    
C230  H22   1.083469 S    
O52   Zn9   2.013185 S    
C32   N8    1.359259 A    
C226  C266  1.397885 A    
C83   H11   1.083207 S    
O13   C5    1.286084 A    
C46   C70   1.421028 A    
C23   N3    1.360223 A    
C52   C53   1.419400 A    
C180  C196  1.398149 A    
C34   C58   1.421026 A    
C97   Cl9   1.762989 S    
C95   C107  1.410911 A    
O29   Zn7   2.012125 S    
C236  C272  1.397885 A    
C207  C215  1.406687 A    
C180  C220  1.407904 A    
C146  Cl18  1.771592 S    
C202  C214  1.406680 A    
C312  N48   1.157260 T    
C215  C271  1.457525 S    
C232  C266  1.397888 A    
C231  C247  1.389048 A    
C277  N13   1.157745 T    
C143  C175  1.410006 A    
C58   C71   1.405881 A    
C187  C315  1.448465 S    
O57   C125  1.279601 A    
C133  C293  1.449236 S    
C252  C264  1.403946 A    
C302  N38   1.157428 T    
C147  Cl19  1.771593 S    
C22   N4    1.359258 A    
C251  C263  1.403941 A    
C86   C102  1.392648 A    
O10   C6    1.286087 A    
N8    C113  1.429881 S    
C168  C224  1.466328 S    
C201  C213  1.406686 A    
O52   C124  1.279601 A    
O15   Zn5   2.012846 S    
C137  C153  1.398106 A    
C28   N6    1.359257 A    
C208  Cl48  1.772027 S    
C139  C175  1.410006 A    
C1    C257  1.460244 S    
C309  N45   1.157260 T    
C98   C110  1.410628 A    
C192  C222  1.407902 A    
O5    C1    1.286084 A    
C50   C55   1.419400 A    
N1    C120  1.432201 S    
C205  C213  1.406687 A    
C77   C115  1.396460 A    
C69   C285  1.456029 S    
C28   O44   1.348880 S    
C230  C268  1.397889 A    
C36   C50   1.423248 A    
C61   C68   1.405881 A    
C198  Cl38  1.772032 S    
O53   C123  1.279597 A    
O32   Zn8   2.012125 S    
C27   N5    1.360226 A    
C104  C112  1.410628 A    
C83   C99   1.392725 A    
C96   C108  1.410633 A    
C254  C264  1.403942 A    
C38   C52   1.423251 A    
C146  C162  1.404572 A    
C193  C209  1.406687 A    
C246  C260  1.403942 A    
O22   Zn2   2.012125 S    
C145  C161  1.404567 A    
C290  N26   1.157425 T    
C84   C100  1.392644 A    
O21   C11   1.285124 A    
C85   C101  1.392720 A    
O22   C12   1.285125 A    
O23   Zn1   2.012125 S    
C24   C38   1.415270 A    
C88   H16   1.083243 S    
C74   C114  1.397599 A    
C19   O35   1.348896 S    
C26   N6    1.359257 A    
C243  H35   1.082968 S    
C18   O34   1.348886 S    
C235  H27   1.083472 S    
C30   N8    1.359257 A    
C154  Cl26  1.771592 S    
C239  C255  1.389048 A    
C250  C262  1.403945 A    
C136  C296  1.449235 S    
C211  C267  1.457525 S    
C190  C224  1.407905 A    
O3    Zn3   2.012846 S    
C135  C151  1.398106 A    
C71   C287  1.456029 S    
C293  N29   1.157426 T    
C95   Cl7   1.762991 S    
C184  C200  1.398149 A    
O8    C2    1.286087 A    
C233  H25   1.083472 S    
C202  Cl42  1.772026 S    
C298  N34   1.157428 T    
C301  N37   1.157426 T    
O28   Zn8   2.012130 S    
C25   N5    1.360229 A    
C229  C245  1.389048 A    
C256  H48   1.082971 S    
C5    C261  1.460244 S    
C306  N42   1.157258 T    
C61   C277  1.456029 S    
C246  H38   1.082971 S    
C157  C165  1.404571 A    
C143  C159  1.398106 A    
C130  C290  1.449235 S    
C134  C172  1.410004 A    
C197  C209  1.406687 A    
C40   C52   1.423247 A    
C231  C267  1.397889 A    
C185  C221  1.407903 A    
C91   Cl3   1.762991 S    
C72   C288  1.455992 S    
C191  C207  1.398148 A    
C83   C117  1.396463 A    
O9    Zn5   2.012843 S    
C181  C197  1.398148 A    
O11   Zn7   2.012846 S    
C227  C243  1.389048 A    
O16   C6    1.286087 A    
C244  C260  1.403946 A    
C189  C317  1.448466 S    
C242  C258  1.403943 A    
C186  C202  1.398149 A    
C180  C308  1.448466 S    
C19   C33   1.415256 A    
C238  C272  1.397888 A    
C79   H7    1.083205 S    
C225  C241  1.389048 A    
C121  C172  1.457045 S    
O6    C4    1.286087 A    
C248  H40   1.082970 S    
C86   C120  1.397599 A    
C156  Cl28  1.771594 S    
C148  Cl20  1.771593 S    
C126  C173  1.457055 S    
C142  C176  1.410004 A    
C203  Cl43  1.772028 S    
C133  C169  1.410006 A    
C101  C111  1.410912 A    
O50   C122  1.279602 A    
O31   Zn5   2.012125 S    
C127  C174  1.457045 S    
C234  H26   1.083470 S    
C36   C60   1.421028 A    
C43   C67   1.420998 A    
C96   Cl8   1.763023 S    
C63   C66   1.405881 A    
O18   C10   1.285125 A    
C15   C111  1.460717 S    
C165  C221  1.466322 S    
C16   C112  1.460731 S    
C49   C56   1.419400 A    
C159  C167  1.404568 A    
C234  C270  1.397884 A    
O49   C121  1.279601 A    
C40   C64   1.421030 A    
C51   C54   1.419405 A    
N2    C119  1.429877 S    
C196  Cl36  1.772030 S    
C35   C49   1.422823 A    
C276  N12   1.157746 T    
C244  H36   1.082972 S    
O57   Zn11  2.013181 S    
C138  C174  1.410002 A    
C76   C114  1.397597 A    
C62   C67   1.405885 A    
C160  Cl32  1.771590 S    
C68   C284  1.455989 S    
O13   Zn7   2.012842 S    
C178  C194  1.398149 A    
O56   C124  1.279598 A    
C74   C90   1.392644 A    
O58   Zn11  2.013189 S    
O23   C11   1.285123 A    
C205  Cl45  1.772027 S    
C247  H39   1.082968 S    
C279  N15   1.157746 T    
C308  N44   1.157260 T    
C78   C94   1.392644 A    
C229  C265  1.397891 A    
C21   N3    1.360224 A    
C81   C97   1.392725 A    
C307  N43   1.157259 T    
C155  C167  1.404571 A    
O4    Zn4   2.012843 S    
C35   C59   1.420995 A    
N5    C116  1.432201 S    
C182  C310  1.448465 S    
C31   O47   1.348895 S    
C252  H44   1.082971 S    
C32   O48   1.348886 S    
C230  C246  1.389050 A    
C248  C258  1.403945 A    
C17   N1    1.360226 A    
C318  N54   1.157259 T    
C132  C292  1.449232 S    
C27   C41   1.415253 A    
C201  Cl41  1.772029 S    
C125  C176  1.457045 S    
C311  N47   1.157261 T    
C20   N2    1.359258 A    
C134  C294  1.449233 S    
C20   O36   1.348882 S    
C124  C171  1.457055 S    
C243  C259  1.403943 A    
C94   C108  1.410632 A    
C73   H1    1.083205 S    
C20   C34   1.415274 A    
C194  Cl34  1.772026 S    
C195  C211  1.406689 A    
C92   C106  1.410634 A    
C196  C212  1.406683 A    
O30   Zn6   2.012125 S    
C247  C259  1.403946 A    
C274  N10   1.157746 T    
O54   C122  1.279597 A    
C88   C104  1.392649 A    
O2    Zn2   2.012839 S    
C315  N51   1.157262 T    
C142  C158  1.398104 A    
C73   C89   1.392725 A    
C192  C208  1.398145 A    
C231  H23   1.083472 S    
C10   C106  1.460727 S    
C179  C219  1.407903 A    
C79   C115  1.396458 A    
C76   C92   1.392649 A    
C187  C203  1.398148 A    
C77   C93   1.392725 A    
C188  C204  1.398149 A    
C90   C106  1.410632 A    
C60   C276  1.455986 S    
C14   C110  1.460727 S    
O10   Zn6   2.012839 S    
C64   C65   1.405881 A    
C2    C258  1.460242 S    
C149  Cl21  1.771591 S    
C166  C222  1.466324 S    
O25   Zn5   2.012130 S    
C73   C113  1.396462 A    
C86   H14   1.083237 S    
C97   C109  1.410909 A    
C47   C55   1.422820 A    
O27   Zn7   2.012129 S    
C87   C119  1.396464 A    
C99   Cl11  1.762990 S    
O7    Zn1   2.012846 S    
C282  N18   1.157747 T    
C181  C309  1.448466 S    
C235  C271  1.397894 A    
C228  C244  1.389050 A    
C24   O40   1.348884 S    
C299  N35   1.157426 T    
C141  C157  1.398106 A    
C203  C215  1.406689 A    
C140  C176  1.410002 A    
C131  C171  1.410007 A    
C300  N36   1.157425 T    
C207  Cl47  1.772027 S    
C18   C36   1.415269 A    
O19   C9    1.285121 A    
C185  C313  1.448466 S    
C296  N32   1.157425 T    
C194  C210  1.406682 A    
C191  C223  1.407897 A    
C184  C312  1.448466 S    
C163  C219  1.466322 S    
C132  C172  1.410004 A    
C295  N31   1.157427 T    
O24   C12   1.285125 A    
C240  H32   1.083469 S    
C9    C105  1.460712 S    
C66   C282  1.455987 S    
C145  Cl17  1.771593 S    
C233  C249  1.389048 A    
C158  Cl30  1.771594 S    
C102  Cl14  1.763025 S    
O12   Zn8   2.012843 S    
C208  C214  1.406685 A    
C12   C108  1.460731 S    
C227  H19   1.083471 S    
C13   C109  1.460708 S    
O14   Zn6   2.012843 S    
C76   H4    1.083242 S    
C190  C318  1.448466 S    
C21   O37   1.348894 S    
C3    C259  1.460244 S    
C152  Cl24  1.771589 S    
O62   Zn12  2.013188 S    
C182  C198  1.398149 A    
C6    C262  1.460242 S    
C29   O45   1.348896 S    
C139  C299  1.449234 S    
C177  C217  1.407899 A    
C48   C72   1.421030 A    
C27   O43   1.348898 S    
O2    C2    1.286087 A    
C103  C111  1.410908 A    
C227  C267  1.397893 A    
C103  Cl15  1.762991 S    
C155  Cl27  1.771592 S    
C240  C270  1.397888 A    
C101  Cl13  1.762991 S    
C237  C269  1.397891 A    
O51   C123  1.279601 A    
C123  C170  1.457045 S    
C206  C216  1.406682 A    
C162  C218  1.466324 S    
C229  H21   1.083472 S    
C179  C307  1.448466 S    
C90   Cl2   1.763026 S    
C65   C281  1.456029 S    
O20   Zn4   2.012130 S    
C84   C118  1.397598 A    
C33   C49   1.422820 A    
O20   C10   1.285125 A    
C153  C165  1.404567 A    
C143  C303  1.449236 S    
N6    C115  1.429881 S    
C289  N25   1.157424 T    
C161  C217  1.466322 S    
O59   Zn11  2.013186 S    
C17   O33   1.348895 S    
C288  N24   1.157748 T    
C212  C268  1.457523 S    
C200  C210  1.406680 A    
C177  C193  1.398148 A    
C240  C256  1.389050 A    
C287  N23   1.157744 T    
C191  C319  1.448466 S    
C237  C253  1.389048 A    
C78   C116  1.397600 A    
C239  H31   1.083472 S    
C149  C161  1.404571 A    
C305  N41   1.157261 T    
O1    Zn1   2.012843 S    
C23   O39   1.348895 S    
C193  Cl33  1.772028 S    
C26   O42   1.348885 S    
C184  C218  1.407907 A    
