data_mof_unit_10700.cif
_audit_creation_date              2012-12-11T14:03:21-0500
_audit_creation_method            fapswitch 2.2
_symmetry_space_group_name_H-M    P1
_symmetry_Int_Tables_number       1
_space_group_crystal_system       triclinic
_cell_length_a                    6.946166
_cell_length_b                    11.618076
_cell_length_c                    18.718208
_cell_angle_alpha                 90.020727
_cell_angle_beta                  92.66832
_cell_angle_gamma                 90.045406
_cell_volume                      1508.94127319

loop_
_atom_site_label
_atom_site_type_symbol
_atom_type_description
_atom_site_fract_x
_atom_site_fract_y
_atom_site_fract_z
_atom_type_partial_charge
O1    O     O_R   0.330540 0.606360 0.598870 -0.547978
O2    O     O_R   0.669460 0.106360 0.401130 -0.551923
O3    O     O_R   0.026770 0.620470 0.750430 -0.542548
O4    O     O_R   0.973230 0.120470 0.249570 -0.540389
O5    O     O_R   0.856460 0.393640 0.750930 -0.530672
O6    O     O_R   0.143540 0.893640 0.249070 -0.527922
C1    C     C_R   0.198367 0.642335 0.777128 0.808803
C2    C     C_R   0.801699 0.142473 0.222956 0.811885
O7    O     O_R   0.000920 0.620350 0.599420 -0.530880
O8    O     O_R   0.999080 0.120350 0.400580 -0.533277
O9    O     O_R   0.830430 0.393520 0.598850 -0.524755
O10   O     O_R   0.169570 0.893520 0.401150 -0.528281
C3    C     C_R   0.166428 0.644592 0.573191 0.769612
C4    C     C_R   0.832714 0.150204 0.423824 0.740134
O11   O     O_R   0.356570 0.606480 0.750960 -0.540803
O12   O     O_R   0.643430 0.106480 0.249040 -0.540369
O13   O     O_3   0.176990 0.425580 0.674890 -0.354951
O14   O     O_3   0.823010 0.925580 0.325110 -0.347176
V1    V     V_3+5 0.902170 0.513810 0.674910 1.530898
V2    V     V_3+5 0.097830 0.013810 0.325090 1.539505
O15   O     O_R   0.500800 0.379530 0.599380 -0.539733
O16   O     O_R   0.499200 0.879530 0.400620 -0.538575
C5    C     C_R   0.667542 0.353653 0.573739 0.800991
C6    C     C_R   0.331920 0.850799 0.424684 0.784948
O17   O     O_R   0.526650 0.379650 0.750390 -0.530029
O18   O     O_R   0.473350 0.879650 0.249610 -0.527309
C7    C     C_R   0.698388 0.351461 0.773407 0.710759
C8    C     C_R   0.301503 0.851181 0.226758 0.722418
V3    V     V_3+5 0.402160 0.486190 0.674900 1.530595
V4    V     V_3+5 0.597840 0.986190 0.325100 1.540610
O19   O     O_3   0.677210 0.574420 0.674910 -0.383625
O20   O     O_3   0.322790 0.074420 0.325090 -0.381072
C9    C     C_R   0.731515 0.072846 0.872133 -0.088157
C10   C     C_R   0.266797 0.572454 0.128013 -0.092875
H1    H     H_    0.709840 0.120914 0.761552 0.101365
H2    H     H_    0.288305 0.620594 0.238630 0.119083
H3    H     H_    0.758794 0.939919 0.983704 0.157729
H4    H     H_    0.239570 0.439532 0.016313 0.158330
H5    H     H_    0.733631 0.981735 0.859616 0.122282
H6    H     H_    0.264089 0.481352 0.140492 0.124550
C11   C     C_R   0.714349 0.268697 0.831344 0.016442
C12   C     C_R   0.285249 0.768311 0.168862 0.011020
C13   C     C_R   0.785852 0.338896 0.177967 0.127511
C14   C     C_R   0.214566 0.838700 0.822385 0.135420
C15   C     C_R   0.770610 0.419435 0.122881 0.156522
C16   C     C_R   0.228984 0.919166 0.877570 0.158111
C17   C     C_R   0.755421 0.384088 0.052074 -0.211283
C18   C     C_R   0.243662 0.883728 0.948322 -0.211483
C19   C     C_R   0.754873 0.266267 0.033080 0.032423
C20   C     C_R   0.244622 0.765888 0.967179 0.031517
C21   C     C_R   0.770341 0.181939 0.088998 -0.033680
C22   C     C_R   0.229424 0.681615 0.911181 -0.034414
C23   C     C_R   0.740585 0.230289 0.959859 0.116649
C24   C     C_R   0.258816 0.729866 0.040359 0.117719
C25   C     C_R   0.742968 0.111332 0.943330 0.126007
C26   C     C_R   0.255792 0.610922 0.056822 0.123692
C27   C     C_R   0.757405 0.030648 0.997501 -0.190715
C28   C     C_R   0.241328 0.530268 0.002584 -0.191567
C29   C     C_R   0.770941 0.063201 0.068912 0.079915
C30   C     C_R   0.228539 0.562870 0.931180 0.082286
C31   C     C_R   0.724433 0.308171 0.901889 -0.135925
C32   C     C_R   0.275650 0.807731 0.098347 -0.139123
C33   C     C_R   0.718107 0.151434 0.816311 -0.104593
C34   C     C_R   0.280495 0.651069 0.183872 -0.096406
C35   C     C_R   0.785427 0.220882 0.161796 -0.112256
C36   C     C_R   0.214809 0.720647 0.838406 -0.112180
H7    H     H_    0.719357 0.400059 0.908944 0.106395
H8    H     H_    0.281832 0.899592 0.091339 0.106295
H9    H     H_    0.745021 0.452248 0.013297 0.156803
H10   H     H_    0.253060 0.951865 0.987165 0.157799
C37   C     C_2   0.831501 0.244563 0.477133 -0.008051
C38   C     C_2   0.164308 0.717428 0.508181 -0.014446
C39   C     C_2   0.674584 0.265597 0.516297 -0.360554
C40   C     C_2   0.326617 0.770031 0.486175 -0.357052
H11   H     H_    0.546187 0.213170 0.507194 0.142156
H12   H     H_    0.461479 0.757387 0.516892 0.149109
N1    N     N_3   0.801781 0.375866 0.251248 -0.663255
H13   H     H_    0.680409 0.424975 0.261982 0.260240
H14   H     H_    0.924481 0.427542 0.258392 0.263889
N2    N     N_3   0.199462 0.875810 0.749155 -0.686680
H15   H     H_    0.076787 0.927349 0.741911 0.250471
H16   H     H_    0.320951 0.925117 0.738719 0.249172
I1    I     I_    0.770182 0.597378 0.144313 -0.449212
I2    I     I_    0.228483 0.097172 0.856448 -0.467455
I3    I     I_    0.792574 0.916009 0.134653 -0.364807
I4    I     I_    0.207757 0.415783 0.865279 -0.367725
I5    I     I_    0.086549 0.349164 0.480146 -0.354409
I6    I     I_    0.895440 0.714730 0.447518 -0.341483

loop_
_geom_bond_atom_site_label_1
_geom_bond_atom_site_label_2
_ccdc_geom_bond_type
C9    C25   A    
C10   C26   A    
O13   V3    S    
C4    C37   S    
C14   C36   A    
C11   C31   A    
O4    C2    A    
V1    O19   S    
C17   C19   A    
N1    H13   S    
O9    V1    S    
C20   C24   A    
C40   H12   S    
C10   H6    S    
O16   C6    A    
O3    C1    A    
C27   C29   A    
O12   V4    S    
C21   C35   A    
C15   C17   A    
C8    C12   S    
C31   H7    S    
C17   H9    S    
O7    C3    A    
C22   C30   A    
O5    C7    A    
C23   C31   A    
O7    V1    S    
O6    C8    A    
O8    V2    S    
C19   C21   A    
C20   C22   A    
O3    V1    S    
O14   V4    S    
C12   C32   A    
C9    C33   A    
N1    H14   S    
C2    C35   S    
C2    O12   A    
H4    C28   S    
C39   H11   S    
C15   I1    S    
C5    C39   S    
C10   C34   A    
C38   I6    S    
C14   C16   A    
O11   V3    S    
C16   C18   A    
C23   C25   A    
O17   V3    S    
C24   C26   A    
C14   N2    S    
C38   C40   D    
O8    C4    A    
C37   C39   D    
C30   I4    S    
C1    O11   A    
C24   C32   A    
O15   V3    S    
O1    C3    A    
C29   I3    S    
C7    C11   S    
C13   C35   A    
O10   V2    S    
O1    V3    S    
C9    H5    S    
C18   C20   A    
C13   C15   A    
C37   I5    S    
N2    H16   S    
O18   V4    S    
C25   C27   A    
C16   I2    S    
O17   C7    A    
C11   C33   A    
C12   C34   A    
C22   C36   A    
V2    O20   S    
O16   V4    S    
C18   H10   S    
N2    H15   S    
O5    V1    S    
C3    C38   S    
C13   N1    S    
O6    V2    S    
O10   C6    A    
O18   C8    A    
C32   H8    S    
O2    V4    S    
O15   C5    A    
V3    O19   S    
C1    C36   S    
V4    O20   S    
C6    C40   S    
C19   C23   A    
O9    C5    A    
O13   V1    S    
C26   C28   A    
O14   V2    S    
O2    C4    A    
O4    V2    S    
C21   C29   A    
H1    C33   S    
H2    C34   S    
C28   C30   A    
H3    C27   S    
