data_mof_unit_59743.cif
_audit_creation_date              2012-12-10T20:00:03-0500
_audit_creation_method            fapswitch 2.2
_symmetry_space_group_name_H-M    P1
_symmetry_Int_Tables_number       1
_space_group_crystal_system       triclinic
_cell_length_a                    15.008086
_cell_length_b                    14.397094
_cell_length_c                    8.962695
_cell_angle_alpha                 90.000688
_cell_angle_beta                  95.803694
_cell_angle_gamma                 90.000351
_cell_volume                      1926.6682128

loop_
_atom_site_label
_atom_site_type_symbol
_atom_type_description
_atom_site_fract_x
_atom_site_fract_y
_atom_site_fract_z
_atom_type_partial_charge
C1    C     C_R   0.328206 0.500178 0.502839 0.872614
C2    C     C_R   0.454012 0.896207 0.384777 -0.281164
C3    C     C_R   0.499910 0.500009 0.218917 0.932344
C4    C     C_R   0.500089 0.500009 0.781083 0.932117
C5    C     C_R   0.500011 0.052641 0.499971 0.035842
C6    C     C_R   0.500011 0.947199 0.499978 0.037428
C7    C     C_1   0.499978 0.499996 0.065344 -0.106181
C8    C     C_1   0.500019 0.499997 0.934655 -0.106028
C9    C     C_R   0.090988 0.577695 0.448625 -0.169101
C10   C     C_R   0.902752 0.424600 0.436862 -0.139812
C11   C     C_R   0.908996 0.577768 0.551789 -0.169237
C12   C     C_R   0.671800 0.500179 0.497189 0.872191
C13   C     C_R   0.097384 0.424739 0.564291 -0.140037
C14   C     C_R   0.182999 0.578577 0.452782 -0.152693
C15   C     C_R   0.810336 0.425552 0.432536 -0.112045
C16   C     C_R   0.816971 0.578664 0.547297 -0.152433
C17   C     C_R   0.189788 0.425674 0.568272 -0.111898
C18   C     C_R   0.232455 0.501286 0.507938 -0.056103
C19   C     C_R   0.767574 0.501284 0.492336 -0.056787
C20   C     C_R   0.048155 0.500408 0.502762 0.091509
C21   C     C_R   0.951911 0.500376 0.498172 0.091410
C22   C     C_R   0.431203 0.201725 0.421078 0.483803
C23   C     C_R   0.548506 0.798064 0.613526 0.476268
C24   C     C_R   0.568789 0.201723 0.578938 0.483617
C25   C     C_R   0.451499 0.798060 0.386464 0.476305
C26   C     C_R   0.429798 0.103641 0.427190 -0.279722
C27   C     C_R   0.546005 0.896213 0.615193 -0.281189
C28   C     C_R   0.570215 0.103643 0.572776 -0.279537
H1    H     H_    0.288458 0.370787 0.189341 0.366460
H2    H     H_    0.772372 0.367979 0.381127 0.194658
H3    H     H_    0.785162 0.639517 0.588202 0.219869
H4    H     H_    0.227818 0.368179 0.619802 0.194273
H5    H     H_    0.372127 0.066708 0.375066 0.213100
H6    H     H_    0.578662 0.933269 0.710298 0.216188
H7    H     H_    0.627893 0.066722 0.624918 0.213038
H8    H     H_    0.421356 0.933258 0.289664 0.216183
H9    H     H_    0.685081 0.629285 0.853860 0.365986
H10   H     H_    0.711672 0.371363 0.809058 0.366376
H11   H     H_    0.314954 0.629254 0.146124 0.365954
H12   H     H_    0.053141 0.636828 0.401934 0.158652
H13   H     H_    0.935800 0.365728 0.391077 0.163136
H14   H     H_    0.946786 0.636994 0.598263 0.158676
H15   H     H_    0.064399 0.365950 0.610446 0.163030
H16   H     H_    0.214745 0.639336 0.411437 0.219835
N1    N     N_R   0.500000 0.252470 0.500000 -0.214270
N2    N     N_R   0.500000 0.747530 0.500000 -0.209287
O1    O     O_R   0.369060 0.579480 0.500010 -0.580944
O2    O     O_2   0.262467 0.258883 0.415932 -0.320713
O3    O     O_3   0.349473 0.350457 0.228305 -0.529104
O4    O     O_2   0.673227 0.818855 0.848636 -0.290761
O5    O     O_2   0.539837 0.729301 0.883472 -0.232790
O6    O     O_3   0.664718 0.651691 0.751556 -0.569382
O7    O     O_2   0.696318 0.180775 0.807611 -0.278184
O8    O     O_2   0.737631 0.258565 0.584514 -0.321323
O9    O     O_3   0.650560 0.350570 0.771546 -0.528825
O10   O     O_2   0.326756 0.818836 0.151386 -0.290761
O11   O     O_2   0.460156 0.729311 0.116505 -0.232819
O12   O     O_R   0.630940 0.420520 0.499990 -0.568807
O13   O     O_3   0.335300 0.651668 0.248431 -0.569351
O14   O     O_R   0.630940 0.579480 0.499990 -0.580816
O15   O     O_R   0.369060 0.420520 0.500010 -0.568311
O16   O     O_R   0.500000 0.579460 0.285340 -0.551337
O17   O     O_R   0.500000 0.420540 0.714660 -0.572135
O18   O     O_R   0.500000 0.579460 0.714660 -0.551344
O19   O     O_R   0.500000 0.420540 0.285340 -0.572037
O20   O     O_2   0.303371 0.180704 0.192887 -0.278874
S1    S     S_3+6 0.335143 0.248965 0.313780 0.060820
S2    S     S_3+6 0.607647 0.749152 0.776761 0.060865
S3    S     S_3+6 0.664797 0.248940 0.686431 0.060893
S4    S     S_3+6 0.392352 0.749142 0.223235 0.060870
Zn1   Zn    Zn3+2 0.500000 0.606140 0.500000 1.094027
Zn2   Zn    Zn3+2 0.500000 0.393860 0.500000 1.087803

loop_
_geom_bond_atom_site_label_1
_geom_bond_atom_site_label_2
_ccdc_geom_bond_type
C23   S2    S    
C24   S3    S    
C9    C14   A    
O2    S1    D    
C23   C27   A    
O11   S4    D    
C5    C28   A    
C11   C16   A    
C14   C18   A    
C9    C20   A    
O10   S4    D    
C6    C27   A    
O14   Zn1   S    
C13   C17   A    
O6    S2    S    
C4    C8    S    
H11   O13   S    
C17   C18   A    
C1    C18   S    
C12   O12   A    
C7    C8    T    
C10   C21   A    
C23   N2    A    
C2    C6    A    
C20   C21   S    
N1    Zn2   S    
C15   C19   A    
C4    O17   A    
O1    Zn1   S    
N2    Zn1   S    
O9    S3    S    
O8    S3    D    
C15   H2    S    
C16   C19   A    
C10   H13   S    
C24   N1    A    
C12   C19   S    
O16   Zn1   S    
O20   S1    D    
C2    C25   A    
C3    C7    S    
O5    S2    D    
O12   Zn2   S    
C27   H6    S    
C5    C6    S    
C3    O19   A    
C22   S1    S    
O18   Zn1   S    
O13   S4    S    
C5    C26   A    
O19   Zn2   S    
C13   H15   S    
C22   N1    A    
O17   Zn2   S    
O15   Zn2   S    
C11   H14   S    
C14   H16   S    
C22   C26   A    
C3    O16   A    
C2    H8    S    
C17   H4    S    
H9    O6    S    
C4    O18   A    
C1    O1    A    
H1    O3    S    
C25   S4    S    
O3    S1    S    
C13   C20   A    
O7    S3    D    
C28   H7    S    
O4    S2    D    
C25   N2    A    
C11   C21   A    
C9    H12   S    
H10   O9    S    
C24   C28   A    
C26   H5    S    
C1    O15   A    
C10   C15   A    
C16   H3    S    
C12   O14   A    
