data_mof_unit_18190.cif
_audit_creation_date              2012-12-11T15:43:10-0500
_audit_creation_method            fapswitch 2.2
_symmetry_space_group_name_H-M    P1
_symmetry_Int_Tables_number       1
_space_group_crystal_system       triclinic
_cell_length_a                    19.11878
_cell_length_b                    10.96138
_cell_length_c                    18.791091
_cell_angle_alpha                 90.030469
_cell_angle_beta                  89.868303
_cell_angle_gamma                 90.023079
_cell_volume                      3938.00407862

loop_
_atom_site_label
_atom_site_type_symbol
_atom_type_description
_atom_site_fract_x
_atom_site_fract_y
_atom_site_fract_z
_atom_type_partial_charge
C1    C     C_R   0.730263 0.376616 0.146160 0.550243
C2    C     C_R   0.007792 0.002418 0.031016 -0.030535
C3    C     C_R   0.763392 0.475621 0.564551 -0.004690
C4    C     C_R   0.730840 0.383421 0.349878 0.531002
C5    C     C_R   0.287717 0.332860 0.639973 0.555474
C6    C     C_R   0.212264 0.832870 0.360000 0.555199
C7    C     C_R   0.769165 0.883393 0.650114 0.529598
C8    C     C_R   0.563783 0.152981 0.360814 0.564902
C9    C     C_R   0.469938 0.156523 0.647968 0.520083
C10   C     C_R   0.030062 0.656524 0.352037 0.524510
C11   C     C_R   0.936199 0.652909 0.639192 0.563740
C12   C     C_R   0.729514 0.014547 0.362086 0.524749
C13   C     C_R   0.518111 0.493669 0.957362 -0.019558
C14   C     C_R   0.257491 0.968162 0.647384 0.531665
C15   C     C_R   0.242501 0.468174 0.352620 0.531435
C16   C     C_R   0.770493 0.514511 0.637935 0.524511
C17   C     C_R   0.486192 0.160340 0.930608 -0.065963
C18   C     C_R   0.493787 0.170845 0.079602 -0.053895
C19   C     C_R   0.986229 0.660328 0.930585 -0.067030
C20   C     C_R   0.993822 0.670843 0.079576 -0.054727
C21   C     C_R   0.503526 0.272422 0.964172 -0.078479
C22   C     C_R   0.500574 0.279886 0.039261 -0.066438
C23   C     C_R   0.003575 0.772405 0.964142 -0.078503
C24   C     C_R   0.507746 0.502428 0.031062 -0.030309
C25   C     C_R   0.000621 0.779879 0.039229 -0.064614
C26   C     C_R   0.470208 0.065310 0.046369 0.362142
C27   C     C_R   0.468508 0.058368 0.973270 0.354960
C28   C     C_R   0.970238 0.565309 0.046349 0.360987
C29   C     C_R   0.968541 0.558359 0.973251 0.354179
C30   C     C_1   0.625658 0.886109 0.593160 0.215609
C31   C     C_1   0.343379 0.752942 0.438188 0.314221
C32   C     C_1   0.156542 0.253029 0.561769 0.313626
C33   C     C_1   0.874328 0.386005 0.406838 0.217739
C34   C     C_1   0.910546 0.093409 0.433524 0.247412
C35   C     C_R   0.761878 0.902709 0.929367 0.024710
C36   C     C_1   0.104243 0.809286 0.615239 0.237249
C37   C     C_1   0.395693 0.309209 0.384711 0.235335
C38   C     C_1   0.589539 0.593496 0.566534 0.248195
C39   C     C_1   0.019298 0.100325 0.912340 0.186670
C40   C     C_1   0.000907 0.118716 0.066290 0.169612
C41   C     C_1   0.519253 0.600360 0.912390 0.189752
C42   C     C_1   0.500878 0.618722 0.066342 0.166027
C43   C     C_R   0.254078 0.922468 0.078140 0.029650
C44   C     C_R   0.261885 0.402672 0.929381 0.021836
C45   C     C_R   0.754092 0.422508 0.078156 0.027411
C46   C     C_R   0.697152 0.929248 0.958832 -0.040442
C47   C     C_R   0.299156 0.852461 0.035506 0.111727
C48   C     C_R   0.197160 0.429219 0.958849 -0.036651
C49   C     C_R   0.271752 0.374208 0.855235 0.558303
C50   C     C_R   0.799183 0.352524 0.035526 0.112712
C51   C     C_R   0.690302 0.935394 0.031890 -0.010692
C52   C     C_R   0.301374 0.868846 0.962565 0.112322
C53   C     C_R   0.190311 0.435363 0.031906 -0.011594
C54   C     C_R   0.801405 0.368916 0.962586 0.112337
C55   C     C_R   0.814081 0.906327 0.047372 -0.161417
C56   C     C_R   0.220160 0.035375 0.974047 -0.157145
C57   C     C_R   0.314086 0.406264 0.047389 -0.158672
C58   C     C_R   0.720176 0.535424 0.974063 -0.156266
C59   C     C_R   0.821055 0.896538 0.974128 -0.140063
C60   C     C_R   0.230259 0.876606 0.146155 0.563834
C61   C     C_R   0.219378 0.021497 0.047446 -0.155259
C62   C     C_R   0.321059 0.396479 0.974144 -0.143189
C63   C     C_R   0.719388 0.521535 0.047464 -0.156742
C64   C     C_3   0.629069 0.866445 0.949406 -0.242847
C65   C     C_3   0.304483 0.717079 0.027878 -0.242776
C66   C     C_3   0.129074 0.366420 0.949430 -0.239962
C67   C     C_3   0.804531 0.217145 0.027897 -0.240151
C68   C     C_3   0.623383 0.865669 0.029847 -0.220240
C69   C     C_3   0.308158 0.735686 0.948124 -0.267757
C70   C     C_3   0.123392 0.365646 0.029872 -0.221038
C71   C     C_R   0.771747 0.874222 0.855228 0.544568
C72   C     C_3   0.808213 0.235758 0.948144 -0.269805
C73   C     C_R   0.747874 0.920950 0.077109 0.014196
C74   C     C_R   0.256758 0.952457 0.930447 0.009782
C75   C     C_R   0.247881 0.420911 0.077125 0.018045
C76   C     C_R   0.756781 0.452515 0.930465 0.007143
C77   C     C_R   0.529650 0.156591 0.148230 0.589297
C78   C     C_R   0.465937 0.154541 0.855096 0.549930
C79   C     C_R   0.029670 0.656589 0.148210 0.564274
C80   C     C_R   0.965957 0.654541 0.855080 0.573135
C81   C     C_R   0.508786 0.158258 0.581153 -0.018880
C82   C     C_R   0.519798 0.378940 0.925115 -0.099003
C83   C     C_R   0.547717 0.158792 0.436511 0.017544
C84   C     C_R   0.952233 0.658681 0.563492 0.018173
C85   C     C_R   0.991211 0.658233 0.418857 -0.018393
C86   C     C_R   0.505066 0.053518 0.539333 0.034359
C87   C     C_R   0.523880 0.053869 0.469657 -0.037644
C88   C     C_R   0.976097 0.553806 0.530296 -0.037180
C89   C     C_R   0.994942 0.553508 0.460630 0.033900
C90   C     C_R   0.561570 0.261533 0.479547 -0.172671
C91   C     C_R   0.543273 0.260618 0.552613 -0.174160
C92   C     C_R   0.956682 0.760512 0.447442 -0.173760
C93   C     C_R   0.501186 0.396300 0.071592 -0.093784
C94   C     C_R   0.938369 0.761389 0.520507 -0.172510
C95   C     C_3   0.447028 0.964940 0.526429 0.272035
C96   C     C_3   0.469385 0.962921 0.449341 0.291168
C97   C     C_3   0.030571 0.462909 0.550572 0.289963
C98   C     C_3   0.052969 0.464994 0.473495 0.272219
C99   C     C_R   0.750283 0.936097 0.582074 0.002388
C100  C     C_R   0.225039 0.853410 0.435843 0.001362
C101  C     C_R   0.274932 0.353426 0.564135 0.001048
C102  C     C_R   0.749749 0.436213 0.417912 0.003529
C103  C     C_R   0.806247 0.976113 0.540931 -0.013909
C104  C     C_R   0.019855 0.878910 0.925077 -0.098824
C105  C     C_R   0.173277 0.914014 0.474035 0.008916
C106  C     C_R   0.326721 0.414011 0.525958 0.008944
C107  C     C_R   0.693798 0.476244 0.459059 -0.014096
C108  C     C_R   0.800403 0.993351 0.469209 0.010224
C109  C     C_R   0.181996 0.943786 0.544756 0.030652
C110  C     C_R   0.318008 0.443784 0.455249 0.030494
C111  C     C_R   0.699626 0.493396 0.530795 0.009927
C112  C     C_R   0.679067 0.932929 0.475567 -0.179513
C113  C     C_R   0.292120 0.836927 0.545678 -0.159073
C114  C     C_R   0.207821 0.336984 0.454295 -0.158596
C115  C     C_R   0.001233 0.896298 0.071552 -0.093907
C116  C     C_R   0.820918 0.432854 0.524439 -0.180134
C117  C     C_R   0.685126 0.917984 0.549706 -0.074518
C118  C     C_R   0.285533 0.812730 0.472904 -0.032786
C119  C     C_R   0.214408 0.312789 0.527062 -0.032520
C120  C     C_R   0.814878 0.417982 0.450290 -0.075215
C121  C     C_3   0.849977 0.087662 0.551191 -0.263453
C122  C     C_3   0.100486 0.871094 0.486288 -0.261942
C123  C     C_3   0.399496 0.371107 0.513684 -0.261506
C124  C     C_3   0.650157 0.587841 0.448887 -0.263750
C125  C     C_R   0.741355 0.967617 0.148448 0.541721
C126  C     C_R   0.018164 0.993645 0.957317 -0.019841
C127  C     C_R   0.260180 0.975788 0.854747 0.543312
C128  C     C_R   0.241361 0.467598 0.148457 0.535125
C129  C     C_R   0.760191 0.475825 0.854760 0.549072
C130  C     C_3   0.843738 0.106330 0.471755 -0.125670
C131  C     C_3   0.108343 0.909185 0.563029 -0.136601
C132  C     C_3   0.391644 0.409153 0.436957 -0.137479
C133  C     C_3   0.656372 0.606411 0.528345 -0.125419
C134  C     C_R   0.736611 0.975665 0.435459 -0.004732
C135  C     C_R   0.242232 0.908155 0.580708 -0.006576
C136  C     C_R   0.257743 0.408188 0.419282 -0.006486
Cr1   Cr    Cr6+3 0.772010 0.169670 0.250090 1.059909
Cr2   Cr    Cr6+3 0.383290 0.010760 0.749160 1.118344
Cr3   Cr    Cr6+3 0.116710 0.510760 0.250840 1.100171
Cr4   Cr    Cr6+3 0.883290 0.510760 0.749160 1.085408
Cr5   Cr    Cr6+3 0.227990 0.169670 0.749910 1.066843
Cr6   Cr    Cr6+3 0.272010 0.669670 0.250090 1.079306
Cr7   Cr    Cr6+3 0.727990 0.669670 0.749910 1.047483
Cr8   Cr    Cr6+3 0.615000 0.323260 0.249260 1.015444
Cr9   Cr    Cr6+3 0.385000 0.323260 0.750740 1.038381
Cr10  Cr    Cr6+3 0.115000 0.823260 0.249260 1.035944
Cr11  Cr    Cr6+3 0.885000 0.823260 0.750740 1.018216
Cr12  Cr    Cr6+3 0.616710 0.010760 0.250840 1.066912
F1    F     F_    0.452224 0.965275 0.084954 -0.578721
F2    F     F_    0.448658 0.949795 0.944858 -0.590041
F3    F     F_    0.952243 0.465284 0.084938 -0.583916
F4    F     F_    0.948689 0.449782 0.944846 -0.590795
F5    F     F_    0.458784 0.854056 0.559213 -0.637148
F6    F     F_    0.418519 0.010258 0.405121 -0.613133
F7    F     F_    0.081422 0.510269 0.594856 -0.616525
F8    F     F_    0.041220 0.354111 0.440621 -0.637387
H1    H     H_    0.581986 0.343517 0.455905 0.144014
H2    H     H_    0.337529 0.805230 0.574362 0.209616
H3    H     H_    0.162398 0.305277 0.425600 0.209758
H4    H     H_    0.870027 0.413958 0.550392 0.127368
H5    H     H_    0.903582 0.065383 0.570128 0.147296
H6    H     H_    0.096771 0.770930 0.478528 0.133710
H7    H     H_    0.403197 0.270949 0.521412 0.134007
H8    H     H_    0.596545 0.565624 0.429901 0.146741
H9    H     H_    0.822666 0.159225 0.582731 0.144665
H10   H     H_    0.062449 0.927712 0.456502 0.173953
H11   H     H_    0.437553 0.427767 0.543487 0.174049
H12   H     H_    0.550222 0.341706 0.584462 0.156581
H13   H     H_    0.677538 0.659413 0.417431 0.144922
H14   H     H_    0.812626 0.186515 0.456263 0.130581
H15   H     H_    0.074602 0.987484 0.577552 0.154222
H16   H     H_    0.425422 0.487442 0.422461 0.153672
H17   H     H_    0.687538 0.686545 0.543941 0.131323
H18   H     H_    0.531139 0.375003 0.868769 0.147239
H19   H     H_    0.489899 0.406692 0.127723 0.144908
H20   H     H_    0.031198 0.874956 0.868729 0.150253
H21   H     H_    0.989945 0.906704 0.127681 0.144973
H22   H     H_    0.859950 0.903855 0.080815 0.132611
H23   H     H_    0.949716 0.841580 0.415639 0.156523
H24   H     H_    0.190116 0.108510 0.951401 0.141258
H25   H     H_    0.359951 0.403775 0.080837 0.134651
H26   H     H_    0.690128 0.608554 0.951415 0.141551
H27   H     H_    0.872573 0.879609 0.952653 0.159211
H28   H     H_    0.186051 0.080310 0.079053 0.140514
H29   H     H_    0.372574 0.379543 0.952665 0.159217
H30   H     H_    0.686052 0.580333 0.079070 0.137970
H31   H     H_    0.134419 0.275190 0.925246 0.168410
H32   H     H_    0.755811 0.170461 0.045014 0.135716
H33   H     H_    0.634418 0.775217 0.925219 0.168953
H34   H     H_    0.917934 0.843332 0.544193 0.144068
H35   H     H_    0.255759 0.670420 0.045003 0.134472
H36   H     H_    0.590112 0.926486 0.923188 0.191218
H37   H     H_    0.353551 0.680221 0.050824 0.191343
H38   H     H_    0.090116 0.426461 0.923215 0.195114
H39   H     H_    0.853601 0.180309 0.050849 0.190876
H40   H     H_    0.579242 0.919861 0.050522 0.218020
H41   H     H_    0.360020 0.712001 0.925110 0.199667
H42   H     H_    0.079256 0.419842 0.050551 0.219100
H43   H     H_    0.860082 0.212099 0.925137 0.198241
H44   H     H_    0.628747 0.773262 0.053386 0.143514
H45   H     H_    0.007831 0.375023 0.568883 0.162536
H46   H     H_    0.262414 0.697404 0.919234 0.124494
H47   H     H_    0.128758 0.273240 0.053411 0.144443
H48   H     H_    0.762480 0.197451 0.919249 0.119341
H49   H     H_    0.105484 0.505133 0.463708 0.131035
H50   H     H_    0.394522 0.005016 0.536274 0.130934
H51   H     H_    0.492107 0.875070 0.430946 0.162845
H52   H     H_    0.629933 0.914111 0.449620 0.127660
N1    N     N_1   0.579650 0.860466 0.630315 -0.162838
N2    N     N_1   0.994891 0.211312 0.095194 -0.201653
N3    N     N_1   0.518979 0.685038 0.875659 -0.252978
N4    N     N_1   0.494877 0.711319 0.095246 -0.207306
N5    N     N_1   0.390229 0.706928 0.409928 -0.276166
N6    N     N_1   0.109680 0.207039 0.590031 -0.276722
N7    N     N_1   0.920316 0.360269 0.369679 -0.154782
N8    N     N_1   0.963082 0.084329 0.403289 -0.249050
N9    N     N_1   0.101934 0.732529 0.657382 -0.162802
N10   N     N_1   0.397969 0.232411 0.342545 -0.155698
N11   N     N_1   0.536985 0.584425 0.596740 -0.246988
N12   N     N_1   0.019017 0.184999 0.875607 -0.262072
O1    O     O_R   0.787520 0.042810 0.170440 -0.516640
O2    O     O_R   0.454050 0.051210 0.669140 -0.463546
O3    O     O_R   0.045950 0.551210 0.330860 -0.457770
O4    O     O_R   0.954050 0.551210 0.669140 -0.469082
O5    O     O_R   0.681390 0.959480 0.325510 -0.524588
O6    O     O_R   0.318610 0.959480 0.674490 -0.499210
O7    O     O_R   0.181390 0.459480 0.325510 -0.498192
O8    O     O_R   0.818610 0.459480 0.674490 -0.525606
O9    O     O_3   0.667900 0.167900 0.250060 -0.307421
O10   O     O_3   0.332100 0.167900 0.749940 -0.303424
O11   O     O_3   0.167900 0.667900 0.250060 -0.302562
O12   O     O_R   0.212480 0.042810 0.829560 -0.528045
O13   O     O_3   0.832100 0.667900 0.749940 -0.308488
O14   O     O_R   0.765640 0.292100 0.175020 -0.481343
O15   O     O_R   0.234360 0.292100 0.824980 -0.494492
O16   O     O_R   0.265640 0.792100 0.175020 -0.477785
O17   O     O_R   0.734360 0.792100 0.824980 -0.498109
O18   O     O_R   0.670190 0.408840 0.168540 -0.521333
O19   O     O_R   0.329810 0.408840 0.831460 -0.515736
O20   O     O_R   0.170190 0.908840 0.168540 -0.515382
O21   O     O_R   0.829810 0.908840 0.831460 -0.522878
O22   O     O_R   0.556620 0.251410 0.175160 -0.516848
O23   O     O_R   0.287520 0.542810 0.170440 -0.524960
O24   O     O_R   0.443380 0.251410 0.824840 -0.527978
O25   O     O_R   0.056620 0.751410 0.175160 -0.524105
O26   O     O_R   0.943380 0.751410 0.824840 -0.520197
O27   O     O_R   0.545960 0.049620 0.170320 -0.438295
O28   O     O_R   0.454040 0.049620 0.829680 -0.425626
O29   O     O_R   0.045960 0.549620 0.170320 -0.444294
O30   O     O_R   0.954040 0.549620 0.829680 -0.417735
O31   O     O_R   0.681390 0.958010 0.176690 -0.497702
O32   O     O_R   0.318610 0.958010 0.823310 -0.464912
O33   O     O_R   0.181390 0.458010 0.176690 -0.497463
O34   O     O_R   0.712480 0.542810 0.829560 -0.520359
O35   O     O_R   0.818610 0.458010 0.823310 -0.464846
O36   O     O_R   0.787510 0.044390 0.330970 -0.496669
O37   O     O_R   0.212490 0.044390 0.669030 -0.511551
O38   O     O_R   0.287510 0.544390 0.330970 -0.513012
O39   O     O_R   0.712490 0.544390 0.669030 -0.495422
O40   O     O_R   0.765630 0.293570 0.323840 -0.509690
O41   O     O_R   0.234370 0.293570 0.676160 -0.467491
O42   O     O_R   0.265630 0.793570 0.323840 -0.465039
O43   O     O_R   0.734370 0.793570 0.676160 -0.510815
O44   O     O_R   0.670190 0.410420 0.329080 -0.529035
O45   O     O_R   0.556610 0.252880 0.323980 -0.492207
O46   O     O_R   0.329810 0.410420 0.670920 -0.481697
O47   O     O_R   0.170190 0.910420 0.329080 -0.483300
O48   O     O_R   0.829810 0.910420 0.670920 -0.526782
O49   O     O_R   0.443390 0.252880 0.676020 -0.525242
O50   O     O_R   0.056610 0.752880 0.323980 -0.526887
O51   O     O_R   0.943390 0.752880 0.676020 -0.490905
O52   O     O_R   0.545950 0.051210 0.330860 -0.462428

loop_
_geom_bond_atom_site_label_1
_geom_bond_atom_site_label_2
_ccdc_geom_bond_type
C44   C49   S    
C83   C87   A    
Cr9   O10   S    
C10   C85   S    
C12   O36   A    
C97   F7    S    
C55   C59   A    
C123  C132  S    
C109  C135  A    
C8    C83   S    
C24   C42   S    
Cr12  O52   S    
C99   C103  A    
C95   C96   S    
C18   C26   A    
C121  C130  S    
C49   O19   A    
C1    C45   S    
C30   N1    T    
C13   C41   S    
C64   H33   S    
C33   N7    T    
C58   C76   A    
C57   C62   A    
C104  H20   S    
C53   C75   A    
Cr5   O12   S    
C7    O43   A    
Cr10  O25   S    
C131  H15   S    
C100  C105  A    
C50   C54   A    
Cr7   O43   S    
C7    C99   S    
C124  C133  S    
C122  H10   S    
C71   O17   A    
C35   C59   A    
C28   C29   A    
Cr3   O33   S    
C116  H4    S    
C52   C74   A    
C3    C116  A    
C68   H40   S    
C106  C110  A    
C112  C117  A    
C51   C73   A    
C65   C69   S    
C20   C25   A    
Cr11  O21   S    
Cr6   O23   S    
Cr11  O48   S    
Cr1   O1    S    
C58   C63   A    
Cr3   O7    S    
C75   C128  S    
Cr6   O38   S    
C38   C133  S    
Cr2   O6    S    
C90   H1    S    
Cr7   O17   S    
C70   H47   S    
Cr5   O41   S    
Cr11  O51   S    
C52   C69   S    
C66   H38   S    
C70   H42   S    
C110  C136  A    
C9    O2    A    
C96   F6    S    
C124  H13   S    
C82   H18   S    
Cr11  O26   S    
C3    C111  A    
Cr12  O31   S    
Cr7   O34   S    
C4    C102  S    
C106  C123  S    
C109  C131  S    
C78   O28   A    
C19   C80   S    
C98   H49   S    
C110  C132  S    
Cr9   O46   S    
C60   O20   A    
Cr2   O10   S    
C113  H2    S    
C133  H17   S    
C50   C67   S    
C107  C124  S    
C108  C130  S    
C88   C97   S    
C5    O41   A    
C34   C130  S    
C4    O44   A    
C72   H48   S    
Cr9   O49   S    
C32   N6    T    
C95   H50   S    
Cr6   O16   S    
Cr11  O13   S    
C35   C71   S    
C5    O46   A    
C4    O40   A    
C39   C126  S    
C80   O30   A    
C66   H31   S    
C69   H41   S    
C79   O29   A    
Cr3   O29   S    
C107  C111  A    
C37   N10   T    
C67   H39   S    
C53   C70   S    
C57   H25   S    
C64   H36   S    
C85   C92   A    
C97   C98   S    
C5    C101  S    
Cr10  O11   S    
C48   C53   A    
C98   F8    S    
Cr4   O8    S    
C56   C74   A    
C46   C64   S    
Cr8   O18   S    
C77   O22   A    
C17   C27   A    
Cr2   O2    S    
C129  O35   A    
C39   N12   T    
C125  O31   A    
Cr4   O30   S    
C71   O21   A    
Cr1   O9    S    
C127  O12   A    
C36   C131  S    
C97   H45   S    
C16   O39   A    
C85   C89   A    
C86   C87   A    
C111  C133  S    
C96   H51   S    
C15   C136  S    
C20   C28   A    
C54   C72   S    
C44   C62   A    
Cr5   O10   S    
C46   C51   A    
C45   C63   A    
Cr12  O27   S    
C17   C21   A    
C116  C120  A    
Cr9   O24   S    
C15   O7    A    
C95   F5    S    
C101  C119  A    
C11   O4    A    
C19   C23   A    
C94   H34   S    
C31   C118  S    
C108  C134  A    
C92   H23   S    
C99   C117  A    
C123  H7    S    
C2    C115  A    
Cr8   O9    S    
C10   O50   A    
C74   C127  S    
Cr10  O50   S    
C1    O14   A    
Cr5   O15   S    
C63   H30   S    
C121  H5    S    
C87   C96   S    
C76   C129  S    
C92   C94   A    
C128  O33   A    
C26   C27   A    
C81   C86   A    
Cr7   O39   S    
C102  C107  A    
C6    O42   A    
Cr4   O35   S    
C84   C94   A    
C88   C89   A    
C81   C91   A    
C59   H27   S    
C60   O16   A    
C112  H52   S    
C115  H21   S    
C15   O38   A    
C113  C135  A    
C43   C60   S    
C28   F3    S    
C62   H29   S    
C54   C76   A    
C10   O3    A    
Cr9   O19   S    
Cr10  O20   S    
Cr6   O42   S    
C27   F2    S    
Cr8   O22   S    
C65   H35   S    
Cr4   O13   S    
C1    O18   A    
C22   C93   A    
C80   O26   A    
C91   H12   S    
C100  C118  A    
C32   C119  S    
C90   C91   A    
C19   C29   A    
C64   C68   S    
C122  C131  S    
C67   C72   S    
C42   N4    T    
C67   H32   S    
C43   C61   A    
C56   H24   S    
Cr1   O40   S    
Cr3   O3    S    
C101  C106  A    
C83   C90   A    
C9    O49   A    
C16   O8    A    
C61   H28   S    
C114  C136  A    
C12   C134  S    
C20   C79   S    
C6    C100  S    
C18   C22   A    
C11   O51   A    
C38   N11   T    
C26   F1    S    
Cr4   O4    S    
Cr12  O5    S    
C84   C88   A    
C112  C134  A    
C8    O45   A    
C14   O37   A    
C36   N9    T    
Cr10  O47   S    
C14   O6    A    
C47   C52   A    
C31   N5    T    
C30   C117  S    
C125  O1    A    
C11   C84   S    
C121  H9    S    
C89   C98   S    
Cr2   O32   S    
C122  H6    S    
C37   C132  S    
C58   H26   S    
C55   C73   A    
C68   H44   S    
C102  C120  A    
C48   C66   S    
C21   C22   A    
Cr7   O13   S    
C40   N2    T    
C25   C115  A    
C123  H11   S    
C49   O15   A    
Cr8   O44   S    
C34   N8    T    
C24   C93   A    
C72   H43   S    
C21   C82   A    
C57   C75   A    
Cr6   O11   S    
C66   C70   S    
C114  C119  A    
C105  C109  A    
C45   C50   A    
C130  H14   S    
C18   C77   S    
C73   C125  S    
C13   C82   A    
C17   C78   S    
C55   H22   S    
C93   H19   S    
C105  C122  S    
C79   O25   A    
C51   C68   S    
C23   C25   A    
C65   H37   S    
C7    O48   A    
C78   O24   A    
C114  H3    S    
Cr1   O36   S    
Cr2   O28   S    
C86   C95   S    
C2    C126  A    
C113  C118  A    
C41   N3    T    
C124  H8    S    
C2    C40   S    
C69   H46   S    
C104  C126  A    
C129  O34   A    
C13   C24   A    
C33   C120  S    
C8    O52   A    
C14   C135  S    
C12   O5    A    
C6    O47   A    
C128  O23   A    
Cr5   O37   S    
C56   C61   A    
C127  O32   A    
C103  C108  A    
Cr3   O11   S    
Cr12  O9    S    
C132  H16   S    
C77   O27   A    
Cr1   O14   S    
Cr8   O45   S    
C35   C46   A    
C43   C47   A    
C23   C104  A    
C47   C65   S    
C3    C16   S    
C44   C48   A    
C9    C81   S    
C29   F4    S    
C103  C121  S    
