data_mof_unit_14553.cif
_audit_creation_date              2012-12-11T15:08:44-0500
_audit_creation_method            fapswitch 2.2
_symmetry_space_group_name_H-M    P1
_symmetry_Int_Tables_number       1
_space_group_crystal_system       triclinic
_cell_length_a                    19.415426
_cell_length_b                    11.458408
_cell_length_c                    18.701652
_cell_angle_alpha                 90.056034
_cell_angle_beta                  90.423604
_cell_angle_gamma                 90.207597
_cell_volume                      4160.41101988

loop_
_atom_site_label
_atom_site_type_symbol
_atom_type_description
_atom_site_fract_x
_atom_site_fract_y
_atom_site_fract_z
_atom_type_partial_charge
C1    C     C_R   0.272715 0.041473 0.854568 0.533222
C2    C     C_3   0.687148 0.523136 0.955317 -0.212253
C3    C     C_R   0.225646 0.538682 0.356394 0.531978
C4    C     C_R   0.467677 0.822057 0.645282 0.546678
C5    C     C_R   0.532327 0.822004 0.354743 0.545782
C6    C     C_R   0.967778 0.322092 0.645335 0.544828
C7    C     C_R   0.032275 0.322009 0.354718 0.545786
C8    C     C_R   0.259454 0.635858 0.646279 0.529583
C9    C     C_R   0.740391 0.636674 0.353780 0.540416
C10   C     C_R   0.759558 0.137027 0.646057 0.538627
C11   C     C_R   0.240117 0.137910 0.354416 0.542049
C12   C     C_3   0.487522 0.923215 0.033849 -0.106386
C13   C     C_3   0.808107 0.012244 0.041899 -0.209971
C14   C     C_3   0.525531 0.914318 0.961379 -0.106409
C15   C     C_3   0.987341 0.423171 0.033927 -0.106148
C16   C     C_3   0.025560 0.414677 0.961542 -0.106323
C17   C     C_3   0.434181 0.832546 0.007982 -0.163352
C18   C     C_3   0.570181 0.814376 0.991511 -0.162270
C19   C     C_3   0.934220 0.332247 0.007864 -0.163535
C20   C     C_3   0.070306 0.314848 0.991728 -0.161621
C21   C     C_3   0.472490 0.824093 0.936111 0.056925
C22   C     C_3   0.531449 0.823617 0.063197 0.050348
C23   C     C_3   0.972725 0.324224 0.936079 0.056396
C24   C     C_3   0.187071 0.022683 0.955137 -0.212198
C25   C     C_3   0.031384 0.323728 0.063274 0.050621
C26   C     C_3   0.325408 0.380470 0.652826 0.022982
C27   C     C_3   0.398701 0.387543 0.683743 -0.209961
C28   C     C_3   0.449392 0.311028 0.643073 -0.424154
C29   C     C_3   0.680176 0.347823 0.351402 -0.015475
C30   C     C_3   0.674566 0.404262 0.277867 -0.252153
C31   C     C_3   0.670614 0.312690 0.219705 -0.464265
C32   C     C_3   0.815010 0.847174 0.648847 -0.014342
C33   C     C_3   0.812546 0.904062 0.722298 -0.254003
C34   C     C_3   0.810278 0.813043 0.780516 -0.470652
C35   C     C_3   0.307524 0.505779 0.958261 -0.120911
C36   C     C_3   0.181411 0.848952 0.352014 -0.014981
C37   C     C_3   0.175613 0.904528 0.278218 -0.252066
C38   C     C_3   0.171706 0.812430 0.220351 -0.464282
C39   C     C_3   0.382510 0.509167 0.932422 -0.399931
C40   C     C_3   0.610608 0.539150 0.062094 -0.396068
C41   C     C_3   0.884019 0.014635 0.934092 -0.401593
C42   C     C_3   0.110476 0.039932 0.061934 -0.395983
C43   C     C_3   0.684483 0.519813 0.037649 -0.118529
C44   C     C_3   0.808941 0.008133 0.959398 -0.121190
C45   C     C_3   0.184266 0.020295 0.037461 -0.118162
C46   C     C_3   0.175906 0.530806 0.025190 -0.219443
C47   C     C_3   0.818064 0.512103 0.975165 -0.220237
C48   C     C_3   0.676514 0.028757 0.025159 -0.218719
C49   C     C_R   0.727011 0.041314 0.145053 0.525225
C50   C     C_3   0.318012 0.012211 0.974974 -0.221282
C51   C     C_3   0.249902 0.699063 0.054258 -0.262874
C52   C     C_3   0.760791 0.697828 0.946009 -0.266791
C53   C     C_3   0.748175 0.199600 0.054311 -0.263501
C54   C     C_3   0.260154 0.197885 0.945303 -0.263176
C55   C     C_3   0.240882 0.569485 0.068566 0.054350
C56   C     C_3   0.758692 0.568084 0.930770 0.057830
C57   C     C_3   0.740861 0.069767 0.068828 0.055389
C58   C     C_3   0.258529 0.068024 0.930525 0.055138
C59   C     C_3   0.255205 0.600617 0.929555 0.077585
C60   C     C_R   0.772812 0.541304 0.854732 0.527199
C61   C     C_3   0.744584 0.599345 0.069749 0.077291
C62   C     C_3   0.755413 0.100682 0.929851 0.078962
C63   C     C_3   0.244511 0.099628 0.069483 0.077080
C64   C     C_3   0.182563 0.553978 0.944652 -0.262917
C65   C     C_3   0.810850 0.530811 0.056854 -0.266652
C66   C     C_3   0.683384 0.051330 0.944552 -0.263107
C67   C     C_3   0.310449 0.030033 0.056742 -0.266916
C68   C     C_3   0.265187 0.714038 0.973708 -0.219201
C69   C     C_3   0.753213 0.714691 0.026973 -0.214241
C70   C     C_3   0.763635 0.214621 0.973842 -0.218730
C71   C     C_R   0.226992 0.541170 0.144932 0.524644
C72   C     C_3   0.254046 0.214820 0.026465 -0.215423
C73   C     C_3   0.497687 0.697798 0.459600 -0.236449
C74   C     C_3   0.502182 0.697743 0.540376 -0.237619
C75   C     C_3   0.997788 0.197816 0.459646 -0.237112
C76   C     C_3   0.002350 0.197932 0.540406 -0.236736
C77   C     C_R   0.444991 0.817782 0.862118 0.539421
C78   C     C_R   0.556954 0.817626 0.138047 0.538596
C79   C     C_R   0.945154 0.317823 0.862119 0.539492
C80   C     C_R   0.056910 0.317649 0.138069 0.538451
C81   C     C_3   0.569649 0.880990 0.475551 -0.234336
C82   C     C_3   0.516792 0.724867 0.965491 -0.121764
C83   C     C_3   0.430560 0.880921 0.524594 -0.234552
C84   C     C_3   0.069379 0.381745 0.475434 -0.234670
C85   C     C_3   0.930642 0.380869 0.524691 -0.234632
C86   C     C_3   0.447916 0.897004 0.444839 -0.256066
C87   C     C_3   0.552096 0.897198 0.555295 -0.256375
C88   C     C_3   0.947836 0.396646 0.444839 -0.256503
C89   C     C_3   0.052137 0.397427 0.555289 -0.256723
C90   C     C_3   0.511284 0.824595 0.430934 0.061176
C91   C     C_3   0.488694 0.824487 0.569105 0.062790
C92   C     C_3   0.011215 0.324603 0.430919 0.060721
C93   C     C_3   0.478821 0.733415 0.036988 -0.121457
C94   C     C_3   0.988830 0.324620 0.569160 0.060750
C95   C     C_3   0.180631 0.640480 0.464991 -0.274661
C96   C     C_3   0.819992 0.638730 0.534456 -0.275591
C97   C     C_3   0.680327 0.139670 0.465107 -0.275051
C98   C     C_3   0.320214 0.140335 0.535975 -0.271235
C99   C     C_3   0.178035 0.631039 0.544239 -0.289948
C100  C     C_3   0.822407 0.632200 0.455190 -0.292539
C101  C     C_3   0.677680 0.133225 0.544342 -0.292588
C102  C     C_3   0.321929 0.136162 0.456406 -0.291414
C103  C     C_3   0.246301 0.447678 0.477225 -0.164508
C104  C     C_3   0.017171 0.225172 0.965464 -0.122295
C105  C     C_3   0.753567 0.445328 0.519347 -0.176634
C106  C     C_3   0.746507 0.946451 0.479555 -0.174845
C107  C     C_3   0.253286 0.947330 0.520073 -0.176173
C108  C     C_3   0.307323 0.625613 0.447913 -0.265093
C109  C     C_3   0.693030 0.621453 0.551755 -0.265336
C110  C     C_3   0.806839 0.124017 0.448009 -0.267864
C111  C     C_3   0.193894 0.125217 0.553239 -0.266552
C112  C     C_3   0.239822 0.563651 0.433844 0.028186
C113  C     C_3   0.760799 0.560282 0.564798 0.026749
C114  C     C_3   0.739381 0.061682 0.434711 0.027013
C115  C     C_3   0.979022 0.233318 0.036880 -0.122288
C116  C     C_3   0.260849 0.061983 0.565637 0.025236
C117  C     C_3   0.250544 0.594243 0.572394 0.091253
C118  C     C_3   0.749791 0.594935 0.426925 0.100798
C119  C     C_3   0.749887 0.095327 0.572766 0.100703
C120  C     C_3   0.249626 0.097356 0.427935 0.099290
C121  C     C_3   0.257731 0.463207 0.560008 0.136714
C122  C     C_3   0.743277 0.464078 0.436305 0.150323
C123  C     C_3   0.755264 0.964472 0.562847 0.149558
C124  C     C_3   0.243583 0.966424 0.437161 0.150176
C125  C     C_R   0.261066 0.636334 0.852816 0.528509
C126  C     C_3   0.307129 0.509433 0.040921 -0.210331
C127  C     C_R   0.738593 0.636761 0.146632 0.523861
C128  C     C_R   0.761195 0.136587 0.853010 0.524447
C129  C     C_R   0.238502 0.137115 0.146436 0.524303
C130  C     C_3   0.308615 0.652860 0.528453 -0.191795
C131  C     C_3   0.691466 0.651027 0.471732 -0.195231
C132  C     C_3   0.808727 0.151282 0.528455 -0.195912
C133  C     C_3   0.191457 0.153249 0.472890 -0.197823
C134  C     C_R   0.275238 0.036369 0.642815 0.537682
C135  C     C_R   0.724937 0.036697 0.357155 0.534960
C136  C     C_R   0.775488 0.535463 0.642355 0.534432
Cr1   Cr    Cr6+3 0.229620 0.836040 0.749110 0.988588
Cr2   Cr    Cr6+3 0.613980 0.676590 0.250790 0.965317
Cr3   Cr    Cr6+3 0.886020 0.176590 0.749210 0.969121
Cr4   Cr    Cr6+3 0.113980 0.176590 0.250790 0.965884
Cr5   Cr    Cr6+3 0.770380 0.836040 0.250890 0.985583
Cr6   Cr    Cr6+3 0.729620 0.336040 0.749110 0.981689
Cr7   Cr    Cr6+3 0.270380 0.336040 0.250890 0.985109
Cr8   Cr    Cr6+3 0.387630 0.990680 0.750730 0.979425
Cr9   Cr    Cr6+3 0.612370 0.990680 0.249270 0.969413
Cr10  Cr    Cr6+3 0.887630 0.490680 0.750730 0.973393
Cr11  Cr    Cr6+3 0.112370 0.490680 0.249270 0.969656
Cr12  Cr    Cr6+3 0.386020 0.676590 0.749210 0.958466
H1    H     H_    0.383226 0.832688 0.031714 0.098500
H2    H     H_    0.719885 0.744647 0.915851 0.095533
H3    H     H_    0.140344 0.131363 0.451140 0.173789
H4    H     H_    0.285575 0.389356 0.454136 0.150900
H5    H     H_    0.713819 0.386362 0.541365 0.144169
H6    H     H_    0.787026 0.888698 0.458053 0.146056
H7    H     H_    0.213061 0.888686 0.541748 0.146412
H8    H     H_    0.314154 0.422511 0.062914 0.128889
H9    H     H_    0.673231 0.436355 0.933818 0.125966
H10   H     H_    0.816527 0.925476 0.063958 0.128474
H11   H     H_    0.173608 0.935396 0.934054 0.126000
H12   H     H_    0.352513 0.558911 0.061609 0.118078
H13   H     H_    0.789587 0.238789 0.087968 0.096008
H14   H     H_    0.646980 0.582406 0.933331 0.119360
H15   H     H_    0.852574 0.063795 0.062791 0.117693
H16   H     H_    0.146683 0.081139 0.932785 0.119647
H17   H     H_    0.287340 0.420350 0.941171 0.125801
H18   H     H_    0.695370 0.429088 0.053395 0.120764
H19   H     H_    0.790053 0.921385 0.943597 0.122645
H20   H     H_    0.194850 0.929585 0.053485 0.120393
H21   H     H_    0.668664 0.937096 0.036417 0.104629
H22   H     H_    0.317940 0.920494 0.960674 0.100456
H23   H     H_    0.167474 0.439112 0.036179 0.105288
H24   H     H_    0.218298 0.243583 0.915924 0.096638
H25   H     H_    0.817415 0.420405 0.961226 0.100977
H26   H     H_    0.674896 0.969264 0.913873 0.099300
H27   H     H_    0.307649 0.945583 0.085545 0.096435
H28   H     H_    0.172696 0.472565 0.913747 0.100113
H29   H     H_    0.808736 0.446648 0.086030 0.096216
H30   H     H_    0.307070 0.289484 0.655195 0.138470
H31   H     H_    0.290186 0.427119 0.689403 0.116396
H32   H     H_    0.417405 0.479084 0.681938 0.200230
H33   H     H_    0.397967 0.359779 0.740674 0.096480
H34   H     H_    0.436916 0.217485 0.650958 0.167240
H35   H     H_    0.319108 0.737203 0.965472 0.106424
H36   H     H_    0.502341 0.326822 0.663858 0.117477
H37   H     H_    0.448433 0.331830 0.585064 0.178065
H38   H     H_    0.634753 0.289372 0.356175 0.171312
H39   H     H_    0.726878 0.292335 0.351742 0.116029
H40   H     H_    0.626917 0.457372 0.274416 0.202241
H41   H     H_    0.721673 0.456235 0.267356 0.177182
H42   H     H_    0.717758 0.258220 0.221574 0.174007
H43   H     H_    0.667934 0.355863 0.167034 0.120271
H44   H     H_    0.623661 0.258342 0.226563 0.179224
H45   H     H_    0.861900 0.792049 0.648094 0.173797
H46   H     H_    0.711452 0.773590 0.040476 0.100779
H47   H     H_    0.769749 0.788639 0.644677 0.117071
H48   H     H_    0.859825 0.956919 0.731372 0.204849
H49   H     H_    0.764760 0.955970 0.727293 0.170762
H50   H     H_    0.768013 0.749522 0.770202 0.174171
H51   H     H_    0.799983 0.857092 0.831660 0.120284
H52   H     H_    0.860870 0.768579 0.783903 0.178764
H53   H     H_    0.136238 0.789983 0.356812 0.171576
H54   H     H_    0.228356 0.794136 0.352730 0.114258
H55   H     H_    0.127795 0.957175 0.274599 0.202619
H56   H     H_    0.222561 0.956804 0.267459 0.177840
H57   H     H_    0.817323 0.239173 0.965956 0.105732
H58   H     H_    0.218922 0.758121 0.222224 0.173282
H59   H     H_    0.168691 0.855233 0.167550 0.120434
H60   H     H_    0.124866 0.757933 0.227550 0.180012
H61   H     H_    0.415884 0.454439 0.967290 0.099279
H62   H     H_    0.386954 0.471985 0.877829 0.153832
H63   H     H_    0.402305 0.599298 0.933830 0.175268
H64   H     H_    0.572837 0.499699 0.024158 0.099121
H65   H     H_    0.600454 0.498125 0.114616 0.158269
H66   H     H_    0.602587 0.632739 0.065485 0.184530
H67   H     H_    0.918128 0.962130 0.969486 0.099166
H68   H     H_    0.213800 0.276628 0.040651 0.100563
H69   H     H_    0.889881 0.977559 0.879731 0.156375
H70   H     H_    0.901980 0.105679 0.935177 0.175797
H71   H     H_    0.072588 0.000965 0.023941 0.099060
H72   H     H_    0.100313 0.998547 0.114374 0.158087
H73   H     H_    0.102781 0.133531 0.065602 0.184860
H74   H     H_    0.232285 0.784060 0.952790 0.130111
H75   H     H_    0.802230 0.753949 0.044786 0.131757
H76   H     H_    0.730136 0.283540 0.952602 0.131208
H77   H     H_    0.623398 0.798201 0.975661 0.093528
H78   H     H_    0.304256 0.250956 0.043327 0.131130
H79   H     H_    0.629008 0.073564 0.043573 0.144063
H80   H     H_    0.368830 0.048535 0.958782 0.145954
H81   H     H_    0.128912 0.576666 0.044032 0.144412
H82   H     H_    0.869018 0.547438 0.958631 0.146129
H83   H     H_    0.143012 0.618900 0.928141 0.135640
H84   H     H_    0.856614 0.579024 0.077765 0.128718
H85   H     H_    0.643119 0.114560 0.927450 0.135280
H86   H     H_    0.356417 0.077031 0.078209 0.128223
H87   H     H_    0.532715 0.629256 0.440257 0.151669
H88   H     H_    0.883214 0.331841 0.031513 0.098169
H89   H     H_    0.467153 0.628778 0.559688 0.147734
H90   H     H_    0.032869 0.129363 0.440274 0.153017
H91   H     H_    0.967274 0.129071 0.559724 0.152481
H92   H     H_    0.445980 0.669323 0.441808 0.118527
H93   H     H_    0.553988 0.669639 0.558069 0.117447
H94   H     H_    0.946048 0.169080 0.441948 0.118369
H95   H     H_    0.054133 0.169922 0.558074 0.118534
H96   H     H_    0.609626 0.817623 0.473371 0.108408
H97   H     H_    0.390192 0.818247 0.526964 0.108963
H98   H     H_    0.109517 0.318976 0.472941 0.108902
H99   H     H_    0.123753 0.298266 0.976861 0.093202
H100  H     H_    0.890635 0.317575 0.527229 0.109305
H101  H     H_    0.595507 0.869010 0.590181 0.093432
H102  H     H_    0.404297 0.868453 0.410123 0.093948
H103  H     H_    0.095809 0.369227 0.589890 0.094302
H104  H     H_    0.904198 0.367789 0.410231 0.093759
H105  H     H_    0.475945 0.006122 0.061937 0.112325
H106  H     H_    0.542989 0.989820 0.929207 0.114389
H107  H     H_    0.975572 0.505914 0.062104 0.112231
H108  H     H_    0.042900 0.490409 0.929497 0.114228
H109  H     H_    0.459973 0.989957 0.433251 0.125032
H110  H     H_    0.201385 0.744010 0.067929 0.120264
H111  H     H_    0.539864 0.989976 0.566902 0.123345
H112  H     H_    0.959980 0.489506 0.433064 0.125987
H113  H     H_    0.039901 0.490148 0.567141 0.126296
H114  H     H_    0.415169 0.963724 0.548300 0.133484
H115  H     H_    0.585612 0.963828 0.451937 0.136591
H116  H     H_    0.914977 0.463764 0.548321 0.136348
H117  H     H_    0.084786 0.465028 0.451884 0.136773
H118  H     H_    0.128386 0.629045 0.442421 0.141101
H119  H     H_    0.872224 0.627464 0.556930 0.141518
H120  H     H_    0.628048 0.128230 0.442630 0.140188
H121  H     H_    0.811499 0.733142 0.928929 0.127357
H122  H     H_    0.372489 0.125861 0.557140 0.139394
H123  H     H_    0.193901 0.731626 0.456786 0.165868
H124  H     H_    0.807078 0.729415 0.543750 0.168346
H125  H     H_    0.693854 0.230316 0.455793 0.167073
H126  H     H_    0.308667 0.230627 0.549056 0.185104
H127  H     H_    0.157644 0.715812 0.563566 0.158467
H128  H     H_    0.842220 0.718128 0.436792 0.157728
H129  H     H_    0.658309 0.219119 0.562873 0.155584
H130  H     H_    0.340275 0.223218 0.438758 0.157640
H131  H     H_    0.139930 0.566208 0.560824 0.106933
H132  H     H_    0.698955 0.242795 0.067548 0.121204
H133  H     H_    0.861000 0.569122 0.437590 0.106445
H134  H     H_    0.638558 0.070625 0.561754 0.105714
H135  H     H_    0.361291 0.074806 0.437818 0.106163
H136  H     H_    0.696918 0.910578 0.471117 0.066231
H137  H     H_    0.303169 0.911993 0.526953 0.065149
H138  H     H_    0.196145 0.413371 0.469642 0.066333
H139  H     H_    0.803577 0.410678 0.525863 0.066043
H140  H     H_    0.711198 0.921715 0.590379 0.065655
H141  H     H_    0.287115 0.924179 0.408661 0.064732
H142  H     H_    0.216387 0.414341 0.588465 0.061506
H143  H     H_    0.309966 0.234606 0.926388 0.127247
H144  H     H_    0.786434 0.421154 0.407566 0.063868
H145  H     H_    0.350604 0.567035 0.433548 0.137573
H146  H     H_    0.649661 0.562019 0.565436 0.135739
H147  H     H_    0.850196 0.065866 0.433225 0.135538
H148  H     H_    0.150139 0.067621 0.568257 0.136026
H149  H     H_    0.312588 0.706809 0.416163 0.084630
H150  H     H_    0.687206 0.701484 0.584410 0.085455
H151  H     H_    0.811584 0.205219 0.416133 0.086927
H152  H     H_    0.190930 0.206203 0.585878 0.091897
H153  H     H_    0.528798 0.641985 0.937615 0.121694
H154  H     H_    0.291986 0.736322 0.087828 0.096514
H155  H     H_    0.459434 0.657077 0.067324 0.124445
H156  H     H_    0.029339 0.142516 0.937428 0.122410
H157  H     H_    0.959920 0.156767 0.067185 0.124675
H158  H     H_    0.297112 0.742459 0.535224 0.089563
H159  H     H_    0.702664 0.740977 0.466652 0.087586
H160  H     H_    0.798346 0.241191 0.535089 0.087706
H161  H     H_    0.202365 0.243184 0.467329 0.087522
H162  H     H_    0.359684 0.632142 0.550480 0.173745
H163  H     H_    0.640329 0.630276 0.449602 0.174566
H164  H     H_    0.859634 0.128753 0.550281 0.175193
O1    O     O_R   0.214130 0.708570 0.829890 -0.533893
O2    O     O_R   0.542830 0.717300 0.331620 -0.530025
O3    O     O_R   0.957170 0.217300 0.668380 -0.528523
O4    O     O_R   0.042830 0.217300 0.331620 -0.529672
O5    O     O_R   0.320870 0.624890 0.673130 -0.510706
O6    O     O_R   0.679130 0.624890 0.326870 -0.500055
O7    O     O_R   0.820870 0.124890 0.673130 -0.498155
O8    O     O_R   0.179130 0.124890 0.326870 -0.498660
O9    O     O_3   0.334430 0.834430 0.749680 -0.279607
O10   O     O_3   0.665570 0.834430 0.250320 -0.280492
O11   O     O_3   0.834430 0.334430 0.749680 -0.279558
O12   O     O_R   0.785870 0.708570 0.170110 -0.533745
O13   O     O_3   0.165570 0.334430 0.250320 -0.280330
O14   O     O_R   0.236050 0.959150 0.825270 -0.515461
O15   O     O_R   0.763950 0.959150 0.174730 -0.513524
O16   O     O_R   0.736050 0.459150 0.825270 -0.514260
O17   O     O_R   0.263950 0.459150 0.174730 -0.513489
O18   O     O_R   0.332100 0.076650 0.832310 -0.536949
O19   O     O_R   0.667900 0.076650 0.167690 -0.549495
O20   O     O_R   0.832100 0.576650 0.832310 -0.548519
O21   O     O_R   0.167900 0.576650 0.167690 -0.549408
O22   O     O_R   0.446500 0.918620 0.826240 -0.503881
O23   O     O_R   0.714130 0.208570 0.829890 -0.534151
O24   O     O_R   0.553500 0.918620 0.173760 -0.502150
O25   O     O_R   0.946500 0.418620 0.826240 -0.503522
O26   O     O_R   0.053500 0.418620 0.173760 -0.502226
O27   O     O_R   0.457310 0.715830 0.831280 -0.534453
O28   O     O_R   0.542690 0.715830 0.168720 -0.535789
O29   O     O_R   0.957310 0.215830 0.831280 -0.533507
O30   O     O_R   0.042690 0.215830 0.168720 -0.535986
O31   O     O_R   0.321000 0.623520 0.824130 -0.530428
O32   O     O_R   0.679000 0.623520 0.175870 -0.539943
O33   O     O_R   0.821000 0.123520 0.824130 -0.537186
O34   O     O_R   0.285870 0.208570 0.170110 -0.533167
O35   O     O_R   0.179000 0.123520 0.175870 -0.540034
O36   O     O_R   0.213990 0.710040 0.667000 -0.543257
O37   O     O_R   0.786010 0.710040 0.333000 -0.548441
O38   O     O_R   0.713990 0.210040 0.667000 -0.550446
O39   O     O_R   0.286010 0.210040 0.333000 -0.549106
O40   O     O_R   0.235920 0.960520 0.674260 -0.505736
O41   O     O_R   0.764080 0.960520 0.325740 -0.505539
O42   O     O_R   0.735920 0.460520 0.674260 -0.506846
O43   O     O_R   0.264080 0.460520 0.325740 -0.507257
O44   O     O_R   0.331960 0.078120 0.669410 -0.551240
O45   O     O_R   0.446360 0.919990 0.675230 -0.511637
O46   O     O_R   0.668040 0.078120 0.330590 -0.554845
O47   O     O_R   0.831960 0.578120 0.669410 -0.553587
O48   O     O_R   0.168040 0.578120 0.330590 -0.554077
O49   O     O_3   0.324483 0.424578 0.581426 -0.590067
O50   O     O_3   0.677077 0.427005 0.410515 -0.584275
O51   O     O_3   0.820472 0.926130 0.589940 -0.583874
O52   O     O_3   0.177688 0.928652 0.410838 -0.582936
O53   O     O_R   0.553640 0.919990 0.324770 -0.508025
O54   O     O_R   0.946360 0.419990 0.675230 -0.508647
O55   O     O_R   0.053640 0.419990 0.324770 -0.507678
O56   O     O_R   0.457170 0.717300 0.668380 -0.540818

loop_
_geom_bond_atom_site_label_1
_geom_bond_atom_site_label_2
_ccdc_geom_bond_type
C128  O23   A    
Cr11  O55   S    
C50   H80   S    
C133  H3    S    
Cr4   O30   S    
C41   H70   S    
Cr7   O34   S    
C101  H134  S    
C14   C21   S    
C42   H72   S    
Cr5   O41   S    
C95   C99   S    
C71   O21   A    
C29   H38   S    
C39   H61   S    
C120  C133  S    
C30   H41   S    
C89   C94   S    
C118  C131  S    
C76   C94   S    
C6    O3    A    
C40   C43   S    
C6    C94   S    
C46   C55   S    
C85   H100  S    
C42   H73   S    
C82   H153  S    
C88   H104  S    
C104  H156  S    
Cr2   O32   S    
C24   H16   S    
C107  C124  S    
C123  O51   S    
Cr2   O2    S    
C13   H15   S    
Cr3   O7    S    
Cr4   O8    S    
C87   C91   S    
Cr12  O31   S    
C122  H144  S    
C27   H32   S    
C22   C78   S    
C86   C90   S    
C87   H111  S    
Cr12  O5    S    
C95   H118  S    
C130  H158  S    
C98   C102  S    
C131  H163  S    
C31   H44   S    
C17   C21   S    
C103  C112  S    
C135  O46   A    
C3    O48   A    
C19   C23   S    
C75   C76   S    
C86   H109  S    
C37   C38   S    
C54   H24   S    
C54   H143  S    
C55   C126  S    
C3    C112  S    
C16   C20   S    
C129  O35   A    
C103  H4    S    
C81   C90   S    
C125  O1    A    
Cr5   O10   S    
Cr2   O10   S    
C46   H81   S    
C89   H113  S    
C77   O27   A    
C103  C121  S    
C29   H39   S    
Cr1   O14   S    
C43   C61   S    
C43   H18   S    
C65   H84   S    
C127  O12   A    
C102  H135  S    
C68   H74   S    
C32   O51   S    
C64   H83   S    
C108  H145  S    
C119  C123  S    
C83   C91   S    
Cr11  O48   S    
Cr3   O33   S    
Cr1   O1    S    
C8    O5    A    
C21   C82   S    
C2    H9    S    
C7    C92   S    
Cr7   O17   S    
C106  H136  S    
Cr11  O13   S    
C123  H140  S    
C48   H21   S    
C61   C65   S    
C83   C86   S    
C11   O8    A    
C40   H66   S    
C66   H26   S    
C75   H90   S    
C135  O41   A    
C13   C44   S    
C107  H7    S    
C99   H127  S    
C53   H132  S    
C105  H5    S    
C19   H88   S    
C2    H14   S    
C48   C57   S    
C15   H107  S    
C108  H149  S    
C31   H42   S    
C62   C70   S    
Cr3   O29   S    
C76   H91   S    
C81   H96   S    
C105  C113  S    
C36   C37   S    
C73   C90   S    
C41   H67   S    
Cr1   O9    S    
C15   C25   S    
C13   C57   S    
C9    O37   A    
C7    O4    A    
C49   C57   S    
C84   H98   S    
C118  C122  S    
C11   O39   A    
C28   H34   S    
C10   C119  S    
C98   H126  S    
C18   C82   S    
C99   H131  S    
C33   H48   S    
Cr5   O12   S    
C33   H49   S    
C64   H28   S    
C50   C67   S    
C110  C114  S    
C51   C55   S    
C4    C91   S    
C9    C118  S    
C5    O53   A    
Cr8   O18   S    
C11   C120  S    
C7    O55   A    
C8    C117  S    
C33   C34   S    
C38   H59   S    
C62   C66   S    
C78   O28   A    
C76   H95   S    
C136  O42   A    
Cr12  O56   S    
C9    O6    A    
C69   H75   S    
C12   C17   S    
Cr6   O11   S    
C27   H33   S    
C29   C30   S    
C18   H77   S    
C34   H52   S    
C99   C117  S    
C34   H50   S    
C10   O7    A    
C14   H106  S    
C83   H97   S    
Cr2   O6    S    
Cr3   O3    S    
C75   C92   S    
Cr1   O36   S    
C51   H110  S    
Cr6   O42   S    
C16   C23   S    
C17   C93   S    
C36   H53   S    
C60   O16   A    
Cr12  O9    S    
C130  H162  S    
C85   C88   S    
C87   H101  S    
C131  H159  S    
Cr8   O44   S    
C12   H105  S    
Cr5   O15   S    
C18   C22   S    
Cr9   O24   S    
Cr5   O37   S    
C32   H45   S    
C134  O44   A    
C41   H69   S    
Cr9   O46   S    
C81   H115  S    
C8    O36   A    
C59   C125  S    
C4    O56   A    
C2    C56   S    
Cr6   O23   S    
C6    O54   A    
C65   H29   S    
C96   C100  S    
C26   O49   S    
C37   H56   S    
C105  C122  S    
C121  O49   S    
C45   H20   S    
C55   C71   S    
C107  C116  S    
C109  H150  S    
C52   H2    S    
C79   O25   A    
C10   O38   A    
C84   C92   S    
C48   C66   S    
C97   C114  S    
Cr6   O16   S    
C60   O20   A    
Cr9   O53   S    
C47   C56   S    
C67   H86   S    
C25   C80   S    
C73   C74   S    
C24   H11   S    
C47   H82   S    
C70   H57   S    
C15   C19   S    
C26   C27   S    
C105  H139  S    
C100  H128  S    
C121  H142  S    
C101  H129  S    
C107  H137  S    
C95   C112  S    
C30   C31   S    
C29   O50   S    
C116  C134  S    
C20   C25   S    
C31   H43   S    
Cr8   O45   S    
C35   C59   S    
Cr9   O19   S    
C52   C69   S    
C20   H99   S    
C67   H27   S    
C106  H6    S    
C100  H133  S    
C109  C131  S    
C70   H76   S    
C110  C132  S    
C111  C116  S    
C1    O14   A    
C82   C93   S    
C72   H78   S    
C4    O45   A    
Cr9   O10   S    
C115  H157  S    
C132  H160  S    
C32   H47   S    
C53   C70   S    
C133  H161  S    
Cr7   O39   S    
C66   H85   S    
C50   C58   S    
C73   H92   S    
C124  H141  S    
Cr11  O21   S    
C53   C57   S    
C26   H31   S    
C56   C60   S    
C39   H62   S    
C44   H19   S    
C30   H40   S    
C74   C91   S    
C35   C39   S    
C36   O52   S    
C104  C115  S    
C23   C104  S    
C110  H151  S    
C50   H22   S    
C81   C87   S    
C1    O18   A    
C72   H68   S    
Cr3   O11   S    
C42   H71   S    
C41   C44   S    
C78   O24   A    
C96   C113  S    
C100  C118  S    
C85   H116  S    
C124  O52   S    
C102  C120  S    
C80   O30   A    
C89   H103  S    
C95   H123  S    
C126  H12   S    
C40   H64   S    
C32   C33   S    
C75   H94   S    
C16   H108  S    
Cr1   O40   S    
C69   H46   S    
C63   C129  S    
C28   H36   S    
C73   H87   S    
C88   H112  S    
C108  C112  S    
C63   C72   S    
C24   C58   S    
C71   O17   A    
Cr10  O20   S    
C1    C58   S    
C42   C45   S    
Cr10  O54   S    
C86   H102  S    
C68   H35   S    
C12   C22   S    
C14   C18   S    
C98   H122  S    
C125  O31   A    
C59   C64   S    
C38   H60   S    
C106  C114  S    
C24   C45   S    
Cr2   O28   S    
Cr10  O47   S    
C25   C115  S    
C136  O47   A    
C109  H146  S    
C15   C16   S    
Cr4   O4    S    
C79   O29   A    
C46   H23   S    
Cr12  O27   S    
C117  C121  S    
C35   H17   S    
C74   H93   S    
C34   H51   S    
Cr6   O38   S    
C52   H121  S    
C113  C136  S    
C106  C123  S    
C114  C135  S    
Cr8   O9    S    
Cr4   O35   S    
C5    C90   S    
C109  C113  S    
C96   H119  S    
C36   H54   S    
C102  H130  S    
C26   H30   S    
C63   C67   S    
C101  C119  S    
C88   C92   S    
Cr10  O25   S    
C61   C127  S    
C49   O15   A    
C48   H79   S    
C111  C133  S    
C44   C62   S    
C45   C63   S    
C46   C64   S    
C40   H65   S    
C35   C126  S    
C103  H138  S    
C59   C68   S    
Cr11  O26   S    
C85   C94   S    
C97   H120  S    
C98   C116  S    
C111  H152  S    
C19   C115  S    
C2    C43   S    
Cr4   O13   S    
C119  C132  S    
C37   H55   S    
C39   H63   S    
C47   H25   S    
C77   O22   A    
C132  H164  S    
C117  C130  S    
C5    O2    A    
C12   C14   S    
Cr7   O13   S    
C22   C93   S    
C84   C89   S    
C13   H10   S    
C54   C58   S    
C61   C69   S    
C111  H148  S    
C38   H58   S    
C3    O43   A    
Cr10  O11   S    
C108  C130  S    
C128  O33   A    
C93   H155  S    
C17   H1    S    
C51   H154  S    
C49   O19   A    
C20   C104  S    
C96   H124  S    
C110  H147  S    
C129  O34   A    
C74   H89   S    
Cr8   O22   S    
C28   H37   S    
C62   C128  S    
C53   H13   S    
C122  O50   S    
C84   H117  S    
C134  O40   A    
C51   C68   S    
C127  O32   A    
C52   C56   S    
C54   C72   S    
C80   O26   A    
C21   C77   S    
C27   C28   S    
C83   H114  S    
C23   C79   S    
C97   H125  S    
C47   C65   S    
C97   C101  S    
C120  C124  S    
Cr7   O43   S    
C126  H8    S    
