data_mof_unit_40577.cif
_audit_creation_date              2013-03-05T16:21:21-0500
_audit_creation_method            fapswitch 2.2
_symmetry_space_group_name_H-M    P1
_symmetry_Int_Tables_number       1
_space_group_crystal_system       triclinic
_cell_length_a                    23.215236
_cell_length_b                    29.523013
_cell_length_c                    8.397884
_cell_angle_alpha                 90.000051
_cell_angle_beta                  93.190333
_cell_angle_gamma                 89.935581
_cell_volume                      5746.84880454

loop_
_atom_site_label
_atom_site_type_symbol
_atom_site_description
_atom_site_fract_x
_atom_site_fract_y
_atom_site_fract_z
_atom_type_partial_charge
P1    P     P_3+3 0.880180 0.450420 0.058010 0.458506
P2    P     P_3+3 0.880180 0.549580 0.558010 0.469694
P3    P     P_3+3 0.380180 0.950420 0.058010 0.458272
P4    P     P_3+3 0.380180 0.049580 0.558010 0.470372
O1    O     O_2   0.885810 0.435270 0.885040 -0.348868
O2    O     O_2   0.885810 0.564730 0.385040 -0.340495
O3    O     O_2   0.385810 0.935270 0.885040 -0.348890
O4    O     O_2   0.385810 0.064730 0.385040 -0.340098
O5    O     O_3   0.933490 0.477290 0.133000 -0.404078
O6    O     O_3   0.933490 0.522710 0.633000 -0.402913
O7    O     O_3   0.433490 0.977290 0.133000 -0.404216
O8    O     O_3   0.433490 0.022710 0.633000 -0.403102
O9    O     O_3   0.980190 0.395350 0.639000 -0.385420
O10   O     O_3   0.980190 0.604650 0.139000 -0.358630
O11   O     O_3   0.480190 0.895350 0.639000 -0.385394
O12   O     O_3   0.480190 0.104650 0.139000 -0.357864
O13   O     O_2   0.887112 0.358023 0.742041 -0.380629
O14   O     O_2   0.883445 0.639231 0.240459 -0.364666
O15   O     O_2   0.387139 0.858031 0.742143 -0.380808
O16   O     O_2   0.383388 0.139099 0.240208 -0.361774
O17   O     O_3   0.821138 0.487392 0.046608 -0.584501
O18   O     O_3   0.822141 0.511785 0.552702 -0.585057
O19   O     O_3   0.321165 0.987419 0.046502 -0.584578
O20   O     O_3   0.322123 0.011802 0.552761 -0.584972
O21   O     O_3   0.965211 0.300137 0.662327 -0.557154
O22   O     O_3   0.959656 0.698407 0.166580 -0.524688
O23   O     O_3   0.465236 0.800141 0.662427 -0.557176
O24   O     O_3   0.459633 0.198408 0.168193 -0.521690
H1    H     H_    0.046413 0.328548 0.633902 0.119103
H2    H     H_    0.013730 0.682563 0.978379 0.027697
H3    H     H_    0.546429 0.828549 0.633853 0.119060
H4    H     H_    0.512660 0.183635 0.976601 0.023873
C1    C     C_3   0.052346 0.256962 0.670948 -0.955305
C2    C     C_3   0.057052 0.723013 0.160405 -0.801471
C3    C     C_3   0.552368 0.756966 0.671007 -0.955294
C4    C     C_3   0.557355 0.222215 0.161129 -0.794930
H5    H     H_    0.056970 0.259811 0.802377 0.295101
H6    H     H_    0.075792 0.692329 0.218654 0.278276
H7    H     H_    0.557030 0.759840 0.802428 0.295121
H8    H     H_    0.576079 0.190787 0.214321 0.275530
H9    H     H_    0.028424 0.225377 0.639133 0.255872
H10   H     H_    0.047063 0.748304 0.252848 0.265502
H11   H     H_    0.528431 0.725378 0.639317 0.255856
H12   H     H_    0.548184 0.246546 0.257492 0.268433
P5    P     P_3+3 0.119600 0.450040 0.631910 0.448102
P6    P     P_3+3 0.119600 0.549960 0.131910 0.464688
P7    P     P_3+3 0.619600 0.950040 0.631910 0.448027
P8    P     P_3+3 0.619600 0.049960 0.131910 0.464595
P9    P     P_3+3 0.071378 0.352862 0.073845 0.455040
P10   P     P_3+3 0.066191 0.650136 0.578975 0.440218
P11   P     P_3+3 0.571366 0.852856 0.073865 0.455089
P12   P     P_3+3 0.566214 0.150098 0.578762 0.443335
O25   O     O_2   0.113920 0.434910 0.804950 -0.318453
O26   O     O_2   0.113920 0.565090 0.304950 -0.394934
O27   O     O_2   0.613920 0.934910 0.804950 -0.318520
O28   O     O_2   0.613920 0.065090 0.304950 -0.394840
O29   O     O_3   0.019410 0.395290 0.051170 -0.387569
O30   O     O_3   0.019410 0.604710 0.551170 -0.396542
O31   O     O_3   0.519410 0.895290 0.051170 -0.387537
O32   O     O_3   0.519410 0.104710 0.551170 -0.394060
O33   O     O_2   0.109054 0.355175 0.927959 -0.368721
O34   O     O_2   0.111993 0.644404 0.453401 -0.354230
O35   O     O_2   0.609046 0.855162 0.927989 -0.368701
O36   O     O_2   0.612071 0.144251 0.453409 -0.353710
O37   O     O_3   0.182452 0.483048 0.638272 -0.623534
O38   O     O_3   0.180245 0.514332 0.125605 -0.579438
O39   O     O_3   0.682449 0.983051 0.638259 -0.623581
O40   O     O_3   0.680239 0.014326 0.125609 -0.579469
O41   O     O_3   0.036813 0.300142 0.055976 -0.571420
O42   O     O_3   0.028843 0.699531 0.521293 -0.542876
O43   O     O_3   0.536791 0.800140 0.056003 -0.571467
O44   O     O_3   0.528698 0.199286 0.519914 -0.538824
C5    C     C_3   0.976756 0.306726 0.043199 0.477835
C6    C     C_3   0.971755 0.696059 0.567299 0.513461
C7    C     C_3   0.476735 0.806729 0.043241 0.477943
C8    C     C_3   0.472570 0.196832 0.573680 0.515523
H13   H     H_    0.964424 0.327311 0.937262 0.185769
H14   H     H_    0.948131 0.669787 0.494932 0.161043
H15   H     H_    0.464405 0.827323 0.937329 0.185813
H16   H     H_    0.447211 0.170575 0.505806 0.154679
H17   H     H_    0.961342 0.324355 0.148804 0.043004
H18   H     H_    0.970429 0.687591 0.696021 -0.024670
H19   H     H_    0.461324 0.824353 0.148861 0.042913
H20   H     H_    0.473253 0.188997 0.703198 -0.028727
C9    C     C_3   0.946551 0.261113 0.028738 -0.957064
C10   C     C_3   0.941439 0.741257 0.537626 -0.980727
C11   C     C_3   0.446525 0.761119 0.028735 -0.957081
C12   C     C_3   0.442909 0.242339 0.545609 -0.991290
H21   H     H_    0.899362 0.266291 0.008503 0.228263
H22   H     H_    0.894849 0.738027 0.560067 0.227228
H23   H     H_    0.399339 0.766301 0.008466 0.228210
H24   H     H_    0.397758 0.240626 0.582247 0.226652
H25   H     H_    0.962384 0.241717 0.926732 0.282679
H26   H     H_    0.945493 0.752164 0.411836 0.293414
H27   H     H_    0.462368 0.741726 0.926732 0.282710
H28   H     H_    0.442414 0.251534 0.417185 0.293557
C13   C     C_3   0.192434 0.488706 0.264111 0.518252
C14   C     C_3   0.181189 0.519277 0.745058 0.407823
C15   C     C_3   0.692434 0.988714 0.264145 0.518432
C16   C     C_3   0.681210 0.019250 0.745177 0.407832
H29   H     H_    0.155902 0.487800 0.343037 0.079327
H30   H     H_    0.148779 0.514718 0.835158 0.109820
H31   H     H_    0.655895 0.987795 0.343040 0.079413
H32   H     H_    0.648805 0.014676 0.835277 0.109923
C17   C     C_3   0.246688 0.507904 0.351418 -1.043464
C18   C     C_3   0.241120 0.523078 0.830275 -0.779184
C19   C     C_3   0.746664 0.007944 0.351478 -1.043672
C20   C     C_3   0.741151 0.023015 0.830363 -0.779101
H33   H     H_    0.237047 0.540457 0.408669 0.278696
H34   H     H_    0.251227 0.491653 0.898805 0.260346
H35   H     H_    0.736977 0.040478 0.408789 0.278696
H36   H     H_    0.751243 0.991574 0.898816 0.260214
H37   H     H_    0.263760 0.484412 0.446063 0.247116
H38   H     H_    0.242865 0.552362 0.913529 0.222173
H39   H     H_    0.763769 0.984454 0.446087 0.247132
H40   H     H_    0.742925 0.052285 0.913682 0.222313
H41   H     H_    0.280996 0.513512 0.266363 0.257043
H42   H     H_    0.274701 0.527569 0.742309 0.241044
H43   H     H_    0.780962 0.013594 0.266433 0.257053
H44   H     H_    0.774726 0.027510 0.742380 0.241021
Ba1   Ba    Ba6+2 0.999920 0.467660 0.844980 1.564716
Ba2   Ba    Ba6+2 0.999920 0.532340 0.344980 1.568498
Ba3   Ba    Ba6+2 0.499920 0.967660 0.844980 1.564828
Ba4   Ba    Ba6+2 0.499920 0.032340 0.344980 1.569541
C21   C     C_3   0.836317 0.529171 0.983635 0.463238
C22   C     C_3   0.835954 0.471417 0.477745 0.450287
C23   C     C_3   0.336423 0.029217 0.983823 0.462843
C24   C     C_3   0.335920 0.971431 0.477798 0.449561
H45   H     H_    0.863426 0.524847 0.880432 0.088012
H46   H     H_    0.859425 0.477873 0.369094 0.099250
H47   H     H_    0.363532 0.024916 0.880606 0.087928
H48   H     H_    0.359308 0.977890 0.369003 0.099258
H49   H     H_    0.859822 0.549552 0.077308 0.134078
H50   H     H_    0.862315 0.449795 0.561987 0.126938
H51   H     H_    0.359961 0.049528 0.077628 0.134173
H52   H     H_    0.362352 0.949831 0.561947 0.126880
C25   C     C_3   0.780876 0.553673 0.928567 -0.881262
C26   C     C_3   0.779575 0.447389 0.430602 -0.883390
C27   C     C_3   0.281033 0.053808 0.928898 -0.881479
C28   C     C_3   0.279538 0.947369 0.430966 -0.882902
H53   H     H_    0.762925 0.538535 0.815519 0.242204
H54   H     H_    0.755523 0.466755 0.334995 0.251137
H55   H     H_    0.263041 0.038728 0.815798 0.241975
H56   H     H_    0.255382 0.966735 0.335550 0.251160
H57   H     H_    0.789006 0.590172 0.910090 0.215849
H58   H     H_    0.787659 0.412698 0.387433 0.222056
H59   H     H_    0.289240 0.090302 0.910575 0.216033
H60   H     H_    0.287632 0.912696 0.387631 0.221988
H61   H     H_    0.748078 0.550486 0.018971 0.312493
H62   H     H_    0.752437 0.445032 0.534918 0.314250
H63   H     H_    0.248236 0.050631 0.019309 0.312717
H64   H     H_    0.252503 0.944967 0.535487 0.314218
O45   O     O_3   0.066460 0.522600 0.056690 -0.370132
O46   O     O_3   0.066460 0.477400 0.556690 -0.405564
O47   O     O_3   0.566460 0.022600 0.056690 -0.370256
O48   O     O_3   0.566460 0.977400 0.556690 -0.405601
P13   P     P_3+3 0.927409 0.646649 0.111284 0.446040
P14   P     P_3+3 0.930570 0.351588 0.611197 0.417286
P15   P     P_3+3 0.427482 0.146712 0.111518 0.449746
P16   P     P_3+3 0.430585 0.851587 0.611278 0.417243
C29   C     C_3   0.020222 0.298144 0.599416 0.525076
C30   C     C_3   0.002429 0.710379 0.060983 0.493553
C31   C     C_3   0.520234 0.798140 0.599447 0.525136
C32   C     C_3   0.502117 0.210862 0.062357 0.493773
H65   H     H_    0.096360 0.254787 0.625816 0.214179
H66   H     H_    0.089514 0.737998 0.084218 0.189106
H67   H     H_    0.596367 0.754775 0.625786 0.214185
H68   H     H_    0.589525 0.237860 0.085430 0.186966
H69   H     H_    0.954901 0.241313 0.140093 0.254999
H70   H     H_    0.961046 0.767653 0.618384 0.242122
H71   H     H_    0.454863 0.741313 0.140082 0.254982
H72   H     H_    0.466206 0.269113 0.616366 0.246186
C33   C     C_R   0.757121 0.288768 0.996638 -0.118793
C34   C     C_R   0.752794 0.710879 0.501662 -0.062223
C35   C     C_R   0.257197 0.788746 0.996741 -0.118876
C36   C     C_R   0.253037 0.210983 0.501402 -0.060259
C37   C     C_R   0.767129 0.327837 0.903464 -0.117944
C38   C     C_R   0.745989 0.667252 0.431307 -0.083883
C39   C     C_R   0.267193 0.827824 0.903594 -0.116969
C40   C     C_R   0.246201 0.167344 0.431144 -0.084441
C41   C     C_R   0.175480 0.761430 0.819448 -0.235631
C42   C     C_R   0.207436 0.253676 0.271905 -0.234491
C43   C     C_R   0.675286 0.261498 0.819593 -0.235252
C44   C     C_R   0.707263 0.753586 0.272122 -0.234538
C45   C     C_R   0.216532 0.754527 0.947230 0.068898
C46   C     C_R   0.225334 0.250503 0.434923 0.038711
C47   C     C_R   0.716420 0.254563 0.947185 0.068760
C48   C     C_R   0.725132 0.750410 0.435159 0.039145
C49   C     C_R   0.139965 0.726790 0.761506 -0.173131
C50   C     C_R   0.171537 0.288490 0.214932 -0.127066
C51   C     C_R   0.639702 0.226875 0.761764 -0.174492
C52   C     C_R   0.671432 0.788431 0.215077 -0.127154
C53   C     C_R   0.139014 0.684881 0.838934 0.032975
C54   C     C_R   0.155450 0.323464 0.316194 -0.034586
C55   C     C_R   0.638852 0.184936 0.839002 0.034130
C56   C     C_R   0.655380 0.823428 0.316291 -0.034687
C57   C     C_R   0.174392 0.678589 0.980199 0.020936
C58   C     C_R   0.181587 0.325353 0.472616 -0.007295
C59   C     C_R   0.674323 0.178608 0.980083 0.021402
C60   C     C_R   0.681491 0.825304 0.472743 -0.007339
C61   C     C_R   0.213605 0.713511 0.034250 0.054037
C62   C     C_R   0.217389 0.288967 0.531585 0.058977
C63   C     C_R   0.713540 0.213529 0.034111 0.054036
C64   C     C_R   0.717223 0.788886 0.531791 0.059030
C65   C     C_R   0.101375 0.650084 0.783790 0.183647
C66   C     C_R   0.114647 0.356819 0.265557 0.234725
C67   C     C_R   0.601222 0.150136 0.783850 0.180559
C68   C     C_R   0.614629 0.856810 0.265583 0.234934
C69   C     C_R   0.093693 0.611939 0.880404 -0.507051
C70   C     C_R   0.101680 0.392102 0.369227 -0.537176
C71   C     C_R   0.593584 0.111974 0.880447 -0.504754
C72   C     C_R   0.601688 0.892109 0.369210 -0.536968
C73   C     C_R   0.128254 0.604538 0.020294 0.248025
C74   C     C_R   0.131152 0.396968 0.518173 0.217634
C75   C     C_R   0.628219 0.104544 0.020214 0.246967
C76   C     C_R   0.631144 0.896964 0.518185 0.217524
C77   C     C_R   0.170249 0.637740 0.068077 -0.054084
C78   C     C_R   0.172366 0.363658 0.569535 -0.068373
C79   C     C_R   0.670245 0.137734 0.067864 -0.055132
C80   C     C_R   0.672311 0.863625 0.569617 -0.068405
C81   C     C_R   0.787737 0.284706 0.146818 0.060143
C82   C     C_R   0.783080 0.713950 0.652300 0.040300
C83   C     C_R   0.287778 0.784698 0.146966 0.060071
C84   C     C_R   0.283353 0.214073 0.652000 0.042083
C85   C     C_R   0.824270 0.320879 0.204698 0.020809
C86   C     C_R   0.818510 0.677110 0.709497 0.021133
C87   C     C_R   0.324294 0.820880 0.204839 0.020933
C88   C     C_R   0.318763 0.177229 0.709275 0.021289
C89   C     C_R   0.827103 0.362061 0.117112 -0.194760
C90   C     C_R   0.822229 0.636527 0.618733 -0.140446
C91   C     C_R   0.327110 0.862065 0.117252 -0.194810
C92   C     C_R   0.322395 0.136606 0.618693 -0.138918
C93   C     C_R   0.789626 0.366955 0.979752 0.020841
C94   C     C_R   0.780069 0.630286 0.490536 -0.055982
C95   C     C_R   0.289619 0.866952 0.979935 0.020338
C96   C     C_R   0.280206 0.130361 0.490575 -0.055741
H73   H     H_    0.063248 0.586095 0.840148 0.164825
H74   H     H_    0.070001 0.417252 0.330305 0.193401
H75   H     H_    0.563149 0.086122 0.840202 0.164380
H76   H     H_    0.570041 0.917278 0.330240 0.193367
H77   H     H_    0.111393 0.734402 0.659596 0.185746
H78   H     H_    0.156912 0.287573 0.090543 0.180934
H79   H     H_    0.610988 0.234503 0.660130 0.183984
H80   H     H_    0.656830 0.787521 0.090670 0.180918
C97   C     C_R   0.208042 0.631605 0.201991 -0.068531
C98   C     C_R   0.205602 0.367662 0.713323 -0.034833
C99   C     C_R   0.708099 0.131578 0.201634 -0.068606
C100  C     C_R   0.705531 0.867608 0.713442 -0.034603
C101  C     C_R   0.245982 0.665474 0.255439 -0.167258
C102  C     C_R   0.240289 0.332263 0.771541 -0.202593
C103  C     C_R   0.746036 0.165450 0.255072 -0.167070
C104  C     C_R   0.740142 0.832175 0.771752 -0.202542
C105  C     C_R   0.248190 0.707738 0.177215 0.028543
C106  C     C_R   0.244794 0.291279 0.686269 0.034008
C107  C     C_R   0.748176 0.207736 0.176980 0.028609
C108  C     C_R   0.744598 0.791180 0.686516 0.033333
C109  C     C_R   0.783264 0.244292 0.237552 0.076014
C110  C     C_R   0.777623 0.753532 0.747279 0.069806
C111  C     C_R   0.283293 0.744291 0.237740 0.076198
C112  C     C_R   0.277877 0.253656 0.746978 0.067696
C113  C     C_R   0.813305 0.242190 0.388074 -0.217785
C114  C     C_R   0.803196 0.753165 0.903576 -0.217124
C115  C     C_R   0.313346 0.742193 0.388242 -0.217752
C116  C     C_R   0.303470 0.253308 0.903258 -0.217358
C117  C     C_R   0.855346 0.316735 0.354355 0.041505
C118  C     C_R   0.848648 0.680413 0.860934 0.012145
C119  C     C_R   0.355372 0.816741 0.354478 0.041412
C120  C     C_R   0.348914 0.180552 0.860712 0.010177
C121  C     C_R   0.848428 0.277383 0.444356 -0.161247
C122  C     C_R   0.837482 0.717410 0.958965 -0.153166
C123  C     C_R   0.348473 0.777386 0.444482 -0.161410
C124  C     C_R   0.337765 0.217563 0.958672 -0.155124
C125  C     C_R   0.892135 0.352139 0.410489 0.205859
C126  C     C_R   0.888860 0.646643 0.910809 0.132713
C127  C     C_R   0.392148 0.852149 0.410594 0.205906
C128  C     C_R   0.389082 0.146767 0.910724 0.131026
C129  C     C_R   0.900498 0.389666 0.312766 -0.515774
C130  C     C_R   0.899837 0.610934 0.807981 -0.511428
C131  C     C_R   0.400497 0.889684 0.312872 -0.515589
C132  C     C_R   0.399991 0.111005 0.807974 -0.511599
C133  C     C_R   0.867638 0.396327 0.169572 0.221852
C134  C     C_R   0.865767 0.603560 0.667319 0.224447
C135  C     C_R   0.367635 0.896339 0.169672 0.221561
C136  C     C_R   0.365872 0.103602 0.667358 0.224636
H81   H     H_    0.208700 0.600618 0.268635 0.170861
H82   H     H_    0.205456 0.398095 0.783936 0.204529
H83   H     H_    0.708799 0.100574 0.268184 0.170724
H84   H     H_    0.705424 0.898050 0.784018 0.204397
H85   H     H_    0.869355 0.273219 0.561322 0.178806
H86   H     H_    0.856052 0.719916 0.079382 0.182541
H87   H     H_    0.369408 0.773221 0.561434 0.178799
H88   H     H_    0.356327 0.220078 0.079092 0.182123
H89   H     H_    0.931150 0.415347 0.353172 0.172502
H90   H     H_    0.932666 0.586439 0.844625 0.172237
H91   H     H_    0.431142 0.915370 0.353271 0.172527
H92   H     H_    0.432770 0.086478 0.844695 0.172166
H93   H     H_    0.168934 0.794143 0.763959 0.138870
H94   H     H_    0.221123 0.229248 0.185901 0.169411
H95   H     H_    0.668730 0.294226 0.764213 0.138412
H96   H     H_    0.720926 0.729139 0.186151 0.169310
H97   H     H_    0.273589 0.657101 0.358581 0.141482
H98   H     H_    0.263773 0.338576 0.883520 0.138746
H99   H     H_    0.773699 0.157064 0.358090 0.141339
H100  H     H_    0.763613 0.838468 0.883767 0.138735
H101  H     H_    0.809604 0.214018 0.468301 0.140316
H102  H     H_    0.797180 0.779980 0.987975 0.136599
H103  H     H_    0.309662 0.714022 0.468481 0.140252
H104  H     H_    0.297457 0.280125 0.987652 0.136948
N1    N     N_3   0.014238 0.293641 0.425979 -0.198673
H105  H     H_    0.010430 0.326373 0.379995 0.049678
H106  H     H_    0.052281 0.280630 0.383091 0.119359
N2    N     N_3   0.982991 0.749864 0.967676 -0.202016
H107  H     H_    0.013728 0.756962 0.884682 0.079694
H108  H     H_    0.945445 0.741137 0.901102 0.094698
N3    N     N_3   0.514218 0.793616 0.426020 -0.198687
H109  H     H_    0.510422 0.826344 0.379995 0.049603
H110  H     H_    0.552243 0.780584 0.383097 0.119406
N4    N     N_3   0.482829 0.251208 0.973613 -0.201452
H111  H     H_    0.513756 0.259121 0.891989 0.079594
H112  H     H_    0.445385 0.243026 0.905224 0.095592
C137  C     C_2   0.755146 0.409069 0.960500 0.637632
H113  H     H_    0.749454 0.430207 0.063767 0.013428
O49   O     O_2   0.729898 0.419338 0.834460 -0.561434
C138  C     C_2   0.759729 0.584451 0.447120 0.685679
H114  H     H_    0.738760 0.564205 0.534703 -0.023688
O50   O     O_2   0.765503 0.569306 0.313834 -0.537243
C139  C     C_2   0.255059 0.909033 0.960788 0.637266
H115  H     H_    0.249606 0.930276 0.063938 0.014030
O51   O     O_2   0.229392 0.919111 0.835075 -0.561475
C140  C     C_2   0.259738 0.084528 0.447564 0.684314
H116  H     H_    0.238823 0.064351 0.535436 -0.023536
O52   O     O_2   0.265367 0.069302 0.314323 -0.537110
C141  C     C_2   0.765746 0.324965 0.725989 0.637837
H117  H     H_    0.762395 0.292244 0.667681 -0.015980
O53   O     O_2   0.770442 0.358430 0.642690 -0.558574
C142  C     C_2   0.694621 0.658170 0.321038 0.468996
H118  H     H_    0.653103 0.672602 0.346626 0.025298
O54   O     O_2   0.698844 0.636753 0.197883 -0.540610
C143  C     C_2   0.265871 0.824974 0.726129 0.638379
H119  H     H_    0.262608 0.792258 0.667773 -0.016305
O55   O     O_2   0.270504 0.858461 0.642906 -0.558773
C144  C     C_2   0.194862 0.158266 0.320772 0.469517
H120  H     H_    0.153328 0.172673 0.346325 0.024985
O56   O     O_2   0.199134 0.136879 0.197572 -0.540375
C145  C     C_2   0.205485 0.440802 0.216772 0.456055
H121  H     H_    0.221687 0.416854 0.306439 -0.021306
O57   O     O_2   0.198602 0.428260 0.078636 -0.567327
C146  C     C_2   0.166115 0.561043 0.651400 0.416791
H122  H     H_    0.123312 0.563276 0.595083 0.108865
O58   O     O_2   0.200210 0.592181 0.638487 -0.594998
C147  C     C_2   0.705520 0.940812 0.216850 0.455618
H123  H     H_    0.721838 0.916902 0.306473 -0.021111
O59   O     O_2   0.698526 0.928229 0.078788 -0.567286
C148  C     C_2   0.666142 0.061045 0.651676 0.416598
H124  H     H_    0.623356 0.063278 0.595245 0.108557
O60   O     O_2   0.700226 0.092200 0.638981 -0.594845

loop_
_geom_bond_atom_site_label_1
_geom_bond_atom_site_label_2
_geom_bond_distance
_ccdc_geom_bond_type
C15   H31   1.105373 S    
C107  C109  1.429292 A    
C101  C105  1.412435 A    
C11   H23   1.109610 S    
C20   H44   1.111492 S    
C2    H10   1.110673 S    
C112  C116  1.410228 A    
C40   C144  1.493046 S    
C141  H117  1.083934 S    
C119  C127  1.414568 A    
C23   C27   1.524879 S    
C109  C113  1.410630 A    
C70   H74   1.082138 S    
O38   C13   1.402954 S    
C77   C97   1.398954 A    
C111  C115  1.410597 A    
C3    H7    1.106208 S    
C81   C85   1.432565 A    
C16   H32   1.104662 S    
C46   C62   1.413746 A    
C129  C133  1.401513 A    
C88   C120  1.420566 A    
C101  H97   1.077013 S    
C128  C132  1.395412 A    
C138  H114  1.084313 S    
C34   C82   1.415631 A    
O42   C6    1.404817 S    
C30   N2    1.461515 S    
C131  C135  1.401556 A    
P4    O8    1.571179 S    
C28   H64   1.109431 S    
C13   C17   1.531026 S    
C80   C100  1.401407 A    
P9    O41   1.754513 S    
C18   H42   1.111492 S    
C58   C78   1.416341 A    
P11   O43   1.754515 S    
C84   C88   1.429792 A    
C40   C96   1.420791 A    
C123  H87   1.078281 S    
P3    Ba3   3.426885 S    
C63   C107  1.416908 A    
Ba3   O48   2.957628 S    
O27   Ba3   2.853997 S    
O30   Ba2   2.771816 S    
Ba1   O46   2.957628 S    
C97   H81   1.072107 S    
C10   H22   1.112358 S    
P13   C126  1.862141 S    
C144  H120  1.085742 S    
C94   C138  1.472852 S    
P5    Ba1   3.426652 S    
C14   H30   1.104691 S    
C9    H69   1.110571 S    
C1    C29   1.530796 S    
P12   O44   1.749547 S    
P7    Ba3   3.426652 S    
C89   C133  1.434935 A    
C68   C72   1.400727 A    
C11   H71   1.110567 S    
P7    C76   1.861960 S    
P16   C127  1.862629 S    
Ba1   O45   2.806781 S    
O39   C16   1.397136 S    
C99   H83   1.072109 S    
P8    O47   1.577624 S    
C49   H77   1.076756 S    
C60   C80   1.416339 A    
C4    H12   1.111321 S    
H2    C30   1.115438 S    
C52   C56   1.401152 A    
C139  O51   1.219723 D    
P6    O45   1.577624 S    
C73   C77   1.425104 A    
O3    Ba3   2.854848 S    
C142  H118  1.085735 S    
C37   C93   1.407507 A    
C90   C134  1.444710 A    
C14   C18   1.532975 S    
C41   H93   1.079249 S    
O12   Ba4   2.769300 S    
C1    H9    1.110859 S    
O11   P16   1.738732 S    
O14   P13   1.546023 D    
C86   C90   1.425151 A    
P2    O18   1.749066 S    
C83   C111  1.422740 A    
C87   C119  1.418989 A    
C62   C106  1.415966 A    
C131  H91   1.081969 S    
C146  H122  1.078418 S    
C90   C94   1.426213 A    
P10   O42   1.750250 S    
C23   H47   1.106381 S    
P3    O7    1.572583 S    
C39   C143  1.491310 S    
P9    C66   1.853357 S    
C22   H50   1.110593 S    
C137  H113  1.082393 S    
C35   C83   1.417735 A    
P6    Ba2   3.427601 S    
P5    O46   1.576204 S    
C42   C50   1.390528 A    
C7    H15   1.101798 S    
C100  C104  1.390721 A    
P1    C133  1.882626 S    
C37   C141  1.491385 S    
O7    Ba4   2.808710 S    
C4    H68   1.108528 S    
Ba3   Ba4   4.612753 S    
O15   P16   1.544094 D    
C91   C135  1.434846 A    
C69   H73   1.081952 S    
C64   C108  1.415979 A    
C83   C87   1.432525 A    
C130  H90   1.082212 S    
C92   C96   1.426173 A    
P9    O29   1.741229 S    
N2    H107  1.046209 S    
P4    Ba4   3.425957 S    
N4    H112  1.043421 S    
P12   O32   1.733532 S    
O23   C31   1.410107 S    
C27   H55   1.109525 S    
C120  C124  1.400292 A    
O21   C29   1.410131 S    
C108  C110  1.427630 A    
C58   C62   1.429062 A    
C103  H99   1.077033 S    
C104  H100  1.076790 S    
C65   C69   1.405297 A    
C3    H11   1.110872 S    
C113  C121  1.388085 A    
C115  C123  1.388034 A    
P8    C75   1.881051 S    
P5    O25   1.532996 D    
C67   C71   1.405471 A    
C113  H101  1.076897 S    
C110  C114  1.410188 A    
C119  C123  1.400280 A    
C85   C117  1.419108 A    
C55   C59   1.416963 A    
N1    H106  1.044944 S    
C16   C20   1.532982 S    
C53   C65   1.410796 A    
C59   C79   1.420092 A    
C31   N3    1.461469 S    
C74   C78   1.421449 A    
C38   C94   1.420799 A    
C102  H98   1.076778 S    
C48   C64   1.413750 A    
C6    C10   1.521957 S    
C56   C68   1.414477 A    
C121  H85   1.078297 S    
C132  H92   1.082190 S    
C21   H45   1.106372 S    
O9    Ba1   2.770092 S    
C66   C70   1.400753 A    
C60   C64   1.429056 A    
P6    C73   1.880687 S    
C120  C128  1.412481 A    
C5    C9    1.520689 S    
C117  C125  1.414682 A    
P5    O37   1.753869 S    
Ba2   O45   2.957289 S    
C98   H82   1.076629 S    
P14   C125  1.862790 S    
C4    C32   1.525592 S    
C7    C11   1.520687 S    
C97   C101  1.391050 A    
C33   C47   1.429529 A    
C5    H13   1.101827 S    
C36   C84   1.415695 A    
C10   H70   1.113957 S    
C19   H35   1.102871 S    
C1    H65   1.111215 S    
C76   C80   1.421482 A    
C2    C30   1.525611 S    
C99   C103  1.391043 A    
C69   C73   1.402246 A    
C24   C28   1.522292 S    
C44   H96   1.080621 S    
C54   C58   1.417113 A    
O8    Ba3   2.806705 S    
C26   H58   1.105787 S    
H4    C32   1.115285 S    
C27   H63   1.108811 S    
P4    C136  1.878840 S    
C89   C93   1.412975 A    
C51   C55   1.398451 A    
C43   H95   1.079280 S    
C49   C53   1.398493 A    
C36   C40   1.422402 A    
C138  O50   1.219559 D    
C148  H124  1.078423 S    
Ba4   O47   2.957289 S    
O21   P14   1.759901 S    
O20   C24   1.393228 S    
C91   C95   1.412856 A    
C38   C142  1.493093 S    
C102  C106  1.412729 A    
C12   H28   1.111569 S    
O10   Ba2   2.769300 S    
P12   C67   1.863072 S    
C42   H94   1.080629 S    
C87   C91   1.424506 A    
C33   C81   1.417809 A    
C8    H20   1.111248 S    
P2    C134  1.878126 S    
Ba3   O47   2.806781 S    
C140  O52   1.219563 D    
P1    O1    1.532360 D    
P15   C128  1.863013 S    
O28   Ba4   2.856015 S    
C25   H57   1.106579 S    
C23   H51   1.109764 S    
O37   C14   1.397124 S    
P6    O38   1.759632 S    
P3    O3    1.532360 D    
C24   H52   1.110610 S    
C98   C102  1.390674 A    
P4    O20   1.749063 S    
C144  O56   1.220752 D    
C16   C148  1.493282 S    
P7    O48   1.576204 S    
C22   H46   1.105133 S    
C47   C63   1.417946 A    
C42   C46   1.411453 A    
C45   C61   1.417971 A    
C117  C121  1.400272 A    
C17   H33   1.102886 S    
C41   C49   1.385525 A    
C147  H123  1.084413 S    
C44   C52   1.390491 A    
O41   C5    1.405684 S    
C145  O57   1.219772 D    
C34   C38   1.422323 A    
P4    O4    1.532447 D    
C141  O53   1.219044 D    
P7    O27   1.532996 D    
N3    H109  1.042478 S    
C116  C124  1.385972 A    
C126  C130  1.394966 A    
C59   C63   1.433104 A    
C17   H41   1.111568 S    
C6    H18   1.111627 S    
C57   C77   1.420030 A    
C19   H43   1.111534 S    
P2    Ba2   3.425957 S    
O31   Ba3   2.771034 S    
P9    O33   1.545974 D    
O10   P13   1.748692 S    
P10   O30   1.734264 S    
C8    H16   1.111793 S    
P1    O5    1.572583 S    
C142  O54   1.220741 D    
P12   O36   1.547773 D    
C56   C60   1.417103 A    
C9    H21   1.109613 S    
O4    Ba4   2.852854 S    
C21   C25   1.524911 S    
O22   C30   1.412851 S    
C125  C129  1.398900 A    
C20   H36   1.109727 S    
C127  C131  1.398994 A    
C43   C47   1.409816 A    
C35   C45   1.429401 A    
C105  C111  1.429300 A    
C103  C107  1.412406 A    
C143  H119  1.083906 S    
C106  C112  1.427609 A    
P6    O26   1.532908 D    
C146  O58   1.222508 D    
P5    C74   1.861940 S    
P11   O35   1.545953 D    
C12   H24   1.109939 S    
C114  H102  1.076730 S    
Ba1   Ba2   4.612753 S    
C72   H76   1.082138 S    
C5    H17   1.104700 S    
C50   H78   1.080622 S    
C14   C146  1.493298 S    
C26   H54   1.110255 S    
C79   C99   1.398941 A    
O17   C21   1.395312 S    
C88   C92   1.425135 A    
O19   C23   1.395359 S    
C17   H37   1.110930 S    
C25   H53   1.109548 S    
C96   C140  1.472920 S    
C28   H56   1.110284 S    
C122  H86   1.079568 S    
C147  O59   1.219759 D    
C15   C19   1.531022 S    
C51   H79   1.076984 S    
C20   H40   1.111250 S    
C139  H115  1.082485 S    
O25   Ba1   2.853997 S    
C140  H116  1.084301 S    
C7    H19   1.104695 S    
C118  C126  1.412550 A    
C61   C105  1.416875 A    
N2    H108  1.041606 S    
C52   H80   1.080623 S    
C3    C31   1.530807 S    
C55   C67   1.410727 A    
C6    H14   1.111564 S    
C95   C139  1.482021 S    
C2    H66   1.107898 S    
C71   C75   1.402442 A    
P1    O17   1.749675 S    
C12   H72   1.111576 S    
P3    O19   1.749692 S    
O44   C8    1.404530 S    
O6    Ba1   2.806705 S    
C28   H60   1.105809 S    
N1    H105  1.042479 S    
C26   H62   1.109378 S    
C93   C137  1.481916 S    
C27   H59   1.106590 S    
O11   Ba3   2.770092 S    
C18   H38   1.111246 S    
C78   C98   1.401391 A    
C75   C79   1.425079 A    
C15   C147  1.504151 S    
O18   C22   1.393220 S    
C114  C122  1.386038 A    
C82   C86   1.429751 A    
O1    Ba1   2.854848 S    
O22   P13   1.753524 S    
O32   Ba4   2.771816 S    
C10   H26   1.113375 S    
C34   C48   1.429960 A    
C72   C76   1.399401 A    
C137  O49   1.219170 D    
O16   P15   1.545961 D    
C3    H67   1.111212 S    
C57   C61   1.433123 A    
C8    C12   1.521363 S    
C84   C112  1.424425 A    
P3    C135  1.882779 S    
O26   Ba2   2.856015 S    
O12   P15   1.748647 S    
Ba2   O46   2.804774 S    
C25   H61   1.108834 S    
P2    O2    1.532447 D    
C9    H25   1.109704 S    
C81   C109  1.422697 A    
C24   H48   1.105152 S    
P7    O39   1.753859 S    
O5    Ba2   2.808710 S    
C13   C145  1.504149 S    
C54   C66   1.414516 A    
H3    C31   1.113977 S    
N3    H110  1.044941 S    
H1    C29   1.113978 S    
C4    H8    1.107644 S    
C39   C95   1.407383 A    
C118  C122  1.400393 A    
C100  H84   1.076644 S    
C41   C45   1.409635 A    
P11   C68   1.853322 S    
C35   C39   1.420401 A    
O23   P16   1.759901 S    
C70   C74   1.399400 A    
O24   P15   1.753864 S    
P8    O40   1.759624 S    
C44   C48   1.411443 A    
C11   H27   1.109706 S    
N4    H111  1.046475 S    
C33   C37   1.420381 A    
C92   C136  1.444666 A    
O13   P14   1.544124 D    
C19   H39   1.110926 S    
C82   C110  1.424353 A    
C86   C118  1.420396 A    
C32   N4    1.461653 S    
C143  O55   1.219027 D    
C148  O60   1.222505 D    
Ba4   O48   2.804774 S    
C29   N1    1.461467 S    
P10   O34   1.547814 D    
C71   H75   1.081941 S    
P11   O31   1.741168 S    
O2    Ba2   2.852854 S    
P2    O6    1.571179 S    
O9    P14   1.738992 S    
O24   C32   1.412890 S    
C1    H5    1.106186 S    
C18   H34   1.109721 S    
C21   H49   1.109788 S    
P8    O28   1.532908 D    
C116  H104  1.076745 S    
C22   C26   1.522319 S    
P1    Ba1   3.426885 S    
C2    H6    1.106638 S    
C132  C136  1.402096 A    
C43   C51   1.385780 A    
P8    Ba4   3.427601 S    
C36   C46   1.430016 A    
C104  C108  1.412729 A    
O40   C15   1.402958 S    
C115  H103  1.076874 S    
C124  H88   1.079562 S    
O43   C7    1.405677 S    
C53   C57   1.416912 A    
C50   C54   1.401168 A    
O29   Ba1   2.771034 S    
P10   C65   1.862582 S    
C129  H89   1.081969 S    
C85   C89   1.424463 A    
C130  C134  1.401711 A    
C145  H121  1.084553 S    
C13   H29   1.105400 S    
