data_mof_unit_35297.cif
_audit_creation_date              2012-12-10T17:03:25-0500
_audit_creation_method            fapswitch 2.2
_symmetry_space_group_name_H-M    P1
_symmetry_Int_Tables_number       1
_space_group_crystal_system       triclinic
_cell_length_a                    15.081197
_cell_length_b                    11.067672
_cell_length_c                    9.831167
_cell_angle_alpha                 111.853569
_cell_angle_beta                  97.536617
_cell_angle_gamma                 91.253063
_cell_volume                      1505.41502554

loop_
_atom_site_label
_atom_site_type_symbol
_atom_type_description
_atom_site_fract_x
_atom_site_fract_y
_atom_site_fract_z
_atom_type_partial_charge
C1    C     C_R   0.493497 0.253388 0.439241 0.715295
C2    C     C_R   0.506500 0.746612 0.560759 0.715292
C3    C     C_R   0.028385 0.275963 0.316018 0.463109
C4    C     C_R   0.971610 0.724064 0.683929 0.463106
C5    C     C_2   0.490505 0.111904 0.402566 0.206705
C6    C     C_2   0.509482 0.888096 0.597434 0.206704
C7    C     C_2   0.500687 0.069478 0.513948 -0.117244
C8    C     C_2   0.499252 0.930520 0.486052 -0.117245
C9    C     C_2   0.507671 0.510338 0.081363 -0.047875
C10   C     C_2   0.492329 0.489662 0.918637 -0.047868
C11   C     C_R   0.329470 0.501607 0.502506 0.813787
C12   C     C_R   0.670529 0.498393 0.497494 0.813782
C13   C     C_R   0.820918 0.614050 0.580079 0.353170
C14   C     C_R   0.179079 0.385969 0.419884 0.353153
C15   C     C_R   0.766379 0.498930 0.492893 -0.196646
C16   C     C_R   0.233621 0.501077 0.507101 -0.196648
C17   C     C_R   0.803427 0.384449 0.407069 0.095195
C18   C     C_R   0.196575 0.615558 0.592930 0.095194
C19   C     C_R   0.896990 0.387123 0.406037 0.083545
C20   C     C_R   0.103009 0.612892 0.593942 0.083549
C21   C     C_R   0.952895 0.500156 0.498679 -0.095135
C22   C     C_R   0.047103 0.499861 0.501293 -0.095132
C23   C     C_R   0.914860 0.613309 0.588661 0.036544
C24   C     C_R   0.085137 0.386713 0.411300 0.036536
C25   C     C_R   0.935795 0.277824 0.314864 -0.306713
C26   C     C_R   0.064202 0.722198 0.685098 -0.306715
Cu1   Cu    Cu3+1 0.515770 0.521810 0.644910 0.971127
Cu2   Cu    Cu3+1 0.484230 0.478190 0.355090 0.971135
H1    H     H_    0.894505 0.191805 0.240143 0.159612
H2    H     H_    0.105491 0.808221 0.759814 0.159611
H3    H     H_    0.489538 0.861461 0.371741 0.193544
H4    H     H_    0.510368 0.138536 0.628258 0.193530
H5    H     H_    0.439791 0.417560 0.845510 0.162009
H6    H     H_    0.560209 0.582440 0.154489 0.162021
H7    H     H_    0.588909 0.622454 0.934604 0.208562
H8    H     H_    0.411091 0.377546 0.065396 0.208566
N1    N     N_2   0.460520 0.445420 0.137370 -0.276838
N2    N     N_2   0.539480 0.554580 0.862630 -0.276835
O1    O     O_R   0.508410 0.332340 0.577400 -0.594381
O2    O     O_R   0.491590 0.667660 0.422600 -0.594385
O3    O     O_R   0.481780 0.295500 0.332650 -0.571216
O4    O     O_R   0.518220 0.704500 0.667350 -0.571223
O5    O     O_R   0.383570 0.518390 0.622380 -0.575529
O6    O     O_R   0.616430 0.481610 0.377620 -0.575521
O7    O     O_R   0.356940 0.481550 0.377630 -0.546290
O8    O     O_R   0.643060 0.518450 0.622370 -0.546305
O9    O     O_3   0.783757 0.728216 0.658071 -0.644093
H9    H     H_    0.722390 0.729653 0.608905 0.309263
O10   O     O_3   0.216236 0.271812 0.341857 -0.644083
H10   H     H_    0.277589 0.270340 0.391051 0.309257
C27   C     C_3   0.744576 0.258199 0.321168 -0.786591
H11   H     H_    0.771353 0.178476 0.353494 0.228512
H12   H     H_    0.674259 0.262299 0.342207 0.229025
H13   H     H_    0.743391 0.231708 0.200317 0.240247
C28   C     C_3   0.255429 0.741802 0.678849 -0.786591
H14   H     H_    0.228665 0.821532 0.646522 0.228497
H15   H     H_    0.256601 0.768291 0.799698 0.240253
H16   H     H_    0.325750 0.737697 0.657830 0.229037
O11   O     O_3   0.063866 0.166797 0.222993 -0.653083
H17   H     H_    0.015083 0.098777 0.163925 0.319557
O12   O     O_3   0.936126 0.833240 0.776929 -0.653080
H18   H     H_    0.984908 0.901266 0.835985 0.319557
O13   O     O_3   0.522099 0.977259 0.742762 -0.728418
H19   H     H_    0.527363 0.929921 0.810939 0.351259
O14   O     O_3   0.477931 0.022743 0.257238 -0.728423
H20   H     H_    0.472716 0.070083 0.189064 0.351256

loop_
_geom_bond_atom_site_label_1
_geom_bond_atom_site_label_2
_ccdc_geom_bond_type
C6    O13   S    
C4    C26   A    
C28   H14   S    
C4    O12   S    
C11   O5    A    
Cu1   O5    S    
C11   C16   S    
C18   C20   A    
O9    H9    S    
C12   C15   S    
C3    C25   A    
C10   N2    D    
C27   H13   S    
C17   C27   S    
C22   C24   A    
C9    N1    D    
O11   H17   S    
C12   O6    A    
C16   C18   A    
C21   C22   A    
O14   H20   S    
Cu1   O4    S    
C3    C24   A    
C2    C6    S    
C20   C26   A    
Cu2   N1    S    
C2    O4    A    
C1    C5    S    
C18   C28   S    
Cu1   O8    S    
C1    O3    A    
H8    N1    S    
C17   C19   A    
C20   C22   A    
C26   H2    S    
C10   H5    S    
C5    C7    D    
C28   H15   S    
C13   C15   A    
C25   H1    S    
C9    H6    S    
C19   C25   A    
C14   C16   A    
Cu2   O7    S    
C11   O7    A    
C14   O10   S    
O12   H18   S    
C1    O1    A    
Cu1   N2    S    
O13   H19   S    
C2    O2    A    
Cu2   O3    S    
C7    C8    S    
H7    N2    S    
C13   C23   A    
C5    O14   S    
O10   H10   S    
C9    C10   S    
C28   H16   S    
C14   C24   A    
Cu1   Cu2   S    
C15   C17   A    
C4    C23   A    
Cu2   O2    S    
C6    C8    D    
C7    H4    S    
C19   C21   A    
C8    H3    S    
C13   O9    S    
C21   C23   A    
Cu2   O6    S    
C27   H11   S    
Cu1   O1    S    
C27   H12   S    
C12   O8    A    
C3    O11   S    
