data_mof_unit_53650.cif
_audit_creation_date              2012-12-11T20:30:28-0500
_audit_creation_method            fapswitch 2.2
_symmetry_space_group_name_H-M    P1
_symmetry_Int_Tables_number       1
_space_group_crystal_system       triclinic
_cell_length_a                    8.199131
_cell_length_b                    17.475978
_cell_length_c                    18.857244
_cell_angle_alpha                 103.919346
_cell_angle_beta                  91.783128
_cell_angle_gamma                 98.553559
_cell_volume                      2587.19223081

loop_
_atom_site_label
_atom_site_type_symbol
_atom_type_description
_atom_site_fract_x
_atom_site_fract_y
_atom_site_fract_z
_atom_type_partial_charge
Ba1   Ba    Ba6+2 0.853800 0.535410 0.467450 1.665097
Ba2   Ba    Ba6+2 0.336030 0.464660 0.532560 1.631691
C1    C     C_3   0.639713 0.789283 0.242951 -0.205233
C2    C     C_R   0.880215 0.424846 0.087967 -0.037032
C3    C     C_R   0.711809 0.394622 0.060658 0.074616
C4    C     C_3   0.162958 0.727311 0.277951 0.702090
C5    C     C_R   0.656772 0.403194 0.992279 -0.102065
C6    C     C_R   0.762606 0.437755 0.948526 0.011405
C7    C     C_R   0.926097 0.470240 0.974702 0.030925
C8    C     C_R   0.705354 0.438673 0.878231 -0.078325
C9    C     C_R   0.810870 0.469447 0.830948 -0.018678
C10   C     C_R   0.975119 0.505030 0.856996 0.005619
C11   C     C_R   0.031988 0.505418 0.929345 0.018986
C12   C     C_3   0.645984 0.734630 0.294540 0.760812
C13   C     C_R   0.757415 0.463780 0.757837 -0.010701
C14   C     C_R   0.866916 0.492804 0.711356 -0.311443
C15   C     C_R   0.026397 0.533201 0.736414 0.044481
C16   C     C_3   0.065866 0.691186 0.204070 -0.270101
C17   C     C_R   0.082175 0.539662 0.810943 -0.041227
C18   C     C_R   0.147028 0.500960 0.072215 0.004579
C19   C     C_R   0.204854 0.500916 0.144200 -0.066707
C20   C     C_R   0.101968 0.461241 0.188422 -0.043858
C21   C     C_R   0.949786 0.414616 0.155056 0.401020
C22   C     C_R   0.242111 0.577299 0.840587 -0.043567
C23   C     C_3   0.439046 0.327736 0.304827 0.309681
C24   C     C_R   0.304376 0.571374 0.909695 -0.034538
C25   C     C_R   0.196199 0.537818 0.955277 -0.037404
C26   C     C_R   0.252958 0.536180 0.026792 0.026266
C27   C     C_R   0.473211 0.597744 0.934896 0.379728
C28   C     C_3   0.242576 0.710207 0.633202 0.349786
C29   C     C_R   0.525547 0.598873 0.006292 -0.073649
C30   C     C_R   0.417307 0.568705 0.052400 -0.037198
C31   C     C_R   0.369090 0.537551 0.170365 -0.028674
C32   C     C_R   0.473962 0.569107 0.123123 -0.108227
C33   C     C_R   0.425228 0.540316 0.242575 -0.024948
C34   C     C_3   0.349031 0.286200 0.231036 -0.410359
C35   C     C_R   0.318732 0.508004 0.288078 -0.309747
C36   C     C_R   0.160137 0.466917 0.262893 0.080642
C37   C     C_2   0.444220 0.718049 0.481370 -0.274329
C38   C     C_3   0.373965 0.758537 0.427955 -0.027165
C39   C     C_2   0.436626 0.846117 0.443213 -0.080485
C40   C     C_3   0.272216 0.800917 0.656794 -0.377518
C41   C     C_2   0.556629 0.882347 0.496408 0.045889
C42   C     C_2   0.617597 0.834028 0.545447 0.015194
C43   C     C_1   0.573062 0.754240 0.527809 0.044951
C44   C     C_R   0.804538 0.136970 0.525079 -0.127142
C45   C     C_3   0.060836 0.309352 0.721158 0.358789
C46   C     C_R   0.861814 0.218888 0.539548 0.016081
C47   C     C_R   0.617192 0.237033 0.474520 0.032995
C48   C     C_R   0.557993 0.155253 0.460326 -0.128370
C49   C     C_R   0.650142 0.104575 0.486132 0.012304
C50   C     C_2   0.624300 0.969608 0.509566 -0.067359
C51   C     C_2   0.585938 0.017833 0.467474 -0.073723
C52   C     C_3   0.954747 0.287830 0.366540 0.321396
C53   C     C_R   0.765772 0.268891 0.516144 -0.280879
C54   C     C_3   0.956316 0.197446 0.346633 -0.206942
C55   C     C_3   0.747650 0.658903 0.695826 0.396070
C56   C     C_3   0.078123 0.292553 0.796253 -0.366519
C57   C     C_3   0.812355 0.697782 0.776185 0.270333
C58   C     C_3   0.803945 0.147807 0.298540 -0.208369
C59   C     C_3   0.786538 0.166372 0.223832 -0.332718
C60   C     C_3   0.697313 0.753079 0.818822 -0.141070
C61   C     C_3   0.745803 0.841250 0.818974 -0.352152
C62   C     C_3   0.578561 0.357119 0.101479 -0.193879
C63   C     C_3   0.526399 0.267738 0.065111 -0.450835
C64   C     C_3   0.682020 0.878135 0.623029 -0.245440
C65   C     C_3   0.870110 0.897047 0.630036 -0.360274
C66   C     C_3   0.537216 0.262998 0.674165 0.368249
C67   C     C_3   0.513866 0.181906 0.691947 -0.375337
C68   C     C_R   0.983722 0.466276 0.045532 -0.053501
H1    H     H_    0.375143 0.822093 0.699882 0.105292
H2    H     H_    0.766255 0.810272 0.228855 0.083846
H3    H     H_    0.817981 0.647868 0.802832 0.002437
H4    H     H_    0.516700 0.713990 0.305145 -0.109690
H5    H     H_    0.584763 0.842494 0.269637 0.116422
H6    H     H_    0.350598 0.359449 0.339565 0.020269
H7    H     H_    0.544893 0.372204 0.297311 0.051577
H8    H     H_    0.233452 0.247658 0.238173 0.137422
H9    H     H_    0.317676 0.330902 0.202086 0.061021
H10   H     H_    0.429248 0.247593 0.198090 0.127616
H11   H     H_    0.563810 0.756670 0.191836 0.052493
H12   H     H_    0.301621 0.826207 0.609269 0.055413
H13   H     H_    0.152878 0.681363 0.159963 0.065512
H14   H     H_    0.140579 0.366830 0.722409 0.093738
H15   H     H_    0.930181 0.314813 0.709995 -0.064652
H16   H     H_    0.208576 0.288131 0.809805 0.147182
H17   H     H_    0.040148 0.341531 0.838439 0.068339
H18   H     H_    0.998016 0.235615 0.796847 0.109053
H19   H     H_    0.669011 0.278942 0.664338 -0.064845
H20   H     H_    0.459815 0.258085 0.623491 0.098322
H21   H     H_    0.550054 0.136562 0.645594 0.072416
H22   H     H_    0.382241 0.163711 0.701291 0.145898
H23   H     H_    0.160308 0.822476 0.680215 0.149773
H24   H     H_    0.236201 0.681092 0.286310 -0.068812
H25   H     H_    0.592249 0.184762 0.741921 0.107548
H26   H     H_    0.528592 0.381213 0.972335 0.073769
H27   H     H_    0.824988 0.486219 0.654925 0.071722
H28   H     H_    0.577819 0.413558 0.860689 0.101648
H29   H     H_    0.319424 0.610453 0.809447 0.096295
H30   H     H_    0.654441 0.620718 0.024742 0.095852
H31   H     H_    0.601801 0.593572 0.140116 0.096291
H32   H     H_    0.363211 0.511832 0.343655 0.066372
H33   H     H_    0.500882 0.995429 0.419118 0.070771
H34   H     H_    0.831020 0.300708 0.381230 -0.010175
H35   H     H_    0.883791 0.099093 0.541449 0.072910
H36   H     H_    0.709280 0.996321 0.557113 0.073106
H37   H     H_    0.383607 0.877650 0.407952 0.089472
H38   H     H_    0.442943 0.130893 0.427339 0.073734
H39   H     H_    0.391027 0.656342 0.477366 0.073373
H40   H     H_    0.811914 0.332104 0.525898 0.066114
H41   H     H_    0.992411 0.632427 0.203993 0.113780
H42   H     H_    0.982581 0.731701 0.192023 0.105751
H43   H     H_    0.357325 0.688973 0.614021 -0.021818
H44   H     H_    0.143887 0.690914 0.588155 0.073343
H45   H     H_    0.043927 0.314562 0.414639 0.053731
H46   H     H_    0.731551 0.743289 0.393496 0.314978
H47   H     H_    0.905251 0.165879 0.197008 0.130435
H48   H     H_    0.690300 0.120695 0.188174 0.093339
H49   H     H_    0.746745 0.225497 0.230060 0.189894
H50   H     H_    0.814540 0.083562 0.289819 0.109709
H51   H     H_    0.690052 0.157234 0.327277 0.121844
H52   H     H_    0.024031 0.746555 0.828534 0.300578
H53   H     H_    0.852428 0.869198 0.859242 0.125107
H54   H     H_    0.782512 0.848192 0.764768 0.174683
H55   H     H_    0.640421 0.873594 0.834678 0.094384
H56   H     H_    0.961617 0.177140 0.397901 0.052827
H57   H     H_    0.566640 0.731659 0.796777 0.093093
H58   H     H_    0.703694 0.750676 0.877070 0.138025
H59   H     H_    0.527368 0.254867 0.004538 0.138390
H60   H     H_    0.609729 0.231801 0.085140 0.122660
H61   H     H_    0.398123 0.247613 0.077534 0.127892
H62   H     H_    0.611894 0.367073 0.160550 0.161485
H63   H     H_    0.468644 0.387109 0.099532 0.099437
H64   H     H_    0.853970 0.304938 0.140752 0.277414
H65   H     H_    0.560230 0.590494 0.839676 0.294864
H66   H     H_    0.202637 0.837706 0.271277 0.301291
H67   H     H_    0.070770 0.184552 0.319254 0.110078
H68   H     H_    0.922791 0.841605 0.625308 0.169796
H69   H     H_    0.916968 0.925605 0.586536 0.140107
H70   H     H_    0.913283 0.938120 0.684073 0.100890
H71   H     H_    0.630015 0.934233 0.640730 0.093228
H72   H     H_    0.637152 0.843962 0.662326 0.122549
H73   H     H_    0.846820 0.631969 0.665560 0.001079
H74   H     H_    0.640674 0.611282 0.694415 -0.044076
O1    O     O_2   0.871520 0.445720 0.321500 -0.413239
O2    O     O_2   0.200921 0.223249 0.534189 -0.490156
O3    O     O_3   0.109604 0.246842 0.668383 -0.595958
O4    O     O_3   0.121030 0.451930 0.411150 -0.513346
O5    O     O_3   0.581210 0.598010 0.542960 -0.488355
O6    O     O_2   0.335820 0.303580 0.452320 -0.463813
O7    O     O_3   0.498768 0.269578 0.333854 -0.647839
O8    O     O_2   0.413563 0.462392 0.752761 -0.509650
O9    O     O_3   0.488814 0.319663 0.732656 -0.604370
O10   O     O_3   0.662190 0.593100 0.375060 -0.483390
O11   O     O_2   0.754583 0.523414 0.245568 -0.482714
O12   O     O_3   0.697145 0.716784 0.664459 -0.653322
O13   O     O_3   0.998923 0.318217 0.306377 -0.604071
O14   O     O_3   0.728240 0.671537 0.261120 -0.617508
O15   O     O_2   0.853880 0.696450 0.547730 -0.470123
O16   O     O_3   0.085100 0.636210 0.413950 -0.481611
O17   O     O_2   0.054953 0.783682 0.479561 -0.482071
O18   O     O_3   0.734504 0.779075 0.359885 -0.704034
O19   O     O_3   0.972652 0.740065 0.778555 -0.715299
O20   O     O_3   0.884391 0.351971 0.182881 -0.728858
O21   O     O_3   0.593867 0.618886 0.891086 -0.778887
O22   O     O_3   0.271157 0.796099 0.274153 -0.798332
O23   O     O_3   0.054582 0.746851 0.334169 -0.542951
O24   O     O_2   0.318180 0.554310 0.678550 -0.470542
O25   O     O_3   0.068680 0.548140 0.588860 -0.503500
O26   O     O_3   0.527520 0.406960 0.624950 -0.475267
O27   O     O_3   0.197051 0.681339 0.693822 -0.592239
O28   O     O_3   0.608500 0.402060 0.457050 -0.478825
O29   O     O_3   0.104610 0.363860 0.586060 -0.491028
P1    P     P_3+3 0.038810 0.422920 0.331160 1.041904
P2    P     P_3+3 0.678260 0.686080 0.568600 0.980542
P3    P     P_3+3 0.143233 0.735831 0.416298 0.990728
P4    P     P_3+3 0.150900 0.577150 0.668860 0.992584
P5    P     P_3+3 0.069822 0.261877 0.581408 0.947526
P6    P     P_3+3 0.639744 0.581990 0.280755 0.933440
P7    P     P_3+3 0.517341 0.301255 0.429197 0.943260
P8    P     P_3+3 0.547588 0.414943 0.718184 0.933712

loop_
_geom_bond_atom_site_label_1
_geom_bond_atom_site_label_2
_ccdc_geom_bond_type
Ba2   O6    S    
C46   C53   A    
C49   C51   S    
C4    O22   S    
O12   P2    S    
C59   H49   S    
C40   H23   S    
O16   P3    S    
C42   C64   S    
C40   H12   S    
C41   C42   S    
C56   H17   S    
C2    C68   A    
C61   H54   S    
C5    C6    A    
C64   H71   S    
C42   C43   D    
C5    H26   S    
C24   C25   A    
C35   C36   A    
C12   O14   S    
C23   H7    S    
C45   H15   S    
C52   H34   S    
C33   C35   A    
C16   H42   S    
C43   P2    S    
Ba2   O29   S    
C60   H57   S    
C14   H27   S    
C36   P1    S    
C19   C31   A    
Ba2   O4    S    
O24   P4    D    
C20   C36   A    
C44   H35   S    
O2    P5    D    
C45   H14   S    
Ba1   Ba2   S    
C27   O21   S    
C8    H28   S    
C65   H68   S    
C7    C11   A    
C31   C33   A    
C4    O23   S    
C9    C13   A    
C62   H62   S    
C66   C67   S    
C4    H24   S    
C1    H11   S    
C66   H20   S    
C12   H4    S    
Ba1   O5    S    
Ba2   P4    S    
C54   H56   S    
C67   H22   S    
C1    H5    S    
C57   H3    S    
O6    P7    D    
O13   P1    S    
C37   C43   D    
C47   P7    S    
O28   P7    S    
Ba2   O5    S    
C64   C65   S    
C50   H36   S    
O15   P2    D    
C19   C20   A    
C48   H38   S    
C39   C41   D    
C18   C68   A    
Ba1   O10   S    
O27   P4    S    
C56   H16   S    
O25   P4    S    
C63   H61   S    
O11   P6    D    
C31   C32   A    
C45   O3    S    
C33   P6    S    
C4    C16   S    
C55   O12   S    
C44   C46   A    
Ba1   P1    S    
C32   H31   S    
C55   H73   S    
C59   H47   S    
Ba1   O15   S    
C22   H29   S    
C57   O19   S    
C16   H41   S    
C66   O9    S    
C34   H10   S    
C37   C38   S    
C38   P3    S    
C2    C21   A    
C14   C15   A    
C18   C26   A    
C48   C49   A    
C47   C53   A    
C44   C49   A    
O4    P1    S    
H52   O19   S    
C54   C58   S    
C3    C62   S    
C58   C59   S    
O5    P2    S    
C30   C32   A    
C12   O18   S    
O14   P6    S    
C60   C61   S    
C63   H59   S    
C29   C30   A    
C26   C30   A    
C52   H45   S    
C16   H13   S    
C6    C7    A    
C29   H30   S    
C10   C11   A    
C65   H70   S    
C61   H55   S    
C1    C12   S    
Ba2   O26   S    
C6    C8    A    
C38   C39   S    
O9    P8    S    
C67   H21   S    
C53   H40   S    
Ba1   O1    S    
Ba2   O24   S    
C65   H69   S    
C50   C51   D    
C3    C5    A    
C21   O20   S    
C28   H44   S    
C15   P4    S    
O17   P3    D    
C62   H63   S    
Ba1   P2    S    
C57   C60   S    
O1    P1    D    
C39   H37   S    
C55   H74   S    
C59   H48   S    
Ba1   O16   S    
C28   C40   S    
C22   C24   A    
C2    C3    A    
C67   H25   S    
C34   H9    S    
C56   H18   S    
C61   H53   S    
C9    C10   A    
C52   C54   S    
C64   H72   S    
Ba1   O28   S    
C63   H60   S    
C23   O7    S    
C23   H6    S    
C62   C63   S    
C17   C22   A    
H46   O18   S    
C58   H50   S    
O26   P8    S    
C34   H8    S    
C45   C56   S    
C60   H58   S    
C54   H67   S    
O3    P5    S    
O7    P7    S    
C35   H32   S    
H66   O22   S    
O29   P5    S    
C51   H33   S    
C46   P5    S    
C13   P8    S    
C10   C17   A    
Ba1   O25   S    
C40   H1    S    
C15   C17   A    
H64   O20   S    
C1    H2    S    
C58   H51   S    
C41   C50   S    
Ba2   O25   S    
C28   O27   S    
H65   O21   S    
C55   C57   S    
C8    C9    A    
C23   C34   S    
C7    C68   A    
C37   H39   S    
C18   C19   A    
C24   C27   A    
C27   C29   A    
C47   C48   A    
C25   C26   A    
C20   C21   A    
C11   C25   A    
Ba1   O4    S    
C66   H19   S    
O8    P8    D    
O10   P6    S    
C13   C14   A    
Ba2   O28   S    
O23   P3    S    
C52   O13   S    
C28   H43   S    
