data_mof_unit_56821.cif
_audit_creation_date              2013-03-05T16:44:39-0500
_audit_creation_method            fapswitch 2.2
_symmetry_space_group_name_H-M    P1
_symmetry_Int_Tables_number       1
_space_group_crystal_system       triclinic
_cell_length_a                    27.705355
_cell_length_b                    10.659215
_cell_length_c                    9.889703
_cell_angle_alpha                 90.021548
_cell_angle_beta                  89.295048
_cell_angle_gamma                 90.896007
_cell_volume                      2920.02254006

loop_
_atom_site_label
_atom_site_type_symbol
_atom_site_description
_atom_site_fract_x
_atom_site_fract_y
_atom_site_fract_z
_atom_type_partial_charge
O1    O     O_R   0.500010 0.316790 0.614690 -0.573024
O2    O     O_R   0.500000 0.316760 0.385350 -0.585633
C1    C     C_R   0.498252 0.260071 0.500009 0.987704
O3    O     O_R   0.428760 0.500040 0.614660 -0.598996
O4    O     O_R   0.428750 0.500000 0.385310 -0.588011
C2    C     C_R   0.406169 0.499312 0.500588 0.925090
Zn1   Zn    Zn3+2 0.500000 0.500020 0.653130 1.040131
Zn2   Zn    Zn3+2 0.500000 0.499980 0.346870 1.042664
O5    O     O_R   0.500000 0.683240 0.614650 -0.579426
O6    O     O_R   0.499990 0.683210 0.385310 -0.636456
O7    O     O_R   0.571250 0.500000 0.614690 -0.620318
O8    O     O_R   0.571240 0.499960 0.385340 -0.605228
C3    C     C_R   0.496909 0.739521 0.500370 0.967854
C4    C     C_R   0.594019 0.499646 0.499266 1.000232
C5    C     C_R   0.178079 0.386019 0.458099 0.628561
O9    O     O_2   0.204156 0.286101 0.419165 -0.443821
N1    N     N_R   0.201489 0.495166 0.491568 -0.352787
C6    C     C_R   0.177201 0.600405 0.528370 0.676049
C7    C     C_R   0.279406 0.568897 0.398435 0.534327
C8    C     C_R   0.329873 0.569691 0.403483 -0.415903
C9    C     C_R   0.327057 0.425299 0.594497 0.445946
C10   C     C_R   0.276620 0.426781 0.591021 -0.287797
C11   C     C_R   0.253037 0.497529 0.493625 0.186405
C12   C     C_R   0.101564 0.487164 0.498754 -0.214636
C13   C     C_R   0.127357 0.378246 0.463461 -0.114515
C14   C     C_R   0.102062 0.264435 0.439294 0.376324
C15   C     C_R   0.126650 0.599356 0.531303 -0.248164
C16   C     C_R   0.353591 0.498640 0.500881 -0.101641
H1    H     H_    0.255393 0.371537 0.662672 0.176036
C17   C     C_R   0.646881 0.493808 0.499065 -0.156590
C18   C     C_R   0.974748 0.380211 0.443054 -0.012222
C19   C     C_R   0.974603 0.576749 0.572245 0.054514
C20   C     C_R   0.949279 0.475985 0.510961 0.004610
C21   C     C_R   0.949127 0.296987 0.356998 0.401626
C22   C     C_R   0.898373 0.295105 0.360072 0.575329
C23   C     C_R   0.872888 0.380631 0.441125 -0.207154
C24   C     C_R   0.898360 0.472438 0.515771 -0.183069
C25   C     C_R   0.873011 0.561773 0.593930 -0.122068
C26   C     C_R   0.822417 0.562731 0.586154 0.632964
N2    N     N_R   0.798589 0.472205 0.514427 -0.319464
C27   C     C_R   0.822276 0.381004 0.444758 0.709916
C28   C     C_R   0.725767 0.526159 0.392117 0.328460
C29   C     C_R   0.674832 0.530252 0.385005 0.325962
C30   C     C_R   0.669337 0.447269 0.614687 -0.361502
C31   C     C_R   0.719420 0.436451 0.618885 0.455261
C32   C     C_R   0.747213 0.476301 0.507614 0.168743
O10   O     O_2   0.796604 0.292358 0.378236 -0.423164
C33   C     C_R   0.025437 0.375041 0.459276 -0.025092
C34   C     C_R   0.050617 0.483961 0.502291 -0.063264
C35   C     C_R   0.024983 0.589165 0.550522 -0.119471
C36   C     C_R   0.051334 0.263188 0.441140 0.589634
O11   O     O_2   0.202188 0.704850 0.563639 -0.426883
C37   C     C_R   0.100672 0.707306 0.565112 0.642004
H2    H     H_    0.350694 0.626020 0.331874 0.203300
C38   C     C_R   0.949131 0.658377 0.657964 -0.090213
C39   C     C_R   0.899297 0.649184 0.673190 0.466773
O12   O     O_2   0.796992 0.655414 0.644886 -0.482326
C40   C     C_R   0.050617 0.702628 0.574164 0.517527
H3    H     H_    0.967742 0.724589 0.722406 0.231457
H4    H     H_    0.647808 0.416934 0.701226 0.214073
C41   C     C_R   0.499762 0.063964 0.620448 -0.198535
C42   C     C_R   0.490384 0.128382 0.502114 -0.353793
C43   C     C_R   0.469595 0.064639 0.392230 0.660415
C44   C     C_R   0.466501 0.934285 0.394153 0.359594
C45   C     C_R   0.487219 0.870218 0.504280 -0.315477
C46   C     C_R   0.498340 0.936191 0.621811 -0.071815
C47   C     C_3   0.539872 0.928112 0.717265 0.820433
C48   C     C_3   0.541747 0.071248 0.714793 0.922982
C49   C     C_R   0.474059 0.411366 0.071959 0.203582
N3    N     N_R   0.499670 0.499140 0.142800 -0.164607
C50   C     C_R   0.529365 0.580336 0.068421 0.478096
C51   C     C_R   0.529167 0.579001 0.925462 -0.046370
H5    H     H_    0.552318 0.643290 0.869138 0.210230
N4    N     N_R   0.499670 0.499180 0.857150 -0.152095
C52   C     C_R   0.474587 0.410421 0.929643 0.186950
C53   C     C_3   0.421738 0.385315 0.922996 -0.469865
C54   C     C_3   0.420633 0.389243 0.076532 0.191943
H6    H     H_    0.402080 0.463358 0.874848 0.261641
H7    H     H_    0.413641 0.290382 0.881831 0.229375
H8    H     H_    0.409747 0.299349 0.126247 0.191782
O13   O     O_3   0.350928 0.349622 0.684071 -0.768717
H9    H     H_    0.326900 0.304173 0.741724 0.346747
O14   O     O_3   0.255042 0.635654 0.301818 -0.710112
H10   H     H_    0.278883 0.680078 0.242672 0.353734
F1    F     F_    0.123351 0.819025 0.588455 -0.536439
O15   O     O_3   0.878035 0.725677 0.768296 -0.666173
H11   H     H_    0.853942 0.673901 0.819009 0.376170
O16   O     O_3   0.742308 0.388808 0.730571 -0.703665
H12   H     H_    0.717706 0.365563 0.800211 0.363351
F2    F     F_    0.027698 0.812750 0.594921 -0.584551
F3    F     F_    0.453267 0.127457 0.282855 -0.623452
O17   O     O_3   0.445077 0.874283 0.286291 -0.652304
H13   H     H_    0.430211 0.794818 0.319542 0.340155
O18   O     O_3   0.525444 0.878351 0.842687 -0.708856
H14   H     H_    0.554169 0.885086 0.901312 0.377275
F4    F     F_    0.579993 0.869909 0.661916 -0.670052
F5    F     F_    0.529668 0.126781 0.836992 -0.610069
O19   O     O_3   0.584297 0.123584 0.657452 -0.732291
H15   H     H_    0.588931 0.087896 0.565497 0.326368
O20   O     O_3   0.559423 0.667597 0.127469 -0.706714
H16   H     H_    0.559322 0.653122 0.225034 0.410110
O21   O     O_3   0.395992 0.494113 0.125108 -0.718135
H17   H     H_    0.361203 0.470817 0.122639 0.348597
O22   O     O_3   0.127382 0.155054 0.418397 -0.623088
H18   H     H_    0.104888 0.085269 0.395730 0.412624
O23   O     O_3   0.651856 0.569752 0.269834 -0.717350
H19   H     H_    0.672049 0.548612 0.189946 0.360972
O24   O     O_3   0.755788 0.572665 0.290816 -0.715819
H20   H     H_    0.738794 0.639264 0.241479 0.369949
F6    F     F_    0.874181 0.212203 0.280142 -0.582456
O25   O     O_3   0.974237 0.228342 0.261170 -0.675533
H21   H     H_    0.951622 0.176973 0.206684 0.404676
F7    F     F_    0.027598 0.150563 0.441013 -0.580065

loop_
_geom_bond_atom_site_label_1
_geom_bond_atom_site_label_2
_geom_bond_distance
_ccdc_geom_bond_type
C38   C39   1.388970 A    
C10   H1    1.083491 S    
C38   H3    1.080052 S    
C49   C54   1.495326 S    
C7    C8    1.399596 A    
C53   H7    1.111241 S    
O13   H9    0.991825 S    
C23   C27   1.402315 A    
C6    O11   1.349772 S    
C3    C45   1.423301 S    
C31   C32   1.397702 A    
Zn1   O7    2.005685 S    
N1    C11   1.428387 S    
C23   C24   1.411148 A    
C53   H6    1.111850 S    
O4    C2    1.293643 A    
O7    C4    1.297436 A    
C54   H8    1.112888 S    
O23   H19   0.990406 S    
C5    O9    1.349625 S    
C26   O12   1.349376 S    
O24   H20   0.989982 S    
C5    N1    1.365711 A    
C21   C22   1.405964 A    
C28   C32   1.402571 A    
O5    C3    1.284160 A    
C48   F5    1.385135 S    
O17   H13   0.990556 S    
O21   H17   0.992150 S    
C41   C46   1.361983 A    
C33   C36   1.411328 A    
C2    C16   1.456545 S    
O25   H21   0.989989 S    
C47   O18   1.400478 S    
C18   C20   1.414728 A    
N3    C50   1.389353 A    
C19   C38   1.406302 A    
C14   O22   1.384204 S    
C46   C47   1.500824 S    
C9    C10   1.398571 A    
C21   O25   1.384431 S    
C17   C30   1.402940 A    
C54   O21   1.400642 S    
C49   N3    1.364057 A    
C4    C17   1.466828 S    
O3    Zn1   2.014658 S    
C7    O14   1.380729 S    
O22   H18   0.990333 S    
Zn1   N4    2.017628 S    
N4    C52   1.363708 A    
C47   C48   1.525985 S    
C35   C40   1.413777 A    
C31   O16   1.381203 S    
C12   C13   1.414175 A    
C8    H2    1.083633 S    
C26   N2    1.364256 A    
O15   H11   0.991010 S    
C8    C16   1.401746 A    
C13   C14   1.413258 A    
C20   C24   1.410870 A    
O1    C1    1.286126 A    
C29   O23   1.380734 S    
N2    C32   1.427168 S    
C52   C53   1.486586 S    
C24   C25   1.415796 A    
C39   O15   1.377421 S    
O14   H10   0.991770 S    
Zn2   O8    2.014658 S    
C12   C15   1.412804 A    
C42   C43   1.406053 A    
N1    C6    1.364144 A    
C27   O10   1.349636 S    
C18   C21   1.417663 A    
O18   H14   0.992072 S    
C36   F7    1.359776 S    
C53   C54   1.518936 S    
C40   F2    1.357617 S    
C19   C35   1.413774 A    
C22   F6    1.359756 S    
C51   N4    1.356316 A    
N2    C27   1.363361 A    
C9    C16   1.405189 A    
C9    O13   1.380030 S    
C34   C35   1.416191 A    
C18   C33   1.417368 A    
C47   F4    1.387982 S    
C17   C29   1.411550 A    
O3    C2    1.296818 A    
C28   C29   1.415123 A    
C44   O17   1.379301 S    
C30   C31   1.395294 A    
C7    C11   1.401756 A    
C1    C42   1.417271 S    
C12   C34   1.411365 A    
Zn1   O5    1.989853 S    
C33   C34   1.413225 A    
O1    Zn1   1.989607 S    
O2    Zn2   1.989854 S    
C6    C15   1.400333 A    
O8    C4    1.298195 A    
C51   H5    1.081201 S    
O6    C3    1.288837 A    
O4    Zn2   2.005687 S    
C37   C40   1.388702 A    
C15   C37   1.404825 A    
C50   O20   1.373693 S    
Zn2   N3    2.018341 S    
C19   C20   1.414079 A    
O2    C1    1.285130 A    
C50   C51   1.413972 A    
C14   C36   1.405186 A    
C44   C45   1.417820 A    
C41   C48   1.501174 S    
C25   C26   1.404971 A    
C30   H4    1.083706 S    
O20   H16   0.977166 S    
C49   C52   1.407396 A    
C45   C46   1.393526 A    
C41   C42   1.386445 A    
C48   O19   1.409157 S    
C5    C13   1.406758 A    
C43   C44   1.390894 A    
C25   C39   1.416047 A    
O16   H12   0.991762 S    
Zn2   O6    1.989606 S    
O19   H15   0.993282 S    
C43   F3    1.358334 S    
C10   C11   1.398143 A    
C37   F1    1.358712 S    
C22   C23   1.406342 A    
C28   O24   1.381375 S    
