data_mof_unit_48289.cif
_audit_creation_date              2013-03-05T16:22:15-0500
_audit_creation_method            fapswitch 2.2
_symmetry_space_group_name_H-M    P1
_symmetry_Int_Tables_number       1
_space_group_crystal_system       triclinic
_cell_length_a                    10.525344
_cell_length_b                    10.488419
_cell_length_c                    9.797461
_cell_angle_alpha                 90.64553
_cell_angle_beta                  88.836536
_cell_angle_gamma                 89.94358
_cell_volume                      1081.29063241

loop_
_atom_site_label
_atom_site_type_symbol
_atom_site_description
_atom_site_fract_x
_atom_site_fract_y
_atom_site_fract_z
_atom_type_partial_charge
O1    O     O_R   0.500010 0.313960 0.616610 -0.590761
O2    O     O_R   0.499990 0.686040 0.383390 -0.590783
O3    O     O_R   0.500060 0.313950 0.383350 -0.624347
O4    O     O_R   0.499940 0.686050 0.616650 -0.624301
C1    C     C_R   0.499475 0.257777 0.499280 0.947646
C2    C     C_R   0.500525 0.742222 0.500720 0.947781
O5    O     O_R   0.313930 0.499970 0.616610 -0.592846
O6    O     O_R   0.686070 0.500030 0.383390 -0.592856
O7    O     O_R   0.313980 0.499960 0.383350 -0.569595
O8    O     O_R   0.686020 0.500040 0.616650 -0.569618
C3    C     C_R   0.257948 0.498805 0.501456 0.986207
C4    C     C_R   0.742056 0.501201 0.498544 0.986382
Zn1   Zn    Zn3+2 0.499970 0.500010 0.655740 1.056232
Zn2   Zn    Zn3+2 0.500030 0.499990 0.344260 1.056235
C5    C     C_3   0.034808 0.479203 0.629099 0.440266
C6    C     C_3   0.965209 0.520805 0.370897 0.440289
C7    C     C_3   0.954406 0.385775 0.543174 -0.323424
C8    C     C_3   0.045610 0.614231 0.456818 -0.323358
H1    H     H_    0.914402 0.292846 0.576092 0.233191
H2    H     H_    0.085606 0.707162 0.423897 0.233146
C9    C     C_3   0.876657 0.501120 0.495405 -0.314903
C10   C     C_3   0.123354 0.498890 0.504597 -0.314827
C11   C     C_3   0.956162 0.592131 0.580521 0.239214
C12   C     C_3   0.043862 0.407882 0.419476 0.239237
C13   C     C_3   0.609651 0.043837 0.552048 -0.220306
C14   C     C_3   0.390350 0.956163 0.447953 -0.220365
C15   C     C_3   0.597989 0.957718 0.424770 0.459596
C16   C     C_3   0.402012 0.042282 0.575231 0.459549
H3    H     H_    0.699011 0.083776 0.593005 0.213122
H4    H     H_    0.300990 0.916224 0.406997 0.213139
C17   C     C_3   0.500615 0.877190 0.501904 -0.163253
C18   C     C_3   0.499386 0.122810 0.498096 -0.163292
C19   C     C_3   0.511066 0.961216 0.630240 -0.202032
C20   C     C_3   0.488936 0.038784 0.369761 -0.202125
H5    H     H_    0.519117 0.926174 0.736247 0.204086
H6    H     H_    0.480885 0.073826 0.263753 0.204088
C21   C     C_3   0.502146 0.384718 0.047394 -0.201696
C22   C     C_3   0.497854 0.615282 0.952606 -0.201796
C23   C     C_3   0.599364 0.444839 0.949729 0.500937
C24   C     C_3   0.400636 0.555161 0.050271 0.501058
H7    H     H_    0.504838 0.287685 0.091378 0.189910
H8    H     H_    0.495161 0.712315 0.908622 0.189921
N1    N     N_3   0.499910 0.500030 0.863290 -0.144957
N2    N     N_3   0.500090 0.499970 0.136710 -0.144946
C25   C     C_3   0.401609 0.440449 0.952608 -0.121663
C26   C     C_3   0.598390 0.559551 0.047392 -0.121817
H9    H     H_    0.320044 0.388686 0.908683 0.239202
H10   H     H_    0.679955 0.611316 0.091317 0.239178
Cl1   Cl    Cl    0.079319 0.449386 0.800361 -0.369909
Cl2   Cl    Cl    0.920673 0.550582 0.199636 -0.369991
N3    N     N_R   0.902605 0.694198 0.666162 0.248754
O9    O     O_R   0.919833 0.695698 0.797216 -0.247128
O10   O     O_R   0.835995 0.784002 0.611521 -0.349570
N4    N     N_R   0.097515 0.305863 0.333839 0.248703
O11   O     O_R   0.081302 0.304963 0.202621 -0.247311
O12   O     O_R   0.163541 0.215701 0.388605 -0.349324
Cl3   Cl    Cl    0.728000 0.897240 0.324069 -0.471781
Cl4   Cl    Cl    0.272006 0.102759 0.675939 -0.471717
Cl5   Cl    Cl    0.735864 0.365380 0.880288 -0.450342
Cl6   Cl    Cl    0.264136 0.634621 0.119711 -0.450134

loop_
_geom_bond_atom_site_label_1
_geom_bond_atom_site_label_2
_geom_bond_distance
_ccdc_geom_bond_type
C21   C23   1.528189 S    
O5    C3    1.283317 A    
O7    Zn2   1.987694 S    
C17   C19   1.533159 S    
N4    O12   1.300156 A    
C14   H4    1.110598 S    
C6    C9    1.535991 S    
C24   Cl6   1.779529 S    
C21   C25   1.541027 S    
C16   Cl4   1.782593 S    
C13   C15   1.538505 S    
O7    C3    1.288239 A    
C3    C10   1.416350 S    
C14   C16   1.538505 S    
O5    Zn1   2.002937 S    
O6    C4    1.283342 A    
C1    C18   1.415510 S    
C23   Cl5   1.779528 S    
Zn1   N1    2.033447 S    
C5    C11   1.530163 S    
C2    C17   1.415511 S    
C22   N1    1.484174 S    
C6    C12   1.530161 S    
C24   N2    1.481191 S    
C14   C17   1.531445 S    
C5    Cl1   1.782191 S    
C22   C24   1.528188 S    
N1    C25   1.484458 S    
C13   H3    1.110599 S    
O2    C2    1.285964 A    
O3    Zn2   1.992726 S    
O8    C4    1.288255 A    
C13   C18   1.531444 S    
C23   C26   1.528686 S    
O1    C1    1.285963 A    
C6    C8    1.548196 S    
C19   H5    1.110441 S    
C6    Cl2   1.782182 S    
C16   C19   1.537669 S    
C22   H8    1.110225 S    
C20   H6    1.110441 S    
C9    C11   1.522774 S    
C15   C20   1.537670 S    
C21   H7    1.110225 S    
C24   C25   1.528686 S    
O2    Zn2   1.984430 S    
C10   C12   1.522714 S    
C22   C26   1.541026 S    
C7    C12   1.539316 S    
O1    Zn1   1.984430 S    
N3    O10   1.300237 A    
C15   C17   1.523005 S    
C8    C11   1.539289 S    
C26   H10   1.107994 S    
C16   C18   1.523006 S    
C8    H2    1.110703 S    
Zn2   N2    2.033447 S    
O4    C2    1.285316 A    
C15   Cl3   1.782596 S    
C25   H9    1.107994 S    
C13   C19   1.548868 S    
O4    Zn1   1.992726 S    
C5    C7    1.548241 S    
N4    O11   1.300238 A    
C21   N2    1.484174 S    
C23   N1    1.481191 S    
O6    Zn2   2.002936 S    
C7    H1    1.110714 S    
C8    C10   1.542263 S    
C12   N4    1.458476 S    
C4    C9    1.416430 S    
C14   C20   1.548872 S    
C5    C10   1.535910 S    
C7    C9    1.542287 S    
C11   N3    1.458487 S    
N3    O9    1.300299 A    
N2    C26   1.484457 S    
O3    C1    1.285316 A    
O8    Zn1   1.987693 S    
C18   C20   1.533160 S    
