data_mof_unit_57955.cif
_audit_creation_date              2012-12-10T17:42:10-0500
_audit_creation_method            fapswitch 2.2
_symmetry_space_group_name_H-M    P1
_symmetry_Int_Tables_number       1
_space_group_crystal_system       triclinic
_cell_length_a                    15.189205
_cell_length_b                    13.77717
_cell_length_c                    10.787456
_cell_angle_alpha                 90.602892
_cell_angle_beta                  89.731093
_cell_angle_gamma                 90.46686
_cell_volume                      2257.20511928

loop_
_atom_site_label
_atom_site_type_symbol
_atom_type_description
_atom_site_fract_x
_atom_site_fract_y
_atom_site_fract_z
_atom_type_partial_charge
C1    C     C_R   0.328834 0.499163 0.498802 0.813374
C2    C     C_3   0.584548 0.561065 0.931923 0.357646
C3    C     C_R   0.814611 0.432679 0.430130 0.097850
C4    C     C_R   0.768404 0.502884 0.499817 -0.183712
C5    C     C_R   0.814864 0.576678 0.565909 -0.108855
C6    C     C_R   0.908655 0.579553 0.563958 0.044796
C7    C     C_R   0.953880 0.504991 0.498177 -0.040699
C8    C     C_R   0.906529 0.432378 0.431801 0.133892
C9    C     C_R   0.959072 0.653559 0.625540 0.096194
C10   C     C_R   0.051642 0.650305 0.624454 -0.060537
C11   C     C_R   0.095559 0.574707 0.561630 0.040732
C12   C     C_R   0.499492 0.499215 0.259949 0.775485
C13   C     C_R   0.046973 0.502287 0.498031 0.052765
C14   C     C_R   0.091597 0.426075 0.434992 0.088233
C15   C     C_R   0.042597 0.355430 0.370118 -0.222472
C16   C     C_R   0.951937 0.359002 0.367845 -0.174022
C17   C     C_R   0.187631 0.570461 0.560536 -0.248280
C18   C     C_R   0.232162 0.496700 0.497888 -0.115459
C19   C     C_R   0.184175 0.422049 0.437580 -0.062025
C20   C     C_R   0.446274 0.795383 0.580215 0.346805
C21   C     C_R   0.446116 0.205210 0.580455 0.346917
C22   C     C_R   0.557054 0.793294 0.424158 -0.026429
C23   C     C_R   0.555804 0.206337 0.422581 -0.031132
C24   C     C_R   0.560307 0.896381 0.424552 0.022619
C25   C     C_R   0.559549 0.103434 0.423710 0.026835
C26   C     C_R   0.671251 0.500595 0.500213 0.794044
C27   C     C_R   0.509075 0.948539 0.511217 -0.002370
C28   C     C_R   0.508787 0.051890 0.510972 -0.000788
C29   C     C_R   0.455628 0.897338 0.595182 -0.015128
C30   C     C_R   0.455250 0.103524 0.595026 -0.020049
C31   C     C_R   0.613124 0.948538 0.340386 -0.180792
C32   C     C_R   0.612631 0.050865 0.339828 -0.180270
C33   C     C_R   0.410689 0.052011 0.690011 0.105319
C34   C     C_R   0.410810 0.949459 0.689984 0.113286
C35   C     C_R   0.502141 0.500368 0.739986 0.772458
C36   C     C_3   0.415560 0.547755 0.070011 -0.163981
C37   C     C_3   0.510072 0.391718 0.066990 -0.170969
C38   C     C_3   0.415544 0.542449 0.926726 -0.459862
C39   C     C_3   0.508500 0.394150 0.924721 -0.452734
C40   C     C_3   0.580841 0.557120 0.076763 -0.461890
C41   C     C_3   0.499543 0.497411 0.121769 0.013618
C42   C     C_3   0.503984 0.500538 0.877905 0.084522
Cu1   Cu    Cu3+1 0.499990 0.597420 0.500010 0.950680
Cu2   Cu    Cu3+1 0.499990 0.402580 0.500010 0.940546
H1    H     H_    0.417380 0.625693 0.098313 0.140090
H2    H     H_    0.575207 0.363516 0.096130 0.120410
H3    H     H_    0.225790 0.623394 0.611892 0.157002
H4    H     H_    0.073695 0.296582 0.319645 0.162267
H5    H     H_    0.917726 0.302438 0.316365 0.178920
H6    H     H_    0.598561 0.752622 0.360815 0.133854
H7    H     H_    0.595821 0.246507 0.357340 0.126486
H8    H     H_    0.653792 0.910198 0.273558 0.132533
H9    H     H_    0.652988 0.088854 0.272645 0.133305
H10   H     H_    0.360297 0.496047 0.891748 0.169159
H11   H     H_    0.450692 0.352700 0.888028 0.190537
H12   H     H_    0.403339 0.615813 0.888983 0.170288
H13   H     H_    0.567128 0.356030 0.886818 0.166733
H14   H     H_    0.578733 0.631840 0.116996 0.161852
H15   H     H_    0.641965 0.524750 0.114523 0.158750
N1    N     N_R   0.499930 0.743810 0.499950 -0.206436
N2    N     N_R   0.499930 0.256190 0.499950 -0.202864
O1    O     O_R   0.370250 0.582280 0.500040 -0.601457
O2    O     O_R   0.370250 0.417720 0.500040 -0.589845
O3    O     O_R   0.499970 0.582270 0.317700 -0.591995
O4    O     O_R   0.499970 0.417730 0.317700 -0.580075
O5    O     O_R   0.629730 0.582260 0.499980 -0.574125
O6    O     O_R   0.629730 0.417740 0.499980 -0.589165
O7    O     O_R   0.500000 0.582270 0.682320 -0.566978
O8    O     O_R   0.500000 0.417730 0.682320 -0.612565
C43   C     C_1   0.100924 0.726399 0.688406 0.215174
N3    N     N_1   0.140175 0.787001 0.739329 -0.289733
C44   C     C_1   0.228840 0.340734 0.379401 0.263367
N4    N     N_1   0.263397 0.274896 0.333710 -0.250471
N5    N     N_3   0.370015 0.751159 0.634008 -0.555626
H16   H     H_    0.384939 0.689205 0.683121 0.257024
H17   H     H_    0.324417 0.738441 0.563644 0.228944
N6    N     N_3   0.370976 0.249797 0.637231 -0.558967
H18   H     H_    0.386696 0.310696 0.689845 0.253166
H19   H     H_    0.323936 0.263957 0.570130 0.241505
N7    N     N_3   0.368632 0.103904 0.789924 -0.568230
H20   H     H_    0.302035 0.084408 0.793104 0.232680
H21   H     H_    0.398399 0.085666 0.873552 0.220557
N8    N     N_3   0.368749 0.898211 0.789689 -0.562962
H22   H     H_    0.398356 0.918396 0.873412 0.212264
H23   H     H_    0.302117 0.916407 0.792736 0.243892
C45   C     C_1   0.332474 0.507881 0.120122 0.253868
N9    N     N_1   0.266793 0.477254 0.158456 -0.277249
C46   C     C_1   0.443860 0.320488 0.110274 0.300466
N10   N     N_1   0.392747 0.263366 0.142516 -0.245308
N11   N     N_3   0.580315 0.662781 0.891732 -0.534068
H24   H     H_    0.637183 0.699308 0.921569 0.241568
H25   H     H_    0.527569 0.698414 0.934288 0.200655
N12   N     N_3   0.669349 0.521414 0.888648 -0.579771
H26   H     H_    0.681033 0.453219 0.926351 0.203422
H27   H     H_    0.669559 0.513727 0.792218 0.210896
N13   N     N_3   0.769272 0.362052 0.354115 -0.620721
H28   H     H_    0.738346 0.311247 0.411131 0.240474
H29   H     H_    0.723341 0.396580 0.298072 0.214778
C47   C     C_1   0.764764 0.647255 0.637310 0.356395
N14   N     N_1   0.724511 0.703791 0.693333 -0.251428
N15   N     N_3   0.917068 0.733505 0.687955 -0.583433
H30   H     H_    0.935298 0.733752 0.781324 0.233204
H31   H     H_    0.938189 0.798389 0.647610 0.230824

loop_
_geom_bond_atom_site_label_1
_geom_bond_atom_site_label_2
_ccdc_geom_bond_type
N12   H26   S    
C27   C29   A    
C37   C46   S    
C24   C27   A    
C31   H8    S    
C1    O1    A    
C6    C9    A    
Cu2   O4    S    
C7    C8    A    
N6    H18   S    
C25   C28   A    
C1    C18   S    
N15   H30   S    
N5    H17   S    
N8    H22   S    
C26   O6    A    
C38   C42   S    
C22   N1    A    
C5    C6    A    
C12   O3    A    
C15   C16   A    
C39   H13   S    
C18   C19   A    
C2    N11   S    
C35   C42   S    
C23   H7    S    
C39   H11   S    
C31   C32   A    
Cu1   O7    S    
N13   H29   S    
C43   N3    T    
C20   N1    A    
C9    C10   A    
C21   C30   A    
C21   N2    A    
C22   H6    S    
C25   C32   A    
C8    C16   A    
C40   H15   S    
C13   C14   A    
C36   C41   S    
C15   H4    S    
C1    O2    A    
Cu1   O3    S    
C33   C34   A    
C39   C42   S    
C20   C29   A    
N6    H19   S    
Cu2   O2    S    
C40   H14   S    
N5    H16   S    
C26   O5    A    
C5    C47   S    
Cu2   O8    S    
C19   C44   S    
C16   H5    S    
N7    H21   S    
C3    C8    A    
C45   N9    T    
N7    H20   S    
C36   C45   S    
C29   C34   A    
Cu1   Cu2   S    
C12   C41   S    
N11   H25   S    
C47   N14   T    
C38   H10   S    
C7    C13   A    
N13   H28   S    
C17   C18   A    
C20   N5    S    
C36   H1    S    
C3    N13   S    
Cu1   N1    S    
C10   C43   S    
C9    N15   S    
C40   C41   S    
N8    H23   S    
C22   C24   A    
C34   N8    S    
C3    C4    A    
C32   H9    S    
N15   H31   S    
C11   C17   A    
C30   C33   A    
C14   C19   A    
C2    N12   S    
C17   H3    S    
C44   N4    T    
C4    C26   S    
C33   N7    S    
C6    C7    A    
Cu2   N2    S    
C12   O4    A    
C36   C38   S    
C24   C31   A    
C37   C39   S    
C11   C13   A    
N11   H24   S    
C35   O7    A    
C2    C42   S    
Cu1   O5    S    
C4    C5    A    
C28   C30   A    
C23   C25   A    
C37   C41   S    
C10   C11   A    
C2    C40   S    
C23   N2    A    
C38   H12   S    
C46   N10   T    
C35   O8    A    
N12   H27   S    
C21   N6    S    
C27   C28   A    
C14   C15   A    
Cu2   O6    S    
C37   H2    S    
Cu1   O1    S    
