data_mof_unit_53187.cif
_audit_creation_date              2012-12-11T14:56:10-0500
_audit_creation_method            fapswitch 2.2
_symmetry_space_group_name_H-M    P1
_symmetry_Int_Tables_number       1
_space_group_crystal_system       triclinic
_cell_length_a                    27.702465
_cell_length_b                    17.31307
_cell_length_c                    18.077792
_cell_angle_alpha                 90.155395
_cell_angle_beta                  138.098921
_cell_angle_gamma                 89.909845
_cell_volume                      5790.45768863

loop_
_atom_site_label
_atom_site_type_symbol
_atom_type_description
_atom_site_fract_x
_atom_site_fract_y
_atom_site_fract_z
_atom_type_partial_charge
C1    C     C_R   0.686696 0.900238 0.806714 -0.138943
C2    C     C_R   0.331949 0.077527 0.182955 -0.100849
C3    C     C_R   0.313553 0.900326 0.192728 -0.140487
C4    C     C_R   0.666598 0.076862 0.816595 -0.103420
C5    C     C_R   0.186716 0.400234 0.806676 -0.138675
C6    C     C_R   0.831979 0.577510 0.182959 -0.101126
C7    C     C_R   0.813550 0.400327 0.192733 -0.140461
C8    C     C_R   0.166591 0.576856 0.816593 -0.103451
C9    C     C_3   0.709384 0.301307 0.977358 -0.224908
C10   C     C_3   0.251672 0.654011 0.046338 -0.206784
C11   C     C_3   0.292346 0.301217 0.021476 -0.224579
C12   C     C_3   0.745316 0.654563 0.953491 -0.208519
C13   C     C_3   0.209440 0.801309 0.977339 -0.224898
C14   C     C_3   0.751718 0.154016 0.046324 -0.206841
C15   C     C_3   0.792092 0.801279 0.021630 -0.224465
C16   C     C_3   0.245082 0.154630 0.953575 -0.208853
C17   C     C_R   0.725092 0.760418 0.634653 -0.052197
C18   C     C_R   0.294860 0.223472 0.450761 -0.007491
C19   C     C_R   0.274298 0.760670 0.363122 -0.055073
C20   C     C_R   0.704178 0.222045 0.545982 -0.008141
C21   C     C_R   0.225025 0.260411 0.634358 -0.051809
C22   C     C_R   0.794972 0.723365 0.451140 -0.007597
C23   C     C_R   0.774314 0.260669 0.363204 -0.054942
C24   C     C_R   0.204139 0.722012 0.545859 -0.008248
C25   C     C_R   0.321426 0.316202 0.577650 -0.172250
C26   C     C_R   0.709772 0.658082 0.528437 -0.156861
C27   C     C_R   0.678064 0.315481 0.420589 -0.172979
C28   C     C_R   0.288574 0.657263 0.466629 -0.156095
C29   C     C_R   0.821535 0.816121 0.578007 -0.172130
C30   C     C_R   0.209617 0.158165 0.527960 -0.156918
C31   C     C_R   0.178023 0.815451 0.420467 -0.172778
C32   C     C_R   0.788617 0.157287 0.466766 -0.156150
C33   C     C_R   0.322360 0.295901 0.504335 0.177248
C34   C     C_R   0.701813 0.685079 0.591513 0.180719
C35   C     C_R   0.677128 0.294760 0.493677 0.176889
C36   C     C_R   0.297079 0.685054 0.404644 0.180553
C37   C     C_R   0.822463 0.795805 0.504690 0.177251
C38   C     C_R   0.201703 0.185098 0.591112 0.180700
C39   C     C_R   0.177088 0.794727 0.493555 0.176967
C40   C     C_R   0.797106 0.185059 0.404754 0.180519
C41   C     C_R   0.245702 0.185730 0.441823 0.126872
C42   C     C_R   0.783730 0.788489 0.660803 0.155995
C43   C     C_R   0.752663 0.183919 0.553470 0.127279
C44   C     C_R   0.215701 0.788621 0.337253 0.155508
C45   C     C_R   0.745858 0.685592 0.442283 0.126874
C46   C     C_R   0.283639 0.288511 0.660464 0.156036
C47   C     C_R   0.252614 0.683878 0.553329 0.127278
C48   C     C_R   0.715728 0.288631 0.337356 0.155520
C49   C     C_R   0.246424 0.203887 0.518035 0.020604
C50   C     C_R   0.786994 0.768302 0.589745 0.026412
C51   C     C_R   0.752049 0.202726 0.477597 0.021411
C52   C     C_R   0.212148 0.767748 0.407682 0.027973
C53   C     C_R   0.746577 0.703783 0.518487 0.020657
C54   C     C_R   0.286870 0.268373 0.589354 0.026349
C55   C     C_R   0.252002 0.702694 0.477460 0.021380
C56   C     C_R   0.712189 0.267773 0.407805 0.028028
C57   C     C_R   0.328017 0.097609 0.421123 -0.094634
C58   C     C_R   0.676379 0.897638 0.597985 -0.100630
C59   C     C_R   0.671743 0.097208 0.578020 -0.095526
C60   C     C_R   0.323518 0.897725 0.401579 -0.101544
C61   C     C_R   0.828043 0.597578 0.421220 -0.094658
C62   C     C_R   0.176367 0.397634 0.597934 -0.100657
C63   C     C_R   0.171734 0.597198 0.577988 -0.095579
C64   C     C_R   0.823521 0.397723 0.401592 -0.101536
C65   C     C_R   0.405114 0.803640 0.489223 -0.077497
C66   C     C_R   0.590306 0.192365 0.491145 -0.104957
C67   C     C_R   0.594634 0.803616 0.510044 -0.076792
C68   C     C_R   0.409440 0.192762 0.507899 -0.103684
C69   C     C_R   0.905120 0.303641 0.489242 -0.077458
C70   C     C_R   0.090298 0.692356 0.491115 -0.104953
C71   C     C_R   0.094610 0.303621 0.509969 -0.076887
C72   C     C_R   0.909465 0.692737 0.507996 -0.103663
C73   C     C_R   0.582077 0.169074 0.725561 -0.108801
C74   C     C_R   0.398399 0.808675 0.282781 -0.085398
C75   C     C_R   0.416874 0.169223 0.273683 -0.109251
C76   C     C_R   0.601818 0.808636 0.716793 -0.086174
C77   C     C_R   0.082080 0.669077 0.725562 -0.108804
C78   C     C_R   0.898390 0.308671 0.282784 -0.085436
C79   C     C_R   0.916892 0.669212 0.273694 -0.109129
C80   C     C_R   0.101855 0.308614 0.716765 -0.086186
C81   C     C_R   0.671935 0.826676 0.813411 0.092790
C82   C     C_R   0.358824 0.137017 0.171185 0.090709
C83   C     C_R   0.328497 0.826858 0.185653 0.093074
C84   C     C_R   0.639277 0.136373 0.828000 0.091528
C85   C     C_R   0.171989 0.326648 0.813340 0.092779
C86   C     C_R   0.858872 0.636987 0.171195 0.090645
C87   C     C_R   0.828486 0.326855 0.185661 0.093073
C88   C     C_R   0.139272 0.636371 0.827999 0.091573
C89   C     C_R   0.340264 0.174634 0.454106 0.089157
C90   C     C_R   0.667482 0.818178 0.581947 0.063590
C91   C     C_R   0.659307 0.173920 0.544245 0.089909
C92   C     C_R   0.332219 0.818290 0.417007 0.064224
C93   C     C_R   0.840310 0.674585 0.454286 0.089263
C94   C     C_R   0.167451 0.318176 0.581827 0.063503
C95   C     C_R   0.159291 0.673904 0.544186 0.089973
C96   C     C_R   0.832227 0.318290 0.417038 0.064178
C97   C     C_3   0.664952 0.238688 0.966609 0.270033
C98   C     C_3   0.295849 0.716623 0.056530 0.254543
C99   C     C_3   0.333965 0.235217 0.030631 0.271774
C100  C     C_3   0.703734 0.720255 0.944808 0.255812
C101  C     C_3   0.164946 0.738758 0.966542 0.269980
C102  C     C_3   0.795832 0.216695 0.056465 0.254602
C103  C     C_3   0.834035 0.735603 0.030987 0.271444
C104  C     C_3   0.203830 0.220641 0.945104 0.256143
C105  C     C_3   0.232751 0.712381 0.087303 -0.171128
C106  C     C_3   0.728800 0.243709 0.937750 -0.199981
C107  C     C_3   0.764726 0.709468 0.910730 -0.173311
C108  C     C_3   0.272512 0.247307 0.063233 -0.200818
C109  C     C_3   0.732801 0.212316 0.087354 -0.171198
C110  C     C_3   0.228859 0.743642 0.937797 -0.199966
C111  C     C_3   0.264455 0.209143 0.910480 -0.173699
C112  C     C_3   0.772220 0.746984 0.063050 -0.200585
C113  C     C_3   0.276543 0.773883 0.095869 0.039850
C114  C     C_3   0.684718 0.181545 0.927886 0.032114
C115  C     C_3   0.723502 0.774121 0.903624 0.039521
C116  C     C_3   0.313734 0.181808 0.071399 0.032850
C117  C     C_3   0.776530 0.273886 0.095871 0.039825
C118  C     C_3   0.184716 0.681545 0.927884 0.032107
C119  C     C_3   0.223557 0.274120 0.903583 0.039497
C120  C     C_3   0.813767 0.681807 0.071424 0.032755
H1    H     H_    0.739421 0.926595 0.861412 0.122694
H2    H     H_    0.282415 0.045997 0.117384 0.113021
H3    H     H_    0.260746 0.926432 0.137982 0.123036
H4    H     H_    0.715837 0.045159 0.882559 0.114631
H5    H     H_    0.239429 0.426616 0.861352 0.122513
H6    H     H_    0.782446 0.545984 0.117371 0.113213
H7    H     H_    0.760745 0.426440 0.137990 0.123044
H8    H     H_    0.215826 0.545147 0.882559 0.114660
H9    H     H_    0.844566 0.870932 0.620977 0.193092
H10   H     H_    0.186445 0.102907 0.486552 0.193319
H11   H     H_    0.155437 0.870558 0.378645 0.192269
H12   H     H_    0.811312 0.101686 0.506811 0.193610
H13   H     H_    0.344480 0.370996 0.620663 0.193092
H14   H     H_    0.686626 0.602802 0.487094 0.193334
H15   H     H_    0.655474 0.370584 0.378759 0.192254
H16   H     H_    0.311263 0.601657 0.506658 0.193618
H17   H     H_    0.430474 0.747998 0.511938 0.139583
H18   H     H_    0.563371 0.247315 0.458572 0.139761
H19   H     H_    0.569116 0.748035 0.486918 0.140213
H20   H     H_    0.436250 0.247843 0.539896 0.140347
H21   H     H_    0.930484 0.248000 0.511970 0.139520
H22   H     H_    0.063361 0.747305 0.458531 0.139818
H23   H     H_    0.069075 0.248047 0.486790 0.140210
H24   H     H_    0.936282 0.747812 0.540036 0.140361
H25   H     H_    0.235147 0.702008 0.150497 0.180096
H26   H     H_    0.726588 0.255959 0.874963 0.172192
H27   H     H_    0.760991 0.696554 0.846482 0.180910
H28   H     H_    0.276388 0.262254 0.127326 0.172466
H29   H     H_    0.735239 0.201890 0.150588 0.180117
H30   H     H_    0.226692 0.755838 0.875050 0.172186
H31   H     H_    0.260500 0.195964 0.846061 0.181026
H32   H     H_    0.775868 0.761666 0.126967 0.172441
N1    N     N_R   0.625380 0.928280 0.709340 -0.045080
N2    N     N_R   0.374620 0.071720 0.290660 -0.046770
N3    N     N_R   0.374620 0.928280 0.290660 -0.045161
N4    N     N_R   0.625380 0.071720 0.709340 -0.047055
N5    N     N_R   0.125380 0.428280 0.709340 -0.045087
N6    N     N_R   0.874620 0.571720 0.290660 -0.046763
N7    N     N_R   0.874620 0.428280 0.290660 -0.045158
N8    N     N_R   0.125380 0.571720 0.709340 -0.047066
N9    N     N_R   0.386100 0.070250 0.452470 -0.049892
N10   N     N_R   0.613900 0.929750 0.547530 -0.047774
N11   N     N_R   0.613900 0.070250 0.547530 -0.050268
N12   N     N_R   0.386100 0.929750 0.452470 -0.047990
N13   N     N_R   0.886100 0.570250 0.452470 -0.049901
N14   N     N_R   0.113900 0.429750 0.547530 -0.047775
N15   N     N_R   0.113900 0.570250 0.547530 -0.050275
N16   N     N_R   0.886100 0.429750 0.452470 -0.047986
N17   N     N_R   0.437800 0.869550 0.507970 -0.049915
N18   N     N_R   0.562200 0.130450 0.492030 -0.050314
N19   N     N_R   0.562200 0.869550 0.492030 -0.049970
N20   N     N_R   0.437800 0.130450 0.507970 -0.050348
N21   N     N_R   0.937800 0.369550 0.507970 -0.049892
N22   N     N_R   0.062200 0.630450 0.492030 -0.050329
N23   N     N_R   0.062200 0.369550 0.492030 -0.049962
N24   N     N_R   0.937800 0.630450 0.507970 -0.050352
N25   N     N_R   0.573690 0.128980 0.653840 -0.049407
N26   N     N_R   0.426310 0.871020 0.346160 -0.049846
N27   N     N_R   0.426310 0.128980 0.346160 -0.049145
N28   N     N_R   0.573690 0.871020 0.653840 -0.049444
N29   N     N_R   0.073690 0.628980 0.653840 -0.049405
N30   N     N_R   0.926310 0.371020 0.346160 -0.049841
N31   N     N_R   0.926310 0.628980 0.346160 -0.049159
N32   N     N_R   0.073690 0.371020 0.653840 -0.049405
Ni1   Ni    Ni4+2 0.616560 1.000000 0.627280 0.237528
Ni2   Ni    Ni4+2 0.383440 1.000000 0.372720 0.237501
Ni3   Ni    Ni4+2 0.116560 0.500000 0.627280 0.237513
Ni4   Ni    Ni4+2 0.883440 0.500000 0.372720 0.237504
Ni5   Ni    Ni4+2 0.497990 0.870580 0.500000 0.232224
Ni6   Ni    Ni4+2 0.502010 0.129420 0.500000 0.242120
Ni7   Ni    Ni4+2 0.997990 0.370580 0.500000 0.232223
Ni8   Ni    Ni4+2 0.002010 0.629420 0.500000 0.242137
H33   H     H_    0.279059 0.064928 0.370547 0.140386
H34   H     H_    0.726998 0.928006 0.658922 0.135010
H35   H     H_    0.720627 0.064494 0.628452 0.141017
H36   H     H_    0.272972 0.928114 0.340559 0.135097
H37   H     H_    0.779097 0.564885 0.370681 0.140428
H38   H     H_    0.226991 0.427996 0.658851 0.135016
H39   H     H_    0.220614 0.564480 0.628409 0.141026
H40   H     H_    0.772973 0.428109 0.340573 0.135113
H41   H     H_    0.553856 0.221675 0.707392 0.131873
H42   H     H_    0.423578 0.752325 0.310380 0.139824
H43   H     H_    0.445612 0.221268 0.291786 0.130892
H44   H     H_    0.576098 0.752565 0.689634 0.138895
H45   H     H_    0.053873 0.721688 0.707399 0.131874
H46   H     H_    0.923568 0.252321 0.310377 0.139790
H47   H     H_    0.945619 0.721268 0.291803 0.130993
H48   H     H_    0.076136 0.252543 0.689629 0.138751
I1    I     I_    0.560189 0.254476 0.894485 -0.296181
I2    I     I_    0.396969 0.695981 0.117872 -0.312421
I3    I     I_    0.438277 0.245087 0.099894 -0.295551
I4    I     I_    0.602964 0.705340 0.886193 -0.310507
I5    I     I_    0.060170 0.754663 0.894333 -0.296494
I6    I     I_    0.896941 0.196178 0.117722 -0.312316
I7    I     I_    0.938458 0.746096 0.100685 -0.295931
I8    I     I_    0.103169 0.206386 0.886927 -0.310359
H49   H     H_    0.692954 0.362315 0.950179 0.162393
H50   H     H_    0.267664 0.592841 0.072750 0.168519
H51   H     H_    0.310857 0.361940 0.048244 0.163075
H52   H     H_    0.727401 0.593633 0.927361 0.166771
H53   H     H_    0.193053 0.862318 0.950148 0.162348
H54   H     H_    0.767754 0.092848 0.072724 0.168446
H55   H     H_    0.810393 0.862056 0.048486 0.163026
H56   H     H_    0.226954 0.093755 0.927521 0.166604
I9    I     I_    0.864331 0.858319 0.804458 -0.265293
I10   I     I_    0.156274 0.122220 0.295219 -0.290701
I11   I     I_    0.135412 0.859087 0.194743 -0.267320
I12   I     I_    0.841965 0.119534 0.698628 -0.293813
I13   I     I_    0.364289 0.358272 0.804181 -0.265225
I14   I     I_    0.656415 0.622052 0.295725 -0.291044
I15   I     I_    0.635421 0.359076 0.194827 -0.267347
I16   I     I_    0.341919 0.619488 0.698477 -0.293893
I17   I     I_    0.651886 0.613514 0.614748 -0.351594
I18   I     I_    0.354524 0.382072 0.464255 -0.313741
I19   I     I_    0.346904 0.614208 0.380331 -0.353849
I20   I     I_    0.646015 0.380938 0.535822 -0.313735
I21   I     I_    0.151782 0.113460 0.614298 -0.351553
I22   I     I_    0.854551 0.882003 0.464515 -0.313828
I23   I     I_    0.846918 0.114188 0.380437 -0.353969
I24   I     I_    0.145994 0.880914 0.535720 -0.313567

loop_
_geom_bond_atom_site_label_1
_geom_bond_atom_site_label_2
_ccdc_geom_bond_type
C78   C87   A    
C65   C92   A    
C26   C53   A    
C98   C110  S    
C11   H51   S    
C14   C109  S    
C9    C117  S    
C83   C113  S    
C103  C120  S    
N17   Ni5   S    
C31   C52   A    
C69   C96   A    
C11   C119  S    
N31   Ni8   S    
C110  C118  S    
C72   H24   S    
C109  C117  S    
C70   N22   A    
C71   C94   A    
C99   I3    S    
N4    Ni1   S    
C19   C44   A    
C36   I19   S    
N2    Ni2   S    
C30   C38   A    
N14   N23   A    
C13   C110  S    
C57   C89   A    
C27   C35   A    
C106  C114  S    
N16   Ni4   S    
C101  C118  S    
C105  C113  S    
C87   C117  S    
C40   I23   S    
N12   Ni2   S    
N28   Ni5   S    
N23   Ni7   S    
N29   Ni8   S    
C61   C93   A    
C79   H47   S    
N24   Ni8   S    
C7    N7    A    
C21   C94   S    
C6    H6    S    
C1    C81   A    
C49   C54   A    
C71   N23   A    
C63   C95   A    
C24   C39   A    
C97   C109  S    
C23   C96   S    
N19   Ni5   S    
C111  C119  S    
C51   C56   A    
C85   C119  S    
N11   N18   A    
C17   C42   A    
C31   H11   S    
C19   C92   S    
C12   C120  S    
N9    N20   A    
C8    H8    S    
C29   H9    S    
N10   N19   A    
C77   C88   A    
C79   N31   A    
C12   H52   S    
C66   H18   S    
C77   N29   A    
C112  H32   S    
C102  C106  S    
N25   Ni6   S    
N5    N32   A    
C75   N27   A    
C18   C33   A    
C25   H13   S    
N6    N31   A    
C74   C83   A    
C73   C84   A    
C52   C55   A    
C105  H25   S    
C104  C119  S    
C73   N25   A    
C44   C52   A    
C2    H2    S    
N1    N28   A    
N15   Ni3   S    
C2    N2    A    
N2    N27   A    
C48   I15   S    
C46   C54   A    
N12   N17   A    
C100  C115  S    
C69   N21   A    
C65   H17   S    
C16   C116  S    
C41   C49   A    
C39   I24   S    
C6    N6    A    
C28   C55   A    
C3    H3    S    
C62   N14   A    
C29   C50   A    
C60   C92   A    
C101  C105  S    
N16   N21   A    
C20   C91   S    
C7    C87   A    
C70   H22   S    
N13   Ni4   S    
C12   C100  S    
C21   C38   A    
N14   Ni3   S    
C50   C53   A    
C59   N11   A    
C25   C54   A    
C104  I8    S    
C18   C41   A    
C101  I5    S    
C99   C116  S    
C112  C120  S    
N26   Ni5   S    
C75   H43   S    
C27   C56   A    
C98   C113  S    
C47   I16   S    
C74   H42   S    
C67   N19   A    
C9    C106  S    
C14   C114  S    
C22   C37   A    
C73   H41   S    
C58   H34   S    
C67   C90   A    
C66   N18   A    
C8    N8    A    
C57   H33   S    
C8    C88   A    
N7    Ni4   S    
C109  H29   S    
N20   Ni6   S    
C78   H46   S    
C32   C51   A    
C80   C85   A    
C26   H14   S    
C10   H50   S    
C77   H45   S    
C10   C118  S    
N10   Ni1   S    
C107  H27   S    
N4    N25   A    
C74   N26   A    
C99   C111  S    
C81   C115  S    
C3    N3    A    
C68   C89   A    
C76   N28   A    
N32   Ni7   S    
C111  H31   S    
C78   N30   A    
C59   C91   A    
C6    C86   A    
C1    N1    A    
C58   C90   A    
N21   Ni7   S    
C62   H38   S    
C102  C117  S    
C97   I1    S    
C42   C50   A    
N15   N22   A    
C72   C93   A    
C80   H48   S    
C30   C49   A    
C100  C112  S    
C5    N5    A    
C16   C104  S    
C64   H40   S    
C3    C83   A    
C29   C37   A    
C22   C93   S    
C15   C115  S    
C2    C82   A    
C45   I14   S    
C16   H56   S    
C61   H37   S    
C4    N4    A    
C68   H20   S    
C103  I7    S    
N8    N29   A    
C104  C108  S    
C20   C43   A    
C67   H19   S    
C43   I12   S    
C60   H36   S    
C4    C84   A    
C71   H23   S    
C21   C46   A    
C42   I9    S    
C9    H49   S    
C48   C56   A    
C41   I10   S    
C4    H4    S    
C9    C97   S    
C23   C48   A    
C32   H12   S    
C26   C34   A    
C28   H16   S    
C18   C89   S    
C15   C112  S    
C20   C35   A    
C17   C90   S    
N5    Ni3   S    
C80   N32   A    
C13   H53   S    
C110  H30   S    
N3    Ni2   S    
N6    Ni4   S    
C76   C81   A    
C59   H35   S    
C12   C107  S    
C103  C107  S    
N3    N26   A    
C75   C82   A    
C66   C91   A    
C10   C98   S    
N18   Ni6   S    
N13   N24   A    
C106  H26   S    
N11   Ni1   S    
C19   C36   A    
C88   C118  S    
C27   H15   S    
C84   C114  S    
C24   C47   A    
N1    Ni1   S    
C62   C94   A    
C70   C95   A    
C82   C116  S    
C65   N17   A    
C64   N16   A    
C30   H10   S    
N22   Ni8   S    
C24   C95   S    
C38   I21   S    
C32   C40   A    
C68   N20   A    
C108  C116  S    
C37   I22   S    
N27   Ni6   S    
C100  I4    S    
C43   C51   A    
C14   H54   S    
C11   C99   S    
C63   N15   A    
C60   N12   A    
C63   H39   S    
C107  C115  S    
C64   C96   A    
C61   N13   A    
C72   N24   A    
N7    N30   A    
C15   H55   S    
C44   I11   S    
C1    H1    S    
C98   I2    S    
C14   C102  S    
C45   C53   A    
C15   C103  S    
C47   C55   A    
C22   C45   A    
C57   N9    A    
C28   C36   A    
C102  I6    S    
C17   C34   A    
C69   H21   S    
C5    H5    S    
C11   C108  S    
C31   C39   A    
N30   Ni7   S    
C10   C105  S    
C86   C120  S    
C35   I20   S    
N8    Ni3   S    
C7    H7    S    
C97   C114  S    
C76   H44   S    
C34   I17   S    
C13   C101  S    
C5    C85   A    
C79   C86   A    
C13   C113  S    
C33   I18   S    
C23   C40   A    
C16   C111  S    
C25   C33   A    
C46   I13   S    
C108  H28   S    
N9    Ni2   S    
C58   N10   A    
