data_mof_unit_18462.cif
_audit_creation_date              2012-12-11T15:50:26-0500
_audit_creation_method            fapswitch 2.2
_symmetry_space_group_name_H-M    P1
_symmetry_Int_Tables_number       1
_space_group_crystal_system       triclinic
_cell_length_a                    19.268784
_cell_length_b                    10.911167
_cell_length_c                    18.59037
_cell_angle_alpha                 89.693942
_cell_angle_beta                  89.978252
_cell_angle_gamma                 90.099786
_cell_volume                      3908.46886963

loop_
_atom_site_label
_atom_site_type_symbol
_atom_type_description
_atom_site_fract_x
_atom_site_fract_y
_atom_site_fract_z
_atom_type_partial_charge
C1    C     C_R   0.288952 0.998014 0.860708 0.543693
C2    C     C_R   0.709047 0.993684 0.139901 0.561105
C3    C     C_R   0.788952 0.498014 0.860708 0.543694
C4    C     C_R   0.209047 0.493684 0.139901 0.561105
C5    C     C_3   0.507410 0.723515 0.974008 -0.116729
C6    C     C_3   0.459532 0.731197 0.040003 -0.136709
C7    C     C_3   0.007410 0.223516 0.974007 -0.116729
C8    C     C_3   0.959532 0.231196 0.040003 -0.136710
C9    C     C_R   0.216188 0.500760 0.061185 -0.030560
C10   C     C_R   0.777996 0.515413 0.937443 -0.026923
C11   C     C_R   0.716188 0.000760 0.061185 -0.030559
C12   C     C_R   0.277996 0.015413 0.937443 -0.026923
C13   C     C_R   0.274661 0.455861 0.025033 0.077178
C14   C     C_R   0.720459 0.467191 0.974175 0.076316
C15   C     C_R   0.774661 0.955861 0.025033 0.077178
C16   C     C_R   0.220459 0.967191 0.974175 0.076316
C17   C     C_R   0.286569 0.486090 0.953021 -0.023050
C18   C     C_R   0.710088 0.493264 0.046568 -0.023748
C19   C     C_R   0.786569 0.986090 0.953020 -0.023050
C20   C     C_R   0.210088 0.993264 0.046568 -0.023748
C21   C     C_R   0.174642 0.581495 0.947065 -0.135265
C22   C     C_R   0.820530 0.595082 0.050163 -0.140368
C23   C     C_R   0.674642 0.081495 0.947065 -0.135265
C24   C     C_R   0.320530 0.095082 0.050163 -0.140368
C25   C     C_R   0.163346 0.554180 0.019643 -0.165319
C26   C     C_R   0.830123 0.572887 0.977549 -0.161463
C27   C     C_R   0.663346 0.054180 0.019643 -0.165319
C28   C     C_R   0.330123 0.072887 0.977549 -0.161463
C29   C     C_3   0.348859 0.474748 0.044135 0.152436
C30   C     C_3   0.645056 0.481229 0.957545 0.149580
C31   C     C_3   0.848859 0.974748 0.044135 0.152436
C32   C     C_3   0.145056 0.981229 0.957545 0.149580
C33   C     C_3   0.362204 0.503027 0.965103 -0.237761
C34   C     C_3   0.633657 0.505553 0.037331 -0.241022
C35   C     C_3   0.862205 0.003026 0.965103 -0.237761
C36   C     C_3   0.133657 0.005553 0.037331 -0.241022
C37   C     C_R   0.239883 0.560676 0.915130 0.000044
C38   C     C_R   0.757388 0.567096 0.083889 -0.003597
C39   C     C_R   0.739883 0.060676 0.915130 0.000044
C40   C     C_R   0.257388 0.067096 0.083889 -0.003597
C41   C     C_R   0.552780 0.825806 0.436216 0.002932
C42   C     C_R   0.507714 0.832332 0.579220 -0.003756
C43   C     C_R   0.052780 0.325806 0.436216 0.002932
C44   C     C_R   0.007714 0.332332 0.579220 -0.003756
C45   C     C_R   0.440101 0.816961 0.863201 0.542296
C46   C     C_R   0.530668 0.822019 0.144405 0.542134
C47   C     C_R   0.940101 0.316961 0.863201 0.542296
C48   C     C_R   0.030668 0.322019 0.144405 0.542134
C49   C     C_R   0.551943 0.718582 0.477225 0.025006
C50   C     C_R   0.523473 0.723747 0.544261 0.014158
C51   C     C_R   0.051943 0.218582 0.477225 0.025006
C52   C     C_R   0.023473 0.223747 0.544261 0.014157
C53   C     C_R   0.519663 0.942700 0.542644 -0.162307
C54   C     C_R   0.539882 0.938954 0.470286 -0.155061
C55   C     C_R   0.019663 0.442700 0.542644 -0.162307
C56   C     C_R   0.039882 0.438954 0.470286 -0.155061
C57   C     C_3   0.516152 0.597620 0.463719 -0.241986
C58   C     C_3   0.479094 0.614437 0.533768 -0.239738
C59   C     C_3   0.016152 0.097620 0.463719 -0.241986
C60   C     C_3   0.979093 0.114437 0.533768 -0.239738
C61   C     C_R   0.236806 0.577246 0.427223 0.026297
C62   C     C_R   0.744016 0.617707 0.587533 -0.001959
C63   C     C_R   0.736806 0.077246 0.427223 0.026297
C64   C     C_R   0.244016 0.117707 0.587533 -0.001959
C65   C     C_R   0.178312 0.602267 0.468014 -0.010162
C66   C     C_R   0.787548 0.699540 0.550392 -0.016006
C67   C     C_R   0.678312 0.102267 0.468014 -0.010162
C68   C     C_R   0.287548 0.199541 0.550392 -0.016006
C69   C     C_R   0.182941 0.606879 0.541400 0.003083
C70   C     C_R   0.783531 0.708207 0.476952 0.029517
C71   C     C_R   0.682940 0.106879 0.541400 0.003083
C72   C     C_R   0.283530 0.208207 0.476952 0.029517
C73   C     C_R   0.303037 0.542231 0.533956 -0.142369
C74   C     C_R   0.687824 0.567544 0.476381 -0.137407
C75   C     C_R   0.803037 0.042230 0.533956 -0.142369
C76   C     C_R   0.187824 0.067544 0.476381 -0.137407
C77   C     C_R   0.300913 0.558974 0.459378 0.230107
C78   C     C_R   0.683969 0.573325 0.552268 0.233119
C79   C     C_R   0.800913 0.058974 0.459378 0.230107
C80   C     C_R   0.183969 0.073325 0.552268 0.233119
C81   C     C_3   0.136931 0.717544 0.462433 -0.275612
C82   C     C_3   0.865134 0.716688 0.548628 -0.269492
C83   C     C_3   0.636931 0.217544 0.462433 -0.275611
C84   C     C_3   0.365134 0.216689 0.548628 -0.269492
C85   C     C_3   0.140659 0.723039 0.542702 -0.231933
C86   C     C_3   0.859675 0.728374 0.467946 -0.258986
C87   C     C_3   0.640659 0.223039 0.542702 -0.231934
C88   C     C_3   0.359675 0.228374 0.467946 -0.258986
C89   C     C_R   0.259493 0.632921 0.850780 0.535937
C90   C     C_R   0.740014 0.634008 0.149343 0.546014
C91   C     C_R   0.759493 0.132921 0.850780 0.535937
C92   C     C_R   0.240014 0.134008 0.149343 0.546014
C93   C     C_R   0.246247 0.580383 0.575610 -0.026520
C94   C     C_R   0.739320 0.631456 0.438248 -0.035245
C95   C     C_R   0.746247 0.080383 0.575610 -0.026520
C96   C     C_R   0.239320 0.131456 0.438248 -0.035244
C97   C     C_R   0.271161 0.050023 0.648233 0.548646
C98   C     C_R   0.726089 0.043723 0.354495 0.555648
C99   C     C_R   0.771161 0.550022 0.648232 0.548645
C100  C     C_R   0.226089 0.543723 0.354495 0.555648
C101  C     C_R   0.469801 0.823992 0.646521 0.547931
C102  C     C_R   0.563889 0.818685 0.359585 0.569585
C103  C     C_R   0.969801 0.323993 0.646521 0.547931
C104  C     C_R   0.063888 0.318685 0.359585 0.569585
C105  C     C_R   0.259705 0.635168 0.644550 0.550494
C106  C     C_R   0.737169 0.645953 0.360377 0.534925
C107  C     C_R   0.759706 0.135168 0.644550 0.550494
C108  C     C_R   0.237169 0.145953 0.360377 0.534925
C109  C     C_3   0.463747 0.931609 0.035471 -0.124920
C110  C     C_3   0.511692 0.923940 0.968700 -0.108581
C111  C     C_3   0.963746 0.431609 0.035471 -0.124920
C112  C     C_3   0.011692 0.423940 0.968700 -0.108581
C113  C     C_3   0.415751 0.831633 0.003487 -0.148810
C114  C     C_3   0.554944 0.822681 0.005731 -0.119704
C115  C     C_3   0.915751 0.331633 0.003487 -0.148809
C116  C     C_3   0.054944 0.322681 0.005731 -0.119704
C117  C     C_3   0.464138 0.824277 0.937934 0.057216
C118  C     C_3   0.506151 0.830297 0.070763 0.058358
C119  C     C_3   0.964138 0.324277 0.937934 0.057216
C120  C     C_3   0.006151 0.330296 0.070763 0.058358
Cr1   Cr    Cr6+3 0.229640 0.835880 0.747370 1.003302
Cr2   Cr    Cr6+3 0.770360 0.835880 0.252630 1.017671
Cr3   Cr    Cr6+3 0.729640 0.335880 0.747370 1.003302
Cr4   Cr    Cr6+3 0.270360 0.335880 0.252630 1.017670
Cr5   Cr    Cr6+3 0.387390 0.989720 0.750850 0.988344
Cr6   Cr    Cr6+3 0.612610 0.989720 0.249150 0.984494
Cr7   Cr    Cr6+3 0.887390 0.489720 0.750850 0.988344
Cr8   Cr    Cr6+3 0.112610 0.489720 0.249150 0.984494
Cr9   Cr    Cr6+3 0.385770 0.677220 0.749340 0.977512
Cr10  Cr    Cr6+3 0.614230 0.677220 0.250660 0.974090
Cr11  Cr    Cr6+3 0.885770 0.177220 0.749340 0.977511
Cr12  Cr    Cr6+3 0.114230 0.177220 0.250660 0.974090
H1    H     H_    0.507009 0.029634 0.567032 0.117795
H2    H     H_    0.539576 0.022674 0.439534 0.139915
H3    H     H_    0.007009 0.529634 0.567032 0.117795
H4    H     H_    0.039576 0.522674 0.439534 0.139915
H5    H     H_    0.048705 0.015112 0.466945 0.147893
H6    H     H_    0.925442 0.146903 0.526920 0.164375
H7    H     H_    0.548705 0.515112 0.466945 0.147894
H8    H     H_    0.425442 0.646903 0.526920 0.164375
H9    H     H_    0.483419 0.593907 0.416038 0.200298
H10   H     H_    0.487323 0.539050 0.572975 0.159476
H11   H     H_    0.983419 0.093906 0.416038 0.200298
H12   H     H_    0.987323 0.039050 0.572975 0.159476
H13   H     H_    0.350802 0.516374 0.559939 0.124349
H14   H     H_    0.653283 0.509907 0.446486 0.121656
H15   H     H_    0.850801 0.016374 0.559939 0.124349
H16   H     H_    0.153283 0.009907 0.446486 0.121655
H17   H     H_    0.083482 0.705439 0.441836 0.134289
H18   H     H_    0.895353 0.634138 0.564035 0.162929
H19   H     H_    0.583481 0.205439 0.441836 0.134288
H20   H     H_    0.395353 0.134138 0.564035 0.162929
H21   H     H_    0.170905 0.804072 0.559793 0.223169
H22   H     H_    0.872066 0.821766 0.447713 0.193159
H23   H     H_    0.670905 0.304072 0.559793 0.223169
H24   H     H_    0.372066 0.321766 0.447713 0.193159
H25   H     H_    0.089551 0.710735 0.569553 0.136370
H26   H     H_    0.885691 0.652508 0.438699 0.135064
H27   H     H_    0.589551 0.210735 0.569553 0.136370
H28   H     H_    0.385691 0.152508 0.438699 0.135064
H29   H     H_    0.451115 0.016178 0.064912 0.100834
H30   H     H_    0.532610 0.001047 0.936538 0.109365
H31   H     H_    0.951114 0.516178 0.064912 0.100834
H32   H     H_    0.032610 0.501048 0.936538 0.109365
H33   H     H_    0.523945 0.638410 0.947288 0.102318
H34   H     H_    0.443474 0.655767 0.075385 0.098830
H35   H     H_    0.023945 0.138411 0.947288 0.102318
H36   H     H_    0.943475 0.155766 0.075385 0.098830
H37   H     H_    0.134737 0.630933 0.918532 0.180302
H38   H     H_    0.860514 0.644436 0.078095 0.192203
H39   H     H_    0.634737 0.130933 0.918532 0.180302
H40   H     H_    0.360513 0.144436 0.078095 0.192202
H41   H     H_    0.115010 0.582602 0.044172 0.148282
H42   H     H_    0.877920 0.603958 0.952656 0.153105
H43   H     H_    0.615010 0.082601 0.044172 0.148282
H44   H     H_    0.377920 0.103958 0.952656 0.153105
H45   H     H_    0.352153 0.552802 0.082115 0.095684
H46   H     H_    0.635846 0.561218 0.921155 0.100698
H47   H     H_    0.852154 0.052802 0.082115 0.095684
H48   H     H_    0.135846 0.061218 0.921155 0.100698
H49   H     H_    0.378782 0.598283 0.954230 0.114359
H50   H     H_    0.614954 0.599369 0.048796 0.120475
H51   H     H_    0.878782 0.098283 0.954230 0.114359
H52   H     H_    0.114954 0.099369 0.048795 0.120475
O1    O     O_R   0.214300 0.709080 0.827500 -0.503391
O2    O     O_R   0.785700 0.709080 0.172500 -0.500551
O3    O     O_R   0.714300 0.209080 0.827500 -0.503391
O4    O     O_R   0.285700 0.209080 0.172500 -0.500552
O5    O     O_R   0.445900 0.919370 0.676500 -0.497730
O6    O     O_R   0.554100 0.919370 0.323500 -0.510250
O7    O     O_R   0.945900 0.419370 0.676500 -0.497730
O8    O     O_R   0.054100 0.419370 0.323500 -0.510250
O9    O     O_R   0.456660 0.717710 0.669820 -0.535562
O10   O     O_R   0.543340 0.717710 0.330180 -0.546633
O11   O     O_R   0.956660 0.217710 0.669820 -0.535562
O12   O     O_R   0.043340 0.217710 0.330180 -0.546633
O13   O     O_R   0.320590 0.625770 0.672930 -0.508400
O14   O     O_R   0.679410 0.625770 0.327070 -0.520811
O15   O     O_R   0.820590 0.125770 0.672930 -0.508400
O16   O     O_R   0.179410 0.125770 0.327070 -0.520811
O17   O     O_3   0.334270 0.834280 0.749190 -0.281237
O18   O     O_3   0.665730 0.834280 0.250810 -0.296028
O19   O     O_3   0.834270 0.334280 0.749190 -0.281237
O20   O     O_3   0.165730 0.334280 0.250810 -0.296028
O21   O     O_R   0.236190 0.958390 0.823150 -0.490339
O22   O     O_R   0.763810 0.958390 0.176850 -0.498941
O23   O     O_R   0.736190 0.458390 0.823150 -0.490338
O24   O     O_R   0.263810 0.458390 0.176850 -0.498942
O25   O     O_R   0.332090 0.075280 0.831290 -0.528714
O26   O     O_R   0.667910 0.075280 0.168710 -0.521777
O27   O     O_R   0.832090 0.575280 0.831290 -0.528714
O28   O     O_R   0.167910 0.575280 0.168710 -0.521777
O29   O     O_R   0.446280 0.918040 0.826620 -0.514745
O30   O     O_R   0.553720 0.918040 0.173380 -0.518925
O31   O     O_R   0.946280 0.418040 0.826620 -0.514744
O32   O     O_R   0.053720 0.418040 0.173380 -0.518925
O33   O     O_R   0.457080 0.716270 0.831760 -0.532724
O34   O     O_R   0.542920 0.716270 0.168240 -0.538255
O35   O     O_R   0.957080 0.216270 0.831760 -0.532724
O36   O     O_R   0.042920 0.216270 0.168240 -0.538255
O37   O     O_R   0.320980 0.624440 0.823040 -0.519715
O38   O     O_R   0.679020 0.624440 0.176960 -0.505182
O39   O     O_R   0.820980 0.124440 0.823040 -0.519715
O40   O     O_R   0.179020 0.124440 0.176960 -0.505182
O41   O     O_R   0.213880 0.710510 0.665560 -0.526750
O42   O     O_R   0.786120 0.710510 0.334440 -0.510989
O43   O     O_R   0.713880 0.210510 0.665560 -0.526752
O44   O     O_R   0.286120 0.210510 0.334440 -0.510989
O45   O     O_R   0.235800 0.959720 0.673040 -0.482454
O46   O     O_R   0.764200 0.959720 0.326960 -0.471560
O47   O     O_R   0.735800 0.459720 0.673040 -0.482455
O48   O     O_R   0.264200 0.459720 0.326960 -0.471560
O49   O     O_R   0.331670 0.076720 0.669350 -0.528460
O50   O     O_R   0.668330 0.076720 0.330650 -0.538636
O51   O     O_R   0.831670 0.576720 0.669350 -0.528460
O52   O     O_R   0.168330 0.576720 0.330650 -0.538636
H53   H     H_    0.358258 0.829276 0.001956 0.110111
H54   H     H_    0.612370 0.817066 0.008263 0.107332
H55   H     H_    0.858258 0.329275 0.001956 0.110111
H56   H     H_    0.112370 0.317067 0.008263 0.107332
O53   O     O_3   0.360966 0.563378 0.418440 -0.590348
C121  C     C_3   0.365623 0.677578 0.380145 -0.020014
H57   H     H_    0.404226 0.737560 0.406821 0.142441
H58   H     H_    0.317530 0.734093 0.378697 0.101368
C122  C     C_3   0.388290 0.655620 0.302549 -0.334122
H59   H     H_    0.344199 0.621419 0.270037 0.158052
H60   H     H_    0.406508 0.743029 0.278094 0.126776
H61   H     H_    0.430822 0.587328 0.300256 0.168174
O54   O     O_3   0.630942 0.508488 0.587230 -0.585423
C123  C     C_3   0.609779 0.559092 0.654571 0.030815
H62   H     H_    0.572924 0.632854 0.647537 0.152885
H63   H     H_    0.650360 0.603832 0.687238 0.125532
C124  C     C_3   0.573971 0.460250 0.699355 -0.338671
H64   H     H_    0.611846 0.390301 0.717505 0.184908
H65   H     H_    0.549505 0.502726 0.747061 0.091391
H66   H     H_    0.532953 0.414261 0.667380 0.120588
O55   O     O_3   0.860966 0.063378 0.418440 -0.590348
C125  C     C_3   0.865623 0.177578 0.380145 -0.020014
H67   H     H_    0.904227 0.237560 0.406821 0.142441
H68   H     H_    0.817530 0.234093 0.378697 0.101369
C126  C     C_3   0.888289 0.155620 0.302549 -0.334122
H69   H     H_    0.844199 0.121419 0.270037 0.158052
H70   H     H_    0.906508 0.243029 0.278094 0.126776
H71   H     H_    0.930822 0.087328 0.300256 0.168174
O56   O     O_3   0.130942 0.008488 0.587230 -0.585423
C127  C     C_3   0.109779 0.059092 0.654571 0.030815
H72   H     H_    0.072925 0.132854 0.647536 0.152884
H73   H     H_    0.150360 0.103832 0.687239 0.125532
C128  C     C_3   0.073970 0.960250 0.699354 -0.338675
H74   H     H_    0.111845 0.890305 0.717509 0.184905
H75   H     H_    0.049499 0.002728 0.747058 0.091392
H76   H     H_    0.032955 0.914256 0.667377 0.120593
H77   H     H_    0.166202 0.792472 0.435199 0.127268
H78   H     H_    0.881941 0.802720 0.575167 0.129768
H79   H     H_    0.666202 0.292472 0.435199 0.127268
H80   H     H_    0.381941 0.302720 0.575167 0.129768
O57   O     O_3   0.880710 0.864822 0.066907 -0.549916
C129  C     C_3   0.941153 0.892828 0.106617 -0.010122
H81   H     H_    0.927106 0.937163 0.158432 0.136628
H82   H     H_    0.976229 0.954398 0.075618 0.111501
C130  C     C_3   0.981075 0.775897 0.123178 -0.370667
H83   H     H_    0.995158 0.729082 0.072349 0.142851
H84   H     H_    0.029438 0.798525 0.152769 0.106109
H85   H     H_    0.949249 0.713600 0.157222 0.150456
O58   O     O_3   0.115828 0.869117 0.934785 -0.539682
C131  C     C_3   0.046647 0.889785 0.912928 -0.022068
H86   H     H_    0.044482 0.957055 0.867926 0.125422
H87   H     H_    0.015189 0.923917 0.958599 0.126586
C132  C     C_3   0.014222 0.770784 0.887307 -0.367754
H88   H     H_    0.009341 0.706386 0.933328 0.133069
H89   H     H_    0.961639 0.788639 0.865289 0.107893
H90   H     H_    0.046525 0.729412 0.844357 0.154241
O59   O     O_3   0.380710 0.364823 0.066907 -0.549916
C133  C     C_3   0.441153 0.392828 0.106618 -0.010122
H91   H     H_    0.427105 0.437163 0.158433 0.136628
H92   H     H_    0.476229 0.454399 0.075620 0.111500
C134  C     C_3   0.481075 0.275897 0.123179 -0.370667
H93   H     H_    0.495159 0.229083 0.072351 0.142852
H94   H     H_    0.529437 0.298526 0.152771 0.106109
H95   H     H_    0.449248 0.213600 0.157223 0.150456
O60   O     O_3   0.615827 0.369116 0.934786 -0.539682
C135  C     C_3   0.546647 0.389784 0.912930 -0.022069
H96   H     H_    0.544480 0.457055 0.867928 0.125422
H97   H     H_    0.515189 0.423915 0.958601 0.126587
C136  C     C_3   0.514221 0.270783 0.887309 -0.367754
H98   H     H_    0.509341 0.206385 0.933329 0.133068
H99   H     H_    0.461639 0.288637 0.865292 0.107893
H100  H     H_    0.546524 0.229411 0.844358 0.154241
H101  H     H_    0.392682 0.431826 0.936860 0.150067
H102  H     H_    0.605231 0.431186 0.065892 0.152023
H103  H     H_    0.892682 0.931826 0.936860 0.150067
H104  H     H_    0.105231 0.931186 0.065891 0.152023

loop_
_geom_bond_atom_site_label_1
_geom_bond_atom_site_label_2
_ccdc_geom_bond_type
Cr8   O52   S    
C36   H104  S    
Cr2   O22   S    
C73   C93   A    
C75   C95   A    
C48   C120  S    
O60   C135  S    
Cr6   O18   S    
C130  H85   S    
C86   H22   S    
C82   H78   S    
C63   C98   S    
C101  O5    A    
C5    C6    S    
C20   C40   A    
Cr3   O43   S    
C35   H51   S    
C104  O8    A    
C29   C33   S    
Cr1   O41   S    
C9    C13   A    
C8    H36   S    
C72   C88   S    
Cr5   O29   S    
C12   C16   A    
C121  H58   S    
Cr1   O21   S    
Cr10  O18   S    
C123  C124  S    
C105  O13   A    
C96   C108  S    
C59   C60   S    
C29   H45   S    
C122  H59   S    
Cr4   O24   S    
C102  O10   A    
C41   C49   A    
C109  C118  S    
C4    O24   A    
C112  H32   S    
C121  C122  S    
C51   C52   A    
C7    C119  S    
C92   O40   A    
C53   H1    S    
C62   C66   A    
C108  O44   A    
C66   C82   S    
C11   C27   A    
C68   C72   A    
Cr4   O48   S    
C64   C97   S    
C123  H63   S    
C128  H75   S    
C100  O52   A    
C124  H65   S    
C58   H8    S    
C131  C132  S    
Cr7   O51   S    
Cr11  O11   S    
C84   C88   S    
C99   O47   A    
C37   C89   S    
C38   C90   S    
C69   C93   A    
Cr3   O19   S    
C3    O23   A    
C18   C38   A    
Cr1   O17   S    
C19   C35   S    
C76   C96   A    
C131  H87   S    
C44   C55   A    
Cr7   O31   S    
C66   C70   A    
C81   H17   S    
C87   H27   S    
C88   H28   S    
C33   H101  S    
C35   H103  S    
C62   C99   S    
C72   C96   A    
C61   C65   A    
C23   H39   S    
C76   H16   S    
C122  H61   S    
C73   C77   A    
C32   H48   S    
Cr12  O36   S    
C75   C79   A    
Cr9   O13   S    
C60   H6    S    
C22   C38   A    
C115  H55   S    
C67   C83   S    
C125  H68   S    
C111  C112  S    
C110  H30   S    
C7    C8    S    
C53   C54   A    
C57   H7    S    
O54   C123  S    
C21   C25   A    
C77   O53   S    
C64   C68   A    
C42   C53   A    
C89   O37   A    
C126  H69   S    
Cr2   O2    S    
Cr12  O16   S    
C49   C57   S    
C41   C102  S    
O53   C121  S    
Cr6   O6    S    
C43   C104  S    
C52   C60   S    
C98   O46   A    
C61   C77   A    
C136  H99   S    
C107  O43   A    
Cr9   O33   S    
C2    O22   A    
C105  O41   A    
C110  C114  S    
C81   H77   S    
C114  H54   S    
Cr9   O17   S    
C44   C52   A    
C59   H11   S    
O57   C129  S    
C134  H94   S    
C1    C12   S    
C11   C15   A    
C83   H79   S    
C2    C11   S    
C56   H4    S    
C44   C103  S    
C3    O27   A    
C135  H97   S    
Cr1   O45   S    
C30   C34   S    
C1    O25   A    
C79   O55   S    
C10   C14   A    
C29   O59   S    
Cr4   O4    S    
Cr5   O25   S    
C85   H21   S    
Cr7   O7    S    
C116  C120  S    
C73   H13   S    
Cr8   O8    S    
C7    C116  S    
O59   C133  S    
C25   H41   S    
C86   H26   S    
C45   O29   A    
C98   O50   A    
C132  H88   S    
C30   H46   S    
C21   C37   A    
C82   H18   S    
C127  H73   S    
Cr8   O32   S    
C113  C117  S    
C42   C50   A    
C115  C119  S    
C74   C78   A    
C61   C100  S    
C103  O7    A    
C42   C101  S    
O55   C125  S    
C69   C85   S    
C45   C117  S    
C91   O3    A    
C89   O1    A    
C62   C78   A    
C76   C80   A    
C127  C128  S    
C126  H71   S    
C92   O4    A    
C15   C31   S    
C16   C32   S    
C13   C17   A    
C125  H67   S    
C107  O15   A    
C57   C58   S    
C21   H37   S    
C129  H82   S    
C24   H40   S    
C49   C50   A    
C129  H81   S    
Cr11  O39   S    
C4    C9    S    
C81   C85   S    
Cr8   O28   S    
C83   C87   S    
C55   C56   A    
C6    H34   S    
C46   O34   A    
C74   C94   A    
C112  C116  S    
C9    C25   A    
C15   C19   A    
Cr5   O17   S    
C103  O11   A    
C12   C28   A    
C88   H24   S    
C13   C29   S    
C70   C94   A    
C34   H102  S    
C133  H91   S    
C71   C95   A    
C26   H42   S    
Cr2   O42   S    
C132  H90   S    
C46   C118  S    
Cr8   O20   S    
C39   C91   S    
C7    H35   S    
Cr6   O30   S    
C54   H2    S    
C129  C130  S    
C47   O31   A    
Cr11  O19   S    
C106  O14   A    
C128  H74   S    
C64   C80   A    
C17   C33   S    
C110  C117  S    
C101  O9    A    
C83   H19   S    
Cr12  O20   S    
C68   C84   S    
C24   C28   A    
Cr10  O38   S    
C133  C134  S    
C27   H43   S    
C28   H44   S    
C75   H15   S    
C123  H62   S    
C82   C86   S    
C31   H47   S    
C50   C58   S    
O58   C131  S    
C22   H38   S    
C111  C115  S    
C58   H10   S    
C30   O60   S    
C65   C81   S    
C121  H57   S    
C104  O12   A    
C95   C107  S    
C71   C87   S    
C122  H60   S    
C33   H49   S    
C31   C35   S    
C130  H84   S    
C85   H25   S    
C91   O39   A    
C32   C36   S    
C48   O36   A    
Cr12  O40   S    
C74   H14   S    
Cr10  O10   S    
C112  C119  S    
C90   O2    A    
C57   H9    S    
Cr2   O18   S    
C124  H66   S    
C109  C110  S    
C60   H12   S    
C43   C51   A    
C124  H64   S    
C65   C69   A    
C102  O6    A    
C67   C71   A    
C20   C36   S    
Cr3   O47   S    
C136  H98   S    
C22   C26   A    
C128  H76   S    
C78   O54   S    
C132  H89   S    
Cr7   O19   S    
C48   O32   A    
C5    C114  S    
C45   O33   A    
C134  H93   S    
C14   C18   A    
C63   C79   A    
C135  C136  S    
Cr4   O20   S    
Cr11  O35   S    
C90   O38   A    
C131  H86   S    
C55   H3    S    
C59   H5    S    
Cr10  O34   S    
C8    C115  S    
C93   C105  S    
C97   O45   A    
C46   O30   A    
C106  O42   A    
C36   H52   S    
C23   C27   A    
C1    O21   A    
O56   C127  S    
C16   C20   A    
C10   C26   A    
C47   C119  S    
C14   C30   S    
Cr6   O50   S    
Cr4   O44   S    
Cr2   O46   S    
C63   C67   A    
C2    O26   A    
C80   O56   S    
C100  O48   A    
C111  H31   S    
Cr9   O37   S    
C32   O58   S    
Cr6   O26   S    
C126  H70   S    
C130  H83   S    
C47   O35   A    
C5    C117  S    
C111  C120  S    
C108  O16   A    
Cr11  O15   S    
C6    C113  S    
C99   O51   A    
C136  H100  S    
C97   O49   A    
Cr3   O23   S    
C17   C37   A    
C40   C92   S    
C18   C34   S    
C114  C118  S    
C19   C39   A    
C84   H20   S    
Cr7   O27   S    
C5    H33   S    
C134  H95   S    
C87   H23   S    
C125  C126  S    
C51   C59   S    
C70   C86   S    
C8    C120  S    
C135  H96   S    
C94   C106  S    
Cr9   O9    S    
C109  C113  S    
C116  H56   S    
C4    O28   A    
C84   H80   S    
C3    C10   S    
C109  H29   S    
C133  H92   S    
C23   C39   A    
C113  H53   S    
C24   C40   A    
C34   H50   S    
Cr3   O3    S    
C31   O57   S    
C41   C54   A    
Cr5   O49   S    
C127  H72   S    
Cr1   O1    S    
C43   C56   A    
Cr12  O12   S    
Cr5   O5    S    
Cr10  O14   S    
C6    C118  S    
