data_mof_unit_11193.cif
_audit_creation_date              2012-12-10T20:39:53-0500
_audit_creation_method            fapswitch 2.2
_symmetry_space_group_name_H-M    P1
_symmetry_Int_Tables_number       1
_space_group_crystal_system       triclinic
_cell_length_a                    23.426677
_cell_length_b                    10.679132
_cell_length_c                    9.853725
_cell_angle_alpha                 89.622421
_cell_angle_beta                  90.103008
_cell_angle_gamma                 90.227219
_cell_volume                      2465.09439936

loop_
_atom_site_label
_atom_site_type_symbol
_atom_type_description
_atom_site_fract_x
_atom_site_fract_y
_atom_site_fract_z
_atom_type_partial_charge
C1    C     C_R   0.501959 0.259778 0.500259 0.884917
C2    C     C_R   0.970557 0.280267 0.482477 -0.157524
C3    C     C_R   0.029969 0.281170 0.483227 -0.158259
C4    C     C_R   0.059992 0.394716 0.493884 -0.013721
C5    C     C_R   0.029929 0.508240 0.504351 -0.021922
C6    C     C_R   0.059692 0.622684 0.515112 -0.015179
C7    C     C_R   0.029333 0.735270 0.525634 -0.157975
C8    C     C_R   0.969905 0.734350 0.525368 -0.157093
C9    C     C_R   0.119573 0.398035 0.494292 0.501626
C10   C     C_R   0.119308 0.621232 0.514384 0.505257
C11   C     C_R   0.238658 0.538692 0.620596 -0.119399
C12   C     C_R   0.389312 0.501314 0.499989 0.879147
C13   C     C_R   0.297887 0.536734 0.619561 -0.187035
C14   C     C_R   0.327117 0.505819 0.500239 -0.054855
C15   C     C_R   0.296443 0.480221 0.381194 -0.216037
C16   C     C_R   0.237228 0.482462 0.382341 -0.095161
C17   C     C_R   0.208397 0.510869 0.502205 0.313271
C18   C     C_R   0.762076 0.513925 0.623868 -0.100943
C19   C     C_R   0.702840 0.512180 0.623609 -0.212276
C20   C     C_R   0.672966 0.501364 0.500514 -0.038203
C21   C     C_R   0.703072 0.492121 0.377902 -0.214047
C22   C     C_R   0.762328 0.493475 0.378639 -0.100500
C23   C     C_R   0.502287 0.740049 0.499574 0.883320
C24   C     C_R   0.791652 0.504488 0.501513 0.324372
C25   C     C_R   0.516694 0.062716 0.621964 0.151046
C26   C     C_R   0.512009 0.128461 0.499972 -0.107916
C27   C     C_R   0.519422 0.065613 0.376530 -0.216505
C28   C     C_R   0.519730 0.936140 0.376047 -0.215453
C29   C     C_R   0.512656 0.871180 0.499008 -0.108016
C30   C     C_R   0.517100 0.934840 0.621406 0.140072
C31   C     C_3   0.481412 0.925087 0.746541 -0.463667
C32   C     C_3   0.480628 0.066815 0.746749 -0.511995
C33   C     C_R   0.451180 0.473753 0.071321 0.159744
C34   C     C_R   0.610712 0.500259 0.500094 0.871787
C35   C     C_R   0.546852 0.537003 0.071874 -0.132948
C36   C     C_R   0.546890 0.536789 0.927902 -0.148080
C37   C     C_R   0.450944 0.475298 0.928723 0.192080
C38   C     C_3   0.416257 0.358362 0.922277 0.321118
C39   C     C_3   0.417758 0.354746 0.076639 -0.570300
C40   C     C_R   0.880276 0.617483 0.513437 0.503787
C41   C     C_R   0.880621 0.394421 0.491849 0.504356
C42   C     C_R   0.940214 0.392878 0.492580 -0.015735
C43   C     C_R   0.969960 0.507319 0.503839 -0.021721
C44   C     C_R   0.939876 0.620844 0.514409 -0.015469
H1    H     H_    0.948550 0.191258 0.473926 0.193402
H2    H     H_    0.680566 0.519667 0.719410 0.153934
H3    H     H_    0.680962 0.483568 0.281762 0.155877
H4    H     H_    0.785546 0.486161 0.284104 0.137129
H5    H     H_    0.520554 0.115115 0.280240 0.170523
H6    H     H_    0.520960 0.888139 0.279586 0.174059
H7    H     H_    0.438751 0.882521 0.727492 0.208645
H8    H     H_    0.505435 0.884180 0.833444 0.207887
H9    H     H_    0.437526 0.105674 0.726574 0.195087
H10   H     H_    0.503903 0.107738 0.834405 0.202355
H11   H     H_    0.584963 0.565112 0.125885 0.150891
H12   H     H_    0.052229 0.192820 0.475188 0.193230
H13   H     H_    0.585036 0.564616 0.873801 0.154943
H14   H     H_    0.439654 0.281597 0.871417 0.083899
H15   H     H_    0.375264 0.367009 0.124051 0.220426
H16   H     H_    0.443002 0.275225 0.118146 0.175021
H17   H     H_    0.051342 0.824294 0.533983 0.192805
H18   H     H_    0.947636 0.822676 0.533552 0.193447
H19   H     H_    0.216202 0.561222 0.713192 0.148736
H20   H     H_    0.320700 0.560119 0.711615 0.206488
H21   H     H_    0.318051 0.457638 0.287804 0.159018
H22   H     H_    0.213640 0.461675 0.290533 0.143855
H23   H     H_    0.785091 0.522285 0.718812 0.136899
N1    N     N_R   0.852291 0.505523 0.502160 -0.361687
N2    N     N_R   0.147674 0.510093 0.503924 -0.358632
N3    N     N_R   0.499610 0.499140 0.142800 -0.104044
N4    N     N_R   0.499610 0.499180 0.857150 -0.141393
O1    O     O_R   0.500010 0.316790 0.614690 -0.621350
O2    O     O_2   0.851055 0.286141 0.481475 -0.545402
O3    O     O_2   0.149357 0.290413 0.485814 -0.554595
O4    O     O_2   0.148828 0.729714 0.522913 -0.550684
O5    O     O_R   0.500000 0.316760 0.385350 -0.620186
O6    O     O_R   0.416160 0.499980 0.614700 -0.595234
O7    O     O_R   0.416150 0.499940 0.385360 -0.615569
O8    O     O_R   0.500000 0.683240 0.614650 -0.617057
O9    O     O_R   0.499990 0.683210 0.385310 -0.618725
O10   O     O_R   0.583850 0.500060 0.614640 -0.628441
O11   O     O_R   0.583840 0.500020 0.385300 -0.629210
O12   O     O_2   0.850372 0.724833 0.523096 -0.546183
Zn1   Zn    Zn3+2 0.500000 0.500020 0.653130 0.957530
Zn2   Zn    Zn3+2 0.500000 0.499980 0.346870 0.952539
O13   O     O_3   0.361159 0.384652 0.871599 -0.594066
C45   C     C_3   0.333646 0.271958 0.836280 -0.282039
H24   H     H_    0.334536 0.202456 0.921020 0.163169
H25   H     H_    0.353055 0.232159 0.743319 0.160078
H26   H     H_    0.288271 0.292469 0.813059 0.204659

loop_
_geom_bond_atom_site_label_1
_geom_bond_atom_site_label_2
_ccdc_geom_bond_type
C22   H4    S    
C45   H24   S    
C17   N2    S    
C41   C42   A    
C19   C20   A    
C31   H8    S    
C19   H2    S    
C7    C8    A    
C26   C27   A    
C37   C38   S    
C38   O13   S    
C18   C24   A    
C23   C29   S    
C28   C29   A    
C9    N2    A    
C11   H19   S    
O8    Zn1   S    
C15   C16   A    
C15   H21   S    
C18   C19   A    
C10   O4    S    
C7    H17   S    
C38   H14   S    
C28   H6    S    
C35   C36   A    
C35   N3    A    
C16   C17   A    
C12   O7    A    
C34   O10   A    
C23   O9    A    
C29   C30   A    
C42   C43   A    
C36   N4    A    
C20   C34   S    
C25   C32   S    
C5    C43   A    
C13   C14   A    
C40   O12   S    
C32   H10   S    
C41   N1    A    
C2    H1    S    
C38   C39   S    
C1    O1    A    
C35   H11   S    
C36   H13   S    
O13   C45   S    
O6    Zn1   S    
C25   C26   A    
C33   C37   A    
C43   C44   A    
O9    Zn2   S    
C3    H12   S    
C31   C32   S    
C30   C31   S    
C39   H15   S    
C12   O6    A    
C33   C39   S    
O1    Zn1   S    
C33   N3    A    
O7    Zn2   S    
C12   C14   S    
C37   N4    A    
C1    C26   S    
C22   C24   A    
C16   H22   S    
C9    O3    S    
C3    C4    A    
C32   H9    S    
O10   Zn1   S    
N4    Zn1   S    
C25   C30   A    
C11   C17   A    
C1    O5    A    
C8    C44   A    
C31   H7    S    
C4    C5    A    
C6    C10   A    
C6    C7    A    
O11   Zn2   S    
C45   H25   S    
C2    C3    A    
C18   H23   S    
C11   C13   A    
C5    C6    A    
C13   H20   S    
C2    C42   A    
C39   H16   S    
C24   N1    S    
C41   O2    S    
C10   N2    A    
C40   C44   A    
C20   C21   A    
C40   N1    A    
C45   H26   S    
C27   C28   A    
C14   C15   A    
C34   O11   A    
C23   O8    A    
C4    C9    A    
C21   C22   A    
N3    Zn2   S    
O5    Zn2   S    
C27   H5    S    
C8    H18   S    
C21   H3    S    
