data_mof_unit_42789.cif
_audit_creation_date              2013-03-05T15:48:07-0500
_audit_creation_method            fapswitch 2.2
_symmetry_space_group_name_H-M    P1
_symmetry_Int_Tables_number       1
_space_group_crystal_system       triclinic
_cell_length_a                    15.099387
_cell_length_b                    13.002865
_cell_length_c                    11.664694
_cell_angle_alpha                 99.893591
_cell_angle_beta                  93.797104
_cell_angle_gamma                 90.210747
_cell_volume                      2250.91589422

loop_
_atom_site_label
_atom_site_type_symbol
_atom_site_description
_atom_site_fract_x
_atom_site_fract_y
_atom_site_fract_z
_atom_type_partial_charge
O1    O     O_R   0.504720 0.354460 0.582000 -0.583476
O2    O     O_R   0.495280 0.645540 0.418000 -0.581403
O3    O     O_R   0.493480 0.341410 0.386200 -0.591806
O4    O     O_R   0.506520 0.658590 0.613800 -0.589095
C1    C     C_R   0.498716 0.299033 0.478609 0.817784
C2    C     C_R   0.501289 0.700966 0.521390 0.822991
O5    O     O_R   0.375880 0.506510 0.597910 -0.587037
O6    O     O_R   0.624120 0.493490 0.402090 -0.590958
O7    O     O_R   0.364640 0.493450 0.402110 -0.586783
O8    O     O_R   0.635360 0.506550 0.597890 -0.587361
C3    C     C_R   0.328564 0.500171 0.500371 0.821129
C4    C     C_R   0.671457 0.500533 0.499731 0.821483
Cu1   Cu    Cu3+1 0.506660 0.507730 0.615930 0.971698
Cu2   Cu    Cu3+1 0.493340 0.492270 0.384070 0.968298
C5    C     C_R   0.809096 0.504231 0.396160 -0.155728
C6    C     C_R   0.191002 0.501647 0.604784 -0.153359
C7    C     C_R   0.768269 0.503121 0.499808 -0.118784
C8    C     C_R   0.231832 0.502397 0.501085 -0.119970
C9    C     C_R   0.819636 0.505640 0.604174 -0.160557
C10   C     C_R   0.180600 0.506376 0.398015 -0.157867
C11   C     C_R   0.912238 0.506466 0.606260 0.015010
C12   C     C_R   0.088015 0.507526 0.396311 0.014883
C13   C     C_R   0.953659 0.508810 0.501229 0.003157
C14   C     C_R   0.046640 0.508503 0.502033 0.003378
C15   C     C_R   0.901776 0.510252 0.395278 0.058863
C16   C     C_R   0.098525 0.507873 0.608172 0.057100
C17   C     C_R   0.963566 0.506895 0.711981 0.267320
C18   C     C_R   0.036718 0.509965 0.291162 0.265303
C19   C     C_R   0.056733 0.510104 0.714025 -0.148002
C20   C     C_R   0.943666 0.514167 0.290691 -0.145009
H1    H     H_    0.767541 0.499039 0.316342 0.190743
H2    H     H_    0.232372 0.494428 0.682025 0.191507
H3    H     H_    0.786687 0.506362 0.683904 0.204148
H4    H     H_    0.213665 0.508768 0.318981 0.207064
C21   C     C_R   0.501831 0.814383 0.533762 -0.062959
C22   C     C_R   0.498187 0.185613 0.466237 -0.062638
C23   C     C_R   0.494793 0.014957 0.344121 -0.169684
C24   C     C_R   0.505238 0.985038 0.655877 -0.172090
C25   C     C_R   0.494671 0.123071 0.355164 -0.183206
C26   C     C_R   0.505351 0.876924 0.644834 -0.178597
C27   C     C_R   0.501546 0.139361 0.566308 -0.222100
C28   C     C_R   0.498482 0.860634 0.433690 -0.217393
C29   C     C_R   0.501700 0.031335 0.555983 0.160164
C30   C     C_R   0.498332 0.968660 0.444015 0.160358
H5    H     H_    0.495948 0.812812 0.347610 0.180069
H6    H     H_    0.504080 0.187183 0.652389 0.178845
H7    H     H_    0.507996 0.842414 0.723129 0.167754
H8    H     H_    0.492021 0.157582 0.276869 0.166184
H9    H     H_    0.492182 0.967700 0.257804 0.161580
H10   H     H_    0.507851 0.032295 0.742194 0.160524
N1    N     N_R   0.516670 0.519360 0.790130 -0.195916
N2    N     N_R   0.483330 0.480640 0.209870 -0.200444
C31   C     C_R   0.413915 0.402636 0.022775 -0.091200
C32   C     C_R   0.585735 0.597773 0.977269 -0.118216
C33   C     C_R   0.421859 0.414630 0.145315 0.015377
C34   C     C_R   0.577947 0.585612 0.854717 0.011852
C35   C     C_R   0.538153 0.539011 0.157235 0.068583
C36   C     C_R   0.461791 0.461055 0.842757 0.081532
C37   C     C_R   0.531278 0.535286 0.034357 0.014422
C38   C     C_R   0.468537 0.464920 0.965656 0.017716
H11   H     H_    0.412507 0.412655 0.787390 0.178152
H12   H     H_    0.587515 0.587344 0.212554 0.188183
H13   H     H_    0.619619 0.631848 0.810320 0.125247
H14   H     H_    0.380090 0.368516 0.189725 0.131113
C39   C     C_2   0.348716 0.322993 0.961048 0.335436
H15   H     H_    0.289761 0.306320 0.003529 0.118063
O9    O     O_2   0.362245 0.270566 0.866767 -0.561661
C40   C     C_2   0.650408 0.678004 0.039051 0.403142
H16   H     H_    0.709229 0.695274 0.996636 0.121596
O10   O     O_2   0.636585 0.730204 0.133351 -0.544104
N3    N     N_R   0.921061 0.506243 0.818496 0.083149
O11   O     O_R   0.879315 0.422735 0.834663 -0.380578
O12   O     O_R   0.928061 0.587129 0.901646 -0.322470
N4    N     N_R   0.079196 0.510289 0.184541 0.089955
O13   O     O_R   0.119127 0.427269 0.135614 -0.399415
O14   O     O_R   0.074097 0.591642 0.133351 -0.302203
C41   C     C_2   0.107847 0.514435 0.828387 0.480375
H17   H     H_    0.086617 0.467111 0.889960 0.150010
O15   O     O_2   0.170442 0.575083 0.857627 -0.512119
C42   C     C_2   0.892657 0.521422 0.178817 0.471953
H18   H     H_    0.912012 0.475184 0.098024 0.154523
O16   O     O_2   0.832369 0.583309 0.174879 -0.523526

loop_
_geom_bond_atom_site_label_1
_geom_bond_atom_site_label_2
_geom_bond_distance
_ccdc_geom_bond_type
C26   H7    1.083139 S    
C3    C8    1.461536 S    
C17   C19   1.405721 A    
O7    Cu2   1.968291 S    
C18   N4    1.437240 S    
C35   H12   1.077217 S    
C41   H17   1.085446 S    
O5    C3    1.292827 A    
N4    O14   1.301162 A    
O1    C1    1.291699 A    
C9    C11   1.396794 A    
C14   C16   1.421889 A    
C5    C15   1.402137 A    
C32   C40   1.483993 S    
C36   C38   1.422651 A    
C1    C22   1.456873 S    
C2    C21   1.456840 S    
N1    C34   1.358163 A    
O4    Cu1   1.966041 S    
C21   C28   1.400170 A    
Cu1   N1    2.007052 S    
Cu2   N2    2.007050 S    
C40   H16   1.085796 S    
C39   O9    1.220273 D    
C4    C7    1.462001 S    
C27   H6    1.084679 S    
C31   C39   1.484059 S    
N2    C33   1.358204 A    
C20   C42   1.488211 S    
C36   H11   1.077111 S    
C41   O15   1.221016 D    
C11   C17   1.411564 A    
C37   C38   1.420542 A    
C12   C18   1.411747 A    
Cu1   Cu2   2.671408 S    
C27   C29   1.389057 A    
C22   C27   1.400173 A    
O2    C2    1.291691 A    
C28   C30   1.389052 A    
C31   C38   1.425946 A    
C32   C37   1.425932 A    
C31   C33   1.407986 A    
C6    C16   1.401752 A    
C32   C34   1.407942 A    
N4    O13   1.301234 A    
O4    C2    1.290322 A    
C9    H3    1.082063 S    
N3    O12   1.301204 A    
C24   C29   1.398603 A    
C28   H5    1.084681 S    
C29   C30   1.413392 A    
C23   H9    1.083914 S    
O6    C4    1.293183 A    
C33   H14   1.083005 S    
C34   H13   1.083011 S    
N1    C36   1.364157 A    
O7    C3    1.291013 A    
O3    Cu2   1.966042 S    
O8    C4    1.290888 A    
C42   O16   1.221014 D    
C10   C12   1.396973 A    
C11   C13   1.416791 A    
C12   C14   1.417035 A    
O1    Cu1   1.963753 S    
C17   N3    1.436971 S    
C15   C20   1.419268 A    
C5    C7    1.395216 A    
O6    Cu2   1.971680 S    
C22   C25   1.404032 A    
C42   H18   1.085411 S    
O3    C1    1.290326 A    
O8    Cu1   1.968290 S    
C5    H1    1.079735 S    
C24   H10   1.083913 S    
C6    H2    1.079699 S    
C23   C30   1.398600 A    
C18   C20   1.405966 A    
C21   C26   1.404023 A    
C10   H4    1.082056 S    
N3    O11   1.301166 A    
C23   C25   1.389486 A    
C24   C26   1.389477 A    
C7    C9    1.394909 A    
C8    C10   1.394654 A    
C13   C15   1.421730 A    
O2    Cu2   1.963754 S    
C35   C37   1.422657 A    
N2    C35   1.364220 A    
C13   C14   1.403388 A    
O5    Cu1   1.971676 S    
C19   C41   1.488580 S    
C16   C19   1.419394 A    
C6    C8    1.395050 A    
C39   H15   1.085777 S    
C40   O10   1.220289 D    
C25   H8    1.083137 S    
