data_mof_unit_63083.cif
_audit_creation_date              2012-12-11T15:00:30-0500
_audit_creation_method            fapswitch 2.2
_symmetry_space_group_name_H-M    P1
_symmetry_Int_Tables_number       1
_space_group_crystal_system       triclinic
_cell_length_a                    13.273223
_cell_length_b                    13.280653
_cell_length_c                    26.81603
_cell_angle_alpha                 96.823573
_cell_angle_beta                  97.02694
_cell_angle_gamma                 61.237
_cell_volume                      4102.91724741

loop_
_atom_site_label
_atom_site_type_symbol
_atom_type_description
_atom_site_fract_x
_atom_site_fract_y
_atom_site_fract_z
_atom_type_partial_charge
C1    C     C_R   0.378928 0.723175 0.435289 0.551259
C2    C     C_1   0.329811 0.340177 0.268146 0.093846
C3    C     C_1   0.343704 0.347412 0.321019 0.044274
C4    C     C_1   0.362296 0.356232 0.365869 0.050374
C5    C     C_3   0.711327 0.411565 0.265836 0.087229
C6    C     C_3   0.863739 0.203463 0.273436 -0.190258
C7    C     C_3   0.879778 0.192969 0.216398 -0.218853
C8    C     C_1   0.896407 0.292004 0.103047 -0.002491
C9    C     C_3   0.825813 0.329029 0.295357 0.080394
C10   C     C_3   0.728239 0.399758 0.208849 -0.190989
C11   C     C_3   0.853766 0.310743 0.198765 0.006294
C12   C     C_R   0.394635 0.373159 0.417658 0.558467
C13   C     C_3   0.936566 0.350338 0.229920 -0.198780
C14   C     C_3   0.919121 0.363191 0.286932 0.016563
C15   C     C_1   0.871573 0.300884 0.145382 -0.067278
C16   C     C_1   0.806165 0.342940 0.348829 0.040852
C17   C     C_1   0.776925 0.363699 0.390985 0.055410
C18   C     C_3   0.464495 0.743115 0.271938 0.046584
C19   C     C_3   0.305164 0.948487 0.286347 -0.149129
C20   C     C_3   0.296546 0.965660 0.229372 0.135217
C21   C     C_1   0.304317 0.890357 0.101140 0.018898
C22   C     C_3   0.345192 0.820678 0.294011 0.027854
C23   C     C_R   0.725012 0.399036 0.437593 0.554082
C24   C     C_3   0.456780 0.760578 0.215104 -0.169297
C25   C     C_3   0.332300 0.848519 0.197619 0.043967
C26   C     C_3   0.250041 0.802112 0.207549 -0.275079
C27   C     C_3   0.256713 0.786875 0.264345 -0.269311
C28   C     C_1   0.321916 0.865342 0.143971 -0.022267
C29   C     C_1   0.351823 0.801434 0.347124 -0.010547
C30   C     C_1   0.361340 0.773405 0.388994 0.033539
C31   C     C_3   0.391004 0.410458 0.731593 -0.174403
C32   C     C_3   0.390587 0.220416 0.711639 -0.230984
C33   C     C_3   0.380269 0.214862 0.767946 -0.260943
C34   C     C_R   0.381559 0.724425 0.575530 0.541793
C35   C     C_1   0.296373 0.309101 0.887802 0.013387
C36   C     C_3   0.331936 0.347189 0.697938 0.027796
C37   C     C_3   0.382698 0.403673 0.788274 0.131489
C38   C     C_3   0.314797 0.337899 0.793651 0.069935
C39   C     C_3   0.193278 0.399125 0.765603 -0.198445
C40   C     C_3   0.203526 0.405562 0.709210 -0.217670
C41   C     C_1   0.305494 0.327668 0.846388 -0.011901
C42   C     C_1   0.344163 0.352467 0.645045 -0.066860
C43   C     C_1   0.362743 0.360095 0.603418 -0.003262
C44   C     C_1   0.888920 0.294236 0.864463 -0.000088
C45   C     C_R   0.395629 0.375977 0.557713 0.548380
C46   C     C_1   0.861258 0.306063 0.820174 -0.036896
C47   C     C_1   0.838294 0.320101 0.767946 -0.002767
C48   C     C_1   0.821224 0.333612 0.723455 -0.005027
C49   C     C_1   0.798599 0.352664 0.671650 -0.043014
C50   C     C_1   0.771433 0.373116 0.627993 -0.005154
C51   C     C_1   0.293647 0.893208 0.862931 0.024805
C52   C     C_1   0.313496 0.865303 0.819348 -0.002280
C53   C     C_1   0.331170 0.841663 0.767527 0.019952
C54   C     C_1   0.343235 0.823849 0.722988 0.002728
C55   C     C_1   0.355617 0.800283 0.670748 -0.041733
C56   C     C_R   0.724080 0.403776 0.577725 0.541109
C57   C     C_1   0.366489 0.772372 0.626515 -0.004488
C58   C     C_R   0.942410 0.277740 0.056088 0.548896
C59   C     C_R   0.287979 0.271243 0.073245 0.548222
C60   C     C_R   0.270548 0.937550 0.053354 0.551195
C61   C     C_R   0.936901 0.279075 0.915587 0.543893
C62   C     C_R   0.281619 0.274041 0.933210 0.542952
C63   C     C_R   0.262745 0.940869 0.912974 0.549551
C64   C     C_1   0.304863 0.302725 0.125129 0.015834
C65   C     C_1   0.313933 0.320389 0.170016 0.002109
C66   C     C_1   0.321872 0.333132 0.222903 0.075925
Cr1   Cr    Cr6+3 0.585490 0.589720 0.509170 1.062822
Cr2   Cr    Cr6+3 0.329280 0.580760 0.494920 1.053267
Cr3   Cr    Cr6+3 0.585250 0.329540 0.495950 1.060605
Cr4   Cr    Cr6+3 0.077160 0.074530 0.981700 1.048404
Cr5   Cr    Cr6+3 0.079310 0.333830 0.996170 1.045771
Cr6   Cr    Cr6+3 0.334250 0.081620 0.994710 1.054405
H1    H     H_    0.668118 0.372776 0.186219 0.179017
H2    H     H_    0.687151 0.501734 0.280212 0.152888
H3    H     H_    0.707958 0.485005 0.196409 0.102819
H4    H     H_    0.027251 0.287144 0.222547 0.179712
H5    H     H_    0.518276 0.790396 0.207535 0.213495
H6    H     H_    0.219193 0.003484 0.301389 0.127639
H7    H     H_    0.365271 0.976466 0.308134 0.226358
H8    H     H_    0.205465 0.026718 0.217769 0.128950
H9    H     H_    0.281834 0.695673 0.269739 0.149334
H10   H     H_    0.169965 0.841258 0.278793 0.131331
H11   H     H_    0.273512 0.717986 0.185817 0.140265
H12   H     H_    0.489075 0.651586 0.275929 0.166631
H13   H     H_    0.482069 0.676561 0.193016 0.092221
H14   H     H_    0.159760 0.862767 0.194666 0.120820
H15   H     H_    0.471418 0.355865 0.806375 0.135344
H16   H     H_    0.483419 0.370695 0.723813 0.100958
H17   H     H_    0.349533 0.173270 0.688041 0.133492
H18   H     H_    0.483224 0.176797 0.703866 0.129784
H19   H     H_    0.467994 0.167793 0.787092 0.119359
H20   H     H_    0.945698 0.142747 0.293402 0.149565
H21   H     H_    0.334187 0.164918 0.771315 0.128486
H22   H     H_    0.159899 0.497252 0.699896 0.141018
H23   H     H_    0.158848 0.362287 0.685363 0.124984
H24   H     H_    0.142354 0.487399 0.783140 0.181166
H25   H     H_    0.350202 0.501715 0.721858 0.174192
H26   H     H_    0.145045 0.351195 0.768697 0.110828
H27   H     H_    0.798371 0.177106 0.279162 0.181692
H28   H     H_    0.821258 0.162620 0.194728 0.146804
H29   H     H_    0.969737 0.127280 0.209062 0.118517
H30   H     H_    0.889190 0.454897 0.300632 0.156235
H31   H     H_    0.920431 0.434385 0.217661 0.120453
O1    O     O_R   0.700490 0.499650 0.456540 -0.491359
O2    O     O_R   0.339040 0.474950 0.540330 -0.493730
O3    O     O_R   0.494500 0.302900 0.543920 -0.504323
O4    O     O_R   0.682200 0.343540 0.552130 -0.496089
O5    O     O_3   0.500010 0.500010 0.500010 -0.263992
O6    O     O_R   0.170650 0.959160 0.034150 -0.508447
O7    O     O_R   0.983870 0.178140 0.033160 -0.494247
O8    O     O_R   0.966160 0.354510 0.046020 -0.503436
O9    O     O_R   0.187830 0.326650 0.051390 -0.498816
O10   O     O_R   0.362200 0.173970 0.055450 -0.487402
O11   O     O_R   0.326660 0.983110 0.039170 -0.480750
O12   O     O_R   0.479270 0.682700 0.457880 -0.478731
O13   O     O_R   0.165170 0.960730 0.925500 -0.492224
O14   O     O_R   0.978790 0.179600 0.932440 -0.494768
O15   O     O_R   0.960680 0.356080 0.937360 -0.501251
O16   O     O_R   0.182750 0.328100 0.950670 -0.491378
O17   O     O_R   0.356720 0.175530 0.946790 -0.510668
O18   O     O_R   0.321590 0.984560 0.938450 -0.501341
O19   O     O_3   0.163570 0.163330 0.990860 -0.261835
O20   O     O_R   0.304400 0.696100 0.445190 -0.507859
O21   O     O_R   0.337880 0.472540 0.439600 -0.494124
O22   O     O_R   0.493250 0.300300 0.435260 -0.488051
O23   O     O_R   0.681040 0.341130 0.451400 -0.489938
O24   O     O_R   0.701750 0.502250 0.565200 -0.504284
O25   O     O_R   0.480430 0.685110 0.558610 -0.495626
O26   O     O_R   0.305650 0.698700 0.553850 -0.502773
Br1   Br    Br    0.587985 0.768506 0.308561 -0.518699
Cl1   Cl    Cl    0.380663 0.032689 0.218391 -0.598448
Cl2   Cl    Cl    0.592286 0.388678 0.275400 -0.685496
Cl3   Cl    Cl    0.319379 0.545085 0.819784 -0.636479
Br2   Br    Br    0.066003 0.275028 0.325258 -0.587925

loop_
_geom_bond_atom_site_label_1
_geom_bond_atom_site_label_2
_ccdc_geom_bond_type
C26   H11   S    
C22   C29   S    
Cr6   O18   S    
Cr5   O19   S    
C36   C42   S    
C19   C20   S    
Cr2   O21   S    
C6    C9    S    
Cr3   O4    S    
C53   C54   T    
C52   C53   S    
C25   C28   S    
C7    C11   S    
C59   C64   S    
C29   C30   T    
C18   C24   S    
C32   C36   S    
C9    C16   S    
C33   H19   S    
C38   C39   S    
C10   H1    S    
Cr1   O5    S    
C14   H30   S    
C20   C25   S    
Cr4   O14   S    
Cr6   O11   S    
C56   O24   A    
C5    H2    S    
Cr1   O12   S    
C60   O6    A    
Cr4   O7    S    
C8    C58   S    
C54   C55   S    
C11   C15   S    
C5    Cl2   S    
C32   H18   S    
C47   C48   T    
C34   O26   A    
C44   C46   T    
C16   C17   T    
Cr5   O8    S    
C34   C57   S    
C18   H12   S    
C13   H31   S    
C24   H13   S    
C62   O17   A    
C59   O10   A    
Cr3   O22   S    
C58   O7    A    
C13   C14   S    
Cr2   O20   S    
C63   O18   A    
Cr3   O5    S    
C45   O2    A    
Cr1   O1    S    
C7    H28   S    
C20   H8    S    
C61   O14   A    
C58   O8    A    
C27   H9    S    
C19   C22   S    
C51   C63   S    
C24   C25   S    
C38   C41   S    
C39   C40   S    
C39   H26   S    
C12   O22   A    
C14   Br2   S    
Cr4   O13   S    
C25   C26   S    
Cr6   O10   S    
C50   C56   S    
C31   C37   S    
C19   H6    S    
C9    C14   S    
C1    O20   A    
C56   O4    A    
C5    C9    S    
C37   C38   S    
Cr4   O6    S    
Cr1   O24   S    
C10   H3    S    
Cr4   O19   S    
C23   O1    A    
C12   O21   A    
C13   H4    S    
C36   C40   S    
C26   H14   S    
Cr5   O9    S    
Cr6   O17   S    
C59   O9    A    
C26   C27   S    
C17   C23   S    
C19   H7    S    
C43   C45   S    
C62   O16   A    
C21   C60   S    
C23   O23   A    
C63   O13   A    
C48   C49   S    
C21   C28   T    
Cr3   O23   S    
C49   C50   T    
C8    C15   T    
C22   C27   S    
C55   C57   T    
C32   H17   S    
C7    H29   S    
C37   Cl3   S    
C18   Br1   S    
C4    C12   S    
C42   C43   T    
C40   H23   S    
C3    C4    T    
C45   O3    A    
C46   C47   S    
C31   H16   S    
Cr5   O15   S    
Cr6   O19   S    
C61   O15   A    
C18   C22   S    
C37   H15   S    
C27   H10   S    
C40   H22   S    
C2    C66   T    
C33   H21   S    
Cr3   O3    S    
C6    C7    S    
C44   C61   S    
C60   O11   A    
C1    O12   A    
C33   C38   S    
Cr5   O16   S    
C32   C33   S    
C2    C3    S    
C51   C52   T    
Cr1   O25   S    
C6    H27   S    
C11   C13   S    
C6    H20   S    
C64   C65   T    
C1    C30   S    
C35   C62   S    
C31   H25   S    
Cr2   O26   S    
C35   C41   T    
Cr2   O5    S    
C39   H24   S    
C10   C11   S    
C24   H5    S    
C5    C10   S    
C34   O25   A    
C65   C66   S    
Cr2   O2    S    
C31   C36   S    
C20   Cl1   S    
