data_mof_unit_5372.cif
_audit_creation_date              2012-12-10T18:39:52-0500
_audit_creation_method            fapswitch 2.2
_symmetry_space_group_name_H-M    P1
_symmetry_Int_Tables_number       1
_space_group_crystal_system       triclinic
_cell_length_a                    11.525684
_cell_length_b                    10.805892
_cell_length_c                    10.640878
_cell_angle_alpha                 89.244693
_cell_angle_beta                  88.693513
_cell_angle_gamma                 89.958818
_cell_volume                      1324.81154305

loop_
_atom_site_label
_atom_site_type_symbol
_atom_type_description
_atom_site_fract_x
_atom_site_fract_y
_atom_site_fract_z
_atom_type_partial_charge
C1    C     C_R   0.281239 0.500032 0.500912 0.909791
C2    C     C_3   0.441493 0.411988 0.041130 0.055191
C3    C     C_3   0.405278 0.522396 0.957233 0.059986
C4    C     C_3   0.621329 0.481784 0.041163 0.069863
C5    C     C_3   0.515991 0.500607 0.876223 -0.159040
C6    C     C_3   0.510514 0.503073 0.121688 -0.150233
C7    C     C_1   0.160988 0.500124 0.505894 -0.204654
C8    C     C_1   0.838363 0.500343 0.512250 -0.187371
C9    C     C_1   0.058893 0.500361 0.510356 -0.013406
C10   C     C_1   0.940426 0.500572 0.513338 -0.010975
C11   C     C_3   0.285061 0.538358 0.898070 -0.397713
C12   C     C_R   0.718257 0.500024 0.507820 0.869966
C13   C     C_3   0.194554 0.601211 0.984412 -0.345623
C14   C     C_3   0.070974 0.571614 0.945393 -0.910658
C15   C     C_3   0.748807 0.471540 0.081785 -0.453977
C16   C     C_3   0.768420 0.391260 0.198154 -0.298971
C17   C     C_3   0.897853 0.373851 0.221260 -0.900540
C18   C     C_3   0.434387 0.738882 0.090150 -0.371430
C19   C     C_3   0.416481 0.838509 0.988519 -0.363893
C20   C     C_3   0.343369 0.945696 0.038566 -0.928369
C21   C     C_3   0.592988 0.268941 0.899152 -0.360866
C22   C     C_3   0.633399 0.167802 0.991133 -0.352687
C23   C     C_R   0.503012 0.500935 0.256482 0.878925
C24   C     C_3   0.764369 0.145172 0.980417 -0.895019
C25   C     C_3   0.678458 0.690527 0.916601 -0.473423
C26   C     C_3   0.660524 0.758542 0.791585 -0.289709
C27   C     C_3   0.737614 0.872136 0.779292 -0.940448
C28   C     C_3   0.367788 0.301173 0.088279 -0.397549
C29   C     C_3   0.258911 0.337583 0.164622 -0.327741
C30   C     C_3   0.214137 0.229719 0.246049 -0.854370
C31   C     C_R   0.509962 0.499701 0.742189 0.870726
C32   C     C_1   0.500017 0.069834 0.500009 0.008366
C33   C     C_1   0.500017 0.930164 0.500014 0.015530
C34   C     C_3   0.475281 0.613873 0.037115 0.070373
C35   C     C_3   0.552723 0.391011 0.959874 0.066038
C36   C     C_3   0.585636 0.592000 0.954826 0.076211
H1    H     H_    0.057526 0.602341 0.846738 0.271114
H2    H     H_    0.909362 0.315992 0.307050 0.261260
H3    H     H_    0.729175 0.439223 0.278609 0.229690
H4    H     H_    0.726558 0.300081 0.192431 0.240052
H5    H     H_    0.801913 0.438291 0.000699 0.211051
H6    H     H_    0.780341 0.565477 0.104932 0.195232
H7    H     H_    0.255572 0.912922 0.068404 0.263869
H8    H     H_    0.386109 0.988654 0.119756 0.266786
H9    H     H_    0.333943 0.016949 0.963372 0.250780
H10   H     H_    0.501950 0.876647 0.958634 0.224895
H11   H     H_    0.374504 0.799264 0.905089 0.233219
H12   H     H_    0.054033 0.470650 0.953748 0.257476
H13   H     H_    0.352955 0.723277 0.145822 0.203395
H14   H     H_    0.500717 0.773717 0.154984 0.212847
H15   H     H_    0.790691 0.123212 0.882302 0.259820
H16   H     H_    0.813676 0.227795 0.006341 0.276197
H17   H     H_    0.788811 0.067102 0.043349 0.251149
H18   H     H_    0.607318 0.188486 0.089142 0.216527
H19   H     H_    0.589186 0.079872 0.968641 0.208445
H20   H     H_    0.518360 0.231040 0.847766 0.190038
H21   H     H_    0.662178 0.290629 0.827731 0.213267
H22   H     H_    0.712602 0.937041 0.854208 0.273687
H23   H     H_    0.007893 0.620624 0.007566 0.249643
H24   H     H_    0.830442 0.846312 0.787973 0.272201
H25   H     H_    0.725055 0.918074 0.686618 0.263574
H26   H     H_    0.685889 0.696236 0.713965 0.257211
H27   H     H_    0.569224 0.788433 0.781916 0.242840
H28   H     H_    0.683610 0.757729 0.994439 0.210997
H29   H     H_    0.764627 0.645290 0.907301 0.196440
H30   H     H_    0.192681 0.149720 0.186343 0.256339
H31   H     H_    0.280437 0.201179 0.314851 0.276014
H32   H     H_    0.134611 0.258533 0.298765 0.252455
H33   H     H_    0.277072 0.416793 0.226490 0.217161
H34   H     H_    0.205234 0.573222 0.083918 0.212009
H35   H     H_    0.189341 0.364046 0.099300 0.225552
H36   H     H_    0.341370 0.246597 0.005994 0.183991
H37   H     H_    0.423302 0.240946 0.146903 0.218580
H38   H     H_    0.205694 0.702935 0.978679 0.233452
H39   H     H_    0.293944 0.594878 0.810478 0.199355
H40   H     H_    0.254503 0.445098 0.871002 0.204652
H41   H     H_    0.941376 0.326939 0.140901 0.256796
H42   H     H_    0.940285 0.464849 0.234685 0.268810
N1    N     N_1   0.500000 0.180630 0.500000 -0.091468
N2    N     N_1   0.500000 0.819370 0.500000 -0.091863
O1    O     O_R   0.334450 0.602530 0.499980 -0.608465
O2    O     O_R   0.665550 0.397470 0.500020 -0.615707
O3    O     O_R   0.665550 0.602530 0.500020 -0.620707
O4    O     O_R   0.334450 0.397470 0.499980 -0.602355
O5    O     O_R   0.499970 0.602510 0.313950 -0.629586
O6    O     O_R   0.500030 0.397490 0.686050 -0.629938
O7    O     O_R   0.500030 0.602510 0.686050 -0.642994
O8    O     O_R   0.499970 0.397490 0.313950 -0.617817
Zn1   Zn    Zn3+2 0.500000 0.636920 0.500000 0.936775
Zn2   Zn    Zn3+2 0.500000 0.363080 0.500000 0.942955

loop_
_geom_bond_atom_site_label_1
_geom_bond_atom_site_label_2
_ccdc_geom_bond_type
C2    C35   S    
C24   H16   S    
C4    C36   S    
C19   C20   S    
C19   H10   S    
C22   H18   S    
C2    C6    S    
C1    O4    A    
C14   H23   S    
C26   C27   S    
C28   C29   S    
C27   H24   S    
C19   H11   S    
C13   H34   S    
C1    O1    A    
C15   C16   S    
C5    C36   S    
C18   C19   S    
N2    Zn1   S    
N1    Zn2   S    
C27   H25   S    
C16   C17   S    
C9    C10   S    
C30   H31   S    
O1    Zn1   S    
C24   H15   S    
C4    C35   S    
C31   O6    A    
C13   C14   S    
C28   H36   S    
O4    Zn2   S    
C28   H37   S    
C20   H8    S    
C29   H33   S    
O3    Zn1   S    
C31   O7    A    
C25   H29   S    
C15   H5    S    
C4    C6    S    
O6    Zn2   S    
O5    Zn1   S    
C14   H12   S    
C25   C36   S    
C3    C34   S    
C25   C26   S    
C6    C34   S    
C12   O3    A    
C25   H28   S    
C26   H27   S    
C21   H21   S    
C29   C30   S    
C8    C12   S    
C17   H41   S    
C12   O2    A    
C18   C34   S    
C30   H30   S    
C16   H4    S    
O8    Zn2   S    
C23   O8    A    
O7    Zn1   S    
C22   C24   S    
C20   H7    S    
C18   H14   S    
C7    C9    T    
C1    C7    S    
C20   H9    S    
C15   H6    S    
C3    C5    S    
C27   H22   S    
C21   H20   S    
C33   N2    T    
C22   H19   S    
C21   C35   S    
C24   H17   S    
O2    Zn2   S    
C11   H40   S    
C32   C33   S    
C4    C15   S    
C2    C3    S    
C26   H26   S    
C11   H39   S    
C32   N1    T    
C14   H1    S    
C11   C13   S    
C6    C23   S    
C5    C35   S    
C17   H42   S    
C34   C36   S    
C17   H2    S    
C3    C11   S    
C16   H3    S    
C13   H38   S    
C8    C10   T    
C23   O5    A    
C2    C28   S    
C29   H35   S    
C21   C22   S    
C30   H32   S    
C18   H13   S    
C5    C31   S    
