data_mof_unit_59808.cif
_audit_creation_date              2012-12-10T16:58:23-0500
_audit_creation_method            fapswitch 2.2
_symmetry_space_group_name_H-M    P1
_symmetry_Int_Tables_number       1
_space_group_crystal_system       triclinic
_cell_length_a                    7.856931
_cell_length_b                    8.617387
_cell_length_c                    23.415427
_cell_angle_alpha                 93.808826
_cell_angle_beta                  84.042002
_cell_angle_gamma                 92.684449
_cell_volume                      1572.04869327

loop_
_atom_site_label
_atom_site_type_symbol
_atom_type_description
_atom_site_fract_x
_atom_site_fract_y
_atom_site_fract_z
_atom_type_partial_charge
C1    C     C_R   0.543881 0.793783 0.499173 0.919285
C2    C     C_R   0.647815 0.464067 0.291692 -0.277395
C3    C     C_R   0.343107 0.540333 0.766909 -0.109047
C4    C     C_R   0.653316 0.466503 0.232458 -0.108351
C5    C     C_R   0.478532 0.483195 0.791977 0.309657
C6    C     C_R   0.514220 0.518999 0.208062 0.310195
C7    C     C_2   0.562703 0.952690 0.489018 -0.031254
C8    C     C_2   0.436225 0.046842 0.511031 -0.026526
C9    C     C_R   0.498938 0.496468 0.610514 0.864600
C10   C     C_R   0.500722 0.503428 0.389445 0.852849
C11   C     C_R   0.451050 0.378753 0.120579 0.501510
C12   C     C_R   0.455910 0.206132 0.501114 0.900851
C13   C     C_R   0.539004 0.624341 0.879580 0.501466
C14   C     C_R   0.572072 0.638259 0.118311 0.518880
C15   C     C_R   0.417992 0.364834 0.881824 0.518625
C16   C     C_R   0.564178 0.636886 0.059129 -0.055244
C17   C     C_R   0.424879 0.366524 0.941061 -0.055224
C18   C     C_R   0.499699 0.501977 0.029968 -0.048961
C19   C     C_R   0.489152 0.501484 0.970240 -0.048841
C20   C     C_R   0.445970 0.368042 0.060459 -0.079613
C21   C     C_R   0.542954 0.635386 0.939747 -0.079718
C22   C     C_R   0.615788 0.768978 0.029229 -0.184518
C23   C     C_R   0.620625 0.424531 0.758213 -0.177055
C24   C     C_R   0.372624 0.234643 0.970996 -0.184338
C25   C     C_R   0.603157 0.771598 0.970458 0.219370
C26   C     C_R   0.385066 0.232051 0.029774 0.219203
C27   C     C_3   0.822608 0.950118 0.929156 -0.684324
C28   C     C_3   0.164341 0.055533 0.071535 -0.684215
C29   C     C_3   0.754490 0.205139 0.641346 -0.729169
C30   C     C_3   0.228134 0.784397 0.359501 -0.738012
C31   C     C_3   0.665338 0.962782 0.388491 -0.820874
C32   C     C_3   0.326287 0.028197 0.610776 -0.800088
C33   C     C_3   0.945498 0.295102 0.399245 -0.715014
C34   C     C_R   0.370451 0.571860 0.242423 -0.180545
C35   C     C_3   0.006662 0.706305 0.599252 -0.679478
C36   C     C_R   0.630050 0.423603 0.698379 0.177063
C37   C     C_R   0.363161 0.571732 0.302184 0.186840
C38   C     C_R   0.494571 0.486356 0.672749 -0.078571
C39   C     C_R   0.502970 0.514166 0.327209 -0.071961
C40   C     C_R   0.350799 0.541794 0.707605 -0.272814
H1    H     H_    0.662781 0.873681 0.051769 0.190719
H2    H     H_    0.840348 0.069467 0.913736 0.239659
H3    H     H_    0.895925 0.944311 0.966953 0.217722
H4    H     H_    0.873513 0.865773 0.894349 0.266872
H5    H     H_    0.426087 0.054836 0.083568 0.280266
H6    H     H_    0.145462 0.936206 0.086920 0.240042
H7    H     H_    0.115120 0.140235 0.106484 0.266549
H8    H     H_    0.090346 0.062378 0.033955 0.217768
H9    H     H_    0.887729 0.378003 0.685504 0.219065
H10   H     H_    0.721823 0.124622 0.676382 0.233402
H11   H     H_    0.875048 0.168681 0.616017 0.234428
H12   H     H_    0.325335 0.130032 0.948473 0.190760
H13   H     H_    0.652148 0.197296 0.612028 0.248251
H14   H     H_    0.102943 0.605061 0.315932 0.216635
H15   H     H_    0.252146 0.865427 0.324272 0.234384
H16   H     H_    0.333311 0.798603 0.387704 0.250521
H17   H     H_    0.107141 0.814763 0.385903 0.229019
H18   H     H_    0.817055 0.964330 0.455708 0.242483
H19   H     H_    0.775323 0.003611 0.358917 0.247399
H20   H     H_    0.549353 0.021437 0.379060 0.242235
H21   H     H_    0.648073 0.834891 0.380136 0.242708
H22   H     H_    0.180038 0.036728 0.542640 0.240412
H23   H     H_    0.724258 0.380345 0.778769 0.136247
H24   H     H_    0.213911 0.985398 0.638896 0.242421
H25   H     H_    0.344202 0.155299 0.621018 0.240651
H26   H     H_    0.440576 0.966938 0.620189 0.241316
H27   H     H_    0.148270 0.337571 0.443564 0.284198
H28   H     H_    0.011119 0.195330 0.375406 0.198377
H29   H     H_    0.962402 0.396402 0.372127 0.226860
H30   H     H_    0.809066 0.261245 0.407492 0.301745
H31   H     H_    0.015609 0.770459 0.515683 0.214782
H32   H     H_    0.936706 0.810485 0.617211 0.199969
H33   H     H_    0.144969 0.727719 0.603401 0.254294
H34   H     H_    0.263733 0.612181 0.222388 0.135652
H35   H     H_    0.958675 0.605724 0.624213 0.242950
H36   H     H_    0.245345 0.589592 0.689156 0.169404
H37   H     H_    0.755728 0.419317 0.309463 0.167090
H38   H     H_    0.233534 0.586151 0.793519 0.141934
H39   H     H_    0.764069 0.424767 0.205377 0.141253
H40   H     H_    0.561197 0.948078 0.916465 0.280144
N1    N     N_R   0.514690 0.511280 0.147300 -0.347328
N2    N     N_2   0.296677 0.997952 0.550998 -0.301110
N3    N     N_2   0.019809 0.332012 0.452339 -0.230251
N4    N     N_2   0.978326 0.676331 0.539663 -0.181123
N5    N     N_R   0.476102 0.491575 0.852807 -0.347407
N6    N     N_2   0.950330 0.457950 0.484560 0.051118
N7    N     N_2   0.049670 0.542050 0.515440 0.018339
N8    N     N_2   0.642588 0.916072 0.944963 -0.300173
N9    N     N_2   0.344482 0.087801 0.055307 -0.300151
N10   N     N_2   0.777253 0.363094 0.665111 -0.293328
N11   N     N_2   0.213490 0.625367 0.335987 -0.287895
N12   N     N_2   0.698807 0.000018 0.447631 -0.299293
O1    O     O_R   0.389250 0.738570 0.503790 -0.605273
O2    O     O_2   0.601248 0.741950 0.847288 -0.568220
O3    O     O_2   0.634308 0.765981 0.147085 -0.563315
O4    O     O_2   0.356096 0.237005 0.853023 -0.563851
O5    O     O_R   0.610750 0.261430 0.496210 -0.594179
O6    O     O_R   0.678390 0.711620 0.493890 -0.624107
O7    O     O_R   0.321610 0.288380 0.506110 -0.661398
O8    O     O_R   0.355400 0.513520 0.588790 -0.631311
O9    O     O_R   0.644600 0.486480 0.411210 -0.635198
O10   O     O_R   0.644550 0.486570 0.578900 -0.569739
O11   O     O_R   0.355450 0.513430 0.421100 -0.621533
O12   O     O_2   0.389589 0.260918 0.152879 -0.568268
Zn1   Zn    Zn3+2 0.306930 0.518000 0.506610 0.950551
Zn2   Zn    Zn3+2 0.693070 0.482000 0.493390 0.984612

loop_
_geom_bond_atom_site_label_1
_geom_bond_atom_site_label_2
_ccdc_geom_bond_type
C24   H12   S    
C28   H7    S    
H27   N3    S    
C34   C37   A    
C31   H21   S    
N4    N7    S    
H9    N10   S    
C7    C8    D    
C11   N1    A    
C26   N9    S    
C35   H35   S    
O8    Zn1   S    
C29   H13   S    
C8    N2    S    
C10   O11   A    
C19   C21   A    
C24   C26   A    
C22   H1    S    
C30   H17   S    
C18   C19   A    
C31   H19   S    
C12   O7    A    
O1    Zn1   S    
C27   H4    S    
C28   H8    S    
C9    O10   A    
C22   C25   A    
C5    C23   A    
C28   N9    S    
H5    N9    S    
C33   H29   S    
C15   N5    A    
C5    N5    S    
C23   H23   S    
H22   N2    S    
C6    N1    S    
N6    Zn2   S    
C2    C39   A    
C29   N10   S    
C29   H10   S    
O7    Zn1   S    
C11   C20   A    
C17   C24   A    
C37   N11   S    
C32   H24   S    
C4    H39   S    
C4    C6    A    
C15   O4    S    
N6    N7    D    
C30   H16   S    
C25   N8    S    
C6    C34   A    
C10   C39   S    
C31   H20   S    
C2    C4    A    
C27   H3    S    
N7    Zn1   S    
C8    C12   S    
C28   H6    S    
C13   C21   A    
O11   Zn1   S    
C33   N3    S    
C12   O5    A    
C11   O12   S    
C33   H30   S    
C34   H34   S    
O5    Zn2   S    
C16   C18   A    
C3    C40   A    
C31   N12   S    
C9    O8    A    
C14   C16   A    
C14   O3    S    
C32   H26   S    
H31   N4    S    
C29   H11   S    
C36   N10   S    
O9    Zn2   S    
C15   C17   A    
C21   C25   A    
C35   H33   S    
C16   C22   A    
C1    C7    S    
C10   O9    A    
C30   N11   S    
C3    C5    A    
C1    O6    A    
C35   H32   S    
C35   N4    S    
C32   N2    S    
C30   H15   S    
O6    Zn2   S    
C13   O2    S    
C36   C38   A    
H14   N11   S    
H40   N8    S    
C2    H37   S    
C38   C40   A    
C27   H2    S    
C20   C26   A    
C7    N12   S    
C9    C38   S    
C17   C19   A    
O10   Zn2   S    
C18   C20   A    
C27   N8    S    
C40   H36   S    
C37   C39   A    
N3    N6    S    
C1    O1    A    
C23   C36   A    
C13   N5    A    
C14   N1    A    
C3    H38   S    
H18   N12   S    
C33   H28   S    
C32   H25   S    
