data_mof_unit_10513.cif
_audit_creation_date              2013-03-05T16:42:13-0500
_audit_creation_method            fapswitch 2.2
_symmetry_space_group_name_H-M    P1
_symmetry_Int_Tables_number       1
_space_group_crystal_system       triclinic
_cell_length_a                    14.931291
_cell_length_b                    10.696335
_cell_length_c                    9.906422
_cell_angle_alpha                 90.166406
_cell_angle_beta                  89.053996
_cell_angle_gamma                 90.389517
_cell_volume                      1581.89717942

loop_
_atom_site_label
_atom_site_type_symbol
_atom_site_description
_atom_site_fract_x
_atom_site_fract_y
_atom_site_fract_z
_atom_type_partial_charge
O1    O     O_R   0.500010 0.316790 0.614690 -0.594903
O2    O     O_R   0.500000 0.316760 0.385350 -0.581820
C1    C     C_R   0.506480 0.260426 0.498862 0.947615
O3    O     O_R   0.367850 0.499990 0.614680 -0.585300
O4    O     O_R   0.367840 0.499950 0.385340 -0.579748
C2    C     C_R   0.327113 0.499725 0.500847 1.029876
Zn1   Zn    Zn3+2 0.500010 0.500020 0.653130 1.070525
Zn2   Zn    Zn3+2 0.499990 0.499980 0.346870 1.126546
O5    O     O_R   0.500000 0.683240 0.614650 -0.601324
O6    O     O_R   0.499990 0.683210 0.385310 -0.544352
O7    O     O_R   0.632160 0.500050 0.614660 -0.624000
O8    O     O_R   0.632150 0.500010 0.385320 -0.584642
C3    C     C_R   0.502304 0.740162 0.499586 0.984275
C4    C     C_R   0.672851 0.499642 0.499132 0.870272
C5    C     C_R   0.814912 0.585474 0.421037 -0.060425
C6    C     C_R   0.768112 0.498297 0.498118 -0.093811
C7    C     C_R   0.811463 0.412319 0.578416 -0.125659
C8    C     C_R   0.904535 0.411730 0.582385 0.016729
C9    C     C_R   0.953094 0.500240 0.503663 0.042264
C10   C     C_R   0.907587 0.588135 0.423777 -0.056617
C11   C     C_R   0.949498 0.323122 0.660654 0.172839
C12   C     C_R   0.043171 0.319585 0.656829 0.258772
C13   C     C_R   0.092120 0.408694 0.579519 -0.130309
C14   C     C_R   0.046593 0.500832 0.504129 -0.140257
C15   C     C_R   0.094517 0.593083 0.428150 -0.176615
C16   C     C_R   0.047742 0.683588 0.353201 0.231601
C17   C     C_R   0.954746 0.678497 0.349470 0.587641
C18   C     C_R   0.185611 0.409614 0.576438 0.638061
C19   C     C_R   0.231576 0.500285 0.502350 -0.322229
C20   C     C_R   0.187842 0.590301 0.427604 0.619428
H1    H     H_    0.778632 0.652940 0.362079 0.238479
H2    H     H_    0.771595 0.344873 0.634938 0.200476
C21   C     C_R   0.543512 0.064440 0.611146 -0.091152
C22   C     C_R   0.526814 0.129894 0.493166 -0.278018
C23   C     C_R   0.528442 0.063997 0.368758 0.195893
C24   C     C_R   0.520487 0.935006 0.371113 0.635952
C25   C     C_R   0.517893 0.871757 0.495636 -0.267041
C26   C     C_R   0.540132 0.936815 0.612161 -0.084964
C27   C     C_3   0.505015 0.932678 0.754802 0.754884
C28   C     C_3   0.509940 0.075965 0.753741 0.033421
H3    H     H_    0.443476 0.121977 0.763458 0.197357
C29   C     C_R   0.427517 0.455948 0.073143 0.060510
N1    N     N_R   0.499390 0.499140 0.142800 -0.190236
C30   C     C_R   0.574103 0.535776 0.068630 0.381685
C31   C     C_R   0.574147 0.532892 0.925374 -0.048818
H4    H     H_    0.632893 0.563771 0.869247 0.214487
N2    N     N_R   0.499390 0.499180 0.857150 -0.166396
C32   C     C_R   0.427371 0.456382 0.930653 0.107754
C33   C     C_3   0.335218 0.509150 0.928398 0.414590
C34   C     C_3   0.335556 0.509083 0.081383 0.424265
H5    H     H_    0.332014 0.603676 0.882374 0.084409
H6    H     H_    0.333000 0.603786 0.127745 0.121771
F1    F     F_    0.510407 0.874110 0.251838 -0.539034
F2    F     F_    0.418198 0.886605 0.764889 -0.626607
N3    N     N_R   0.565449 0.871925 0.848842 0.224331
O9    O     O_R   0.636694 0.813645 0.805659 -0.352148
O10   O     O_R   0.545522 0.870953 0.977024 -0.223704
N4    N     N_R   0.578151 0.130961 0.841045 0.256131
O11   O     O_R   0.662161 0.100450 0.827837 -0.245996
O12   O     O_R   0.556594 0.223420 0.920177 -0.302509
N5    N     N_R   0.650763 0.587028 0.133317 0.229378
O13   O     O_R   0.643057 0.691182 0.200229 -0.285819
O14   O     O_R   0.730295 0.548829 0.097795 -0.318055
F3    F     F_    0.274358 0.424364 0.876814 -0.501865
F4    F     F_    0.274931 0.424652 0.137407 -0.525493
N6    N     N_R   0.900526 0.235619 0.743812 0.228959
O15   O     O_R   0.850994 0.275547 0.844064 -0.267940
O16   O     O_R   0.911316 0.115982 0.726771 -0.245919
N7    N     N_R   0.087622 0.227211 0.735454 0.299159
O17   O     O_R   0.117718 0.126263 0.677405 -0.218669
O18   O     O_R   0.085815 0.234925 0.866548 -0.198938
F5    F     F_    0.233575 0.320657 0.640419 -0.556854
F6    F     F_    0.237730 0.673413 0.354340 -0.607470
N8    N     N_R   0.093010 0.783261 0.283043 0.296660
O19   O     O_R   0.131614 0.871894 0.351548 -0.230646
O20   O     O_R   0.081022 0.798247 0.154330 -0.220462
F7    F     F_    0.910215 0.765001 0.276377 -0.560438
N9    N     N_R   0.532922 0.125389 0.240307 0.272700
O21   O     O_R   0.604093 0.189524 0.206217 -0.281144
O22   O     O_R   0.470855 0.105773 0.151895 -0.231347

loop_
_geom_bond_atom_site_label_1
_geom_bond_atom_site_label_2
_geom_bond_distance
_ccdc_geom_bond_type
N6    O16   1.301026 A    
N3    O9    1.302184 A    
C11   N6    1.436877 S    
C8    C11   1.407235 A    
C9    C10   1.415138 A    
Zn2   N1    2.021765 S    
C31   H4    1.081052 S    
Zn1   O7    2.003447 S    
C16   C17   1.390351 A    
C19   C20   1.389389 A    
N8    O20   1.301033 A    
C24   C25   1.408479 A    
C22   C23   1.417925 A    
N7    O17   1.301153 A    
O4    C2    1.286921 A    
O7    C4    1.286855 A    
N9    O22   1.301180 A    
C27   F2    1.385833 S    
N4    O12   1.299109 A    
C5    C6    1.385109 A    
N7    O18   1.300902 A    
C8    C9    1.416487 A    
N5    O14   1.301127 A    
O5    C3    1.293700 A    
C24   F1    1.357626 S    
C27   N3    1.464120 S    
C23   C24   1.384265 A    
C6    C7    1.388105 A    
C33   H5    1.111990 S    
C34   H6    1.111646 S    
C13   C14   1.421722 A    
C12   N7    1.433145 S    
C3    C25   1.425679 S    
N6    O15   1.301262 A    
C33   F3    1.382322 S    
C11   C12   1.399322 A    
C18   F5    1.359316 S    
O3    Zn1   2.015909 S    
C21   C22   1.391064 A    
C31   N2    1.360433 A    
C5    C10   1.384574 A    
C21   C28   1.496125 S    
C28   N4    1.466071 S    
N8    O19   1.301288 A    
C14   C15   1.424483 A    
O3    C2    1.290059 A    
C27   C28   1.533968 S    
C20   F6    1.359721 S    
N9    O21   1.301347 A    
C1    C22   1.431614 S    
C15   C16   1.416584 A    
O1    C1    1.297130 A    
Zn1   N2    2.021023 S    
N1    C30   1.380785 A    
C25   C26   1.389927 A    
N2    C32   1.365838 A    
Zn2   O8    2.015908 S    
C7    C8    1.390948 A    
C29   C32   1.411622 A    
C13   C18   1.395745 A    
C29   C34   1.490547 S    
C28   H3    1.113342 S    
O8    C4    1.289657 A    
N3    O10   1.299481 A    
C4    C6    1.422422 S    
C29   N1    1.362772 A    
C30   C31   1.419395 A    
C15   C20   1.393910 A    
Zn1   O5    1.997599 S    
C18   C19   1.388800 A    
O1    Zn1   1.995455 S    
O2    Zn2   1.997599 S    
C17   F7    1.360393 S    
O6    C3    1.284856 A    
O4    Zn2   2.003447 S    
C5    H1    1.083309 S    
C10   C17   1.396302 A    
C30   N5    1.426540 S    
C23   N9    1.434007 S    
C21   C26   1.365770 A    
C9    C14   1.396123 A    
N4    O11   1.302686 A    
C26   C27   1.499745 S    
C32   C33   1.491295 S    
C16   N8    1.433708 S    
O2    C1    1.282681 A    
N5    O13   1.299502 A    
C34   F4    1.384992 S    
C2    C19   1.426376 S    
Zn2   O6    1.995457 S    
C33   C34   1.515624 S    
C7    H2    1.083438 S    
C12   C13   1.416142 A    
