data_mof_unit_12922.cif
_audit_creation_date              2012-12-10T16:55:00-0500
_audit_creation_method            fapswitch 2.2
_symmetry_space_group_name_H-M    P1
_symmetry_Int_Tables_number       1
_space_group_crystal_system       triclinic
_cell_length_a                    7.931282
_cell_length_b                    8.528718
_cell_length_c                    15.69817
_cell_angle_alpha                 92.431749
_cell_angle_beta                  84.336412
_cell_angle_gamma                 93.334629
_cell_volume                      1054.18939202

loop_
_atom_site_label
_atom_site_type_symbol
_atom_type_description
_atom_site_fract_x
_atom_site_fract_y
_atom_site_fract_z
_atom_type_partial_charge
C1    C     C_R   0.544903 0.793959 0.498295 0.918630
C2    C     C_2   0.431526 0.042292 0.503119 -0.347406
C3    C     C_R   0.499474 0.499465 0.661251 0.862899
C4    C     C_R   0.455084 0.206034 0.502233 0.972019
C5    C     C_R   0.500661 0.501179 0.338797 0.915385
C6    C     C_3   0.339318 0.579049 0.959066 -0.477095
C7    C     C_3   0.658490 0.600494 0.941434 -0.484345
C8    C     C_3   0.655108 0.624054 0.040275 0.029488
C9    C     C_1   0.502978 0.508933 0.250079 -0.154873
C10   C     C_3   0.500162 0.499211 0.917213 0.265989
C11   C     C_3   0.257122 0.716920 0.105720 -0.374205
C12   C     C_3   0.327465 0.567863 0.057944 0.018568
C13   C     C_3   0.068843 0.725530 0.099656 -0.947904
C14   C     C_3   0.668314 0.803483 0.064215 -0.399769
C15   C     C_3   0.665462 0.847329 0.159898 -0.867490
C16   C     C_3   0.631968 0.220584 0.903450 -0.385181
C17   C     C_3   0.552346 0.109815 0.837423 -0.900122
C18   C     C_3   0.502512 0.519934 0.083340 0.259761
C19   C     C_3   0.526453 0.347283 0.049184 -0.564967
C20   C     C_3   0.501093 0.330219 0.952401 0.012178
C21   C     C_1   0.504336 0.516289 0.174872 -0.082285
C22   C     C_1   0.497497 0.495902 0.825650 -0.065244
C23   C     C_1   0.497969 0.497108 0.750227 -0.172179
C24   C     C_2   0.568281 0.957689 0.498367 -0.373899
H1    H     H_    0.222874 0.520865 0.935051 0.156423
H2    H     H_    0.772198 0.575192 0.058761 0.147916
H3    H     H_    0.371974 0.273076 0.947955 0.162211
H4    H     H_    0.434223 0.263939 0.084677 0.180873
H5    H     H_    0.041712 0.718020 0.031554 0.262196
H6    H     H_    0.999186 0.628250 0.135342 0.269291
H7    H     H_    0.027345 0.839418 0.128864 0.273419
H8    H     H_    0.274497 0.716772 0.174926 0.226472
H9    H     H_    0.318285 0.826153 0.079475 0.220161
H10   H     H_    0.877227 0.100583 0.352580 0.349858
H11   H     H_    0.534610 0.840114 0.191619 0.256525
H12   H     H_    0.233930 0.469023 0.075790 0.161667
H13   H     H_    0.744859 0.770112 0.192296 0.267286
H14   H     H_    0.715787 0.970712 0.168266 0.251642
H15   H     H_    0.790919 0.852096 0.033113 0.202703
H16   H     H_    0.573288 0.868081 0.035022 0.203766
H17   H     H_    0.452458 0.030198 0.869833 0.246026
H18   H     H_    0.495689 0.176396 0.789304 0.270803
H19   H     H_    0.651307 0.036738 0.803567 0.256083
H20   H     H_    0.740577 0.289575 0.870813 0.217386
H21   H     H_    0.685380 0.144229 0.948598 0.204461
H22   H     H_    0.655159 0.313347 0.061510 0.185964
H23   H     H_    0.697701 0.007903 0.494776 0.230127
H24   H     H_    0.301986 0.991829 0.507187 0.214405
H25   H     H_    0.993478 0.636817 0.554013 0.146700
H26   H     H_    0.344610 0.703925 0.940412 0.189954
H27   H     H_    0.776925 0.544071 0.916028 0.156655
H28   H     H_    0.662999 0.715347 0.909684 0.175153
N1    N     N_2   0.950340 0.457950 0.477370 0.114201
N2    N     N_2   0.049660 0.542050 0.522630 -0.136770
O1    O     O_R   0.389240 0.738570 0.505550 -0.626448
O2    O     O_2   0.010686 0.162377 0.502386 -0.340869
O3    O     O_3   0.847467 0.208545 0.371713 -0.534710
O4    O     O_R   0.678400 0.711630 0.491050 -0.646052
O5    O     O_R   0.355360 0.513470 0.630110 -0.623556
O6    O     O_R   0.644510 0.486530 0.615610 -0.630120
O7    O     O_R   0.321600 0.288370 0.508950 -0.538305
O8    O     O_R   0.610760 0.261430 0.494450 -0.560843
O9    O     O_R   0.355490 0.513470 0.384390 -0.569959
O10   O     O_R   0.644640 0.486530 0.369890 -0.583862
O11   O     O_2   0.162262 0.279667 0.373918 -0.296936
S1    S     S_3+6 0.001400 0.275539 0.432370 0.139915
Zn1   Zn    Zn3+2 0.306930 0.517990 0.509680 1.038726
Zn2   Zn    Zn3+2 0.693070 0.482010 0.490320 1.051514

loop_
_geom_bond_atom_site_label_1
_geom_bond_atom_site_label_2
_ccdc_geom_bond_type
C16   H21   S    
C6    C10   S    
C7    C10   S    
C2    C4    S    
C11   C12   S    
C17   H19   S    
C15   H14   S    
C5    C9    S    
N1    S1    S    
C20   H3    S    
C12   H12   S    
C18   C21   S    
C8    H2    S    
O7    Zn1   S    
O1    Zn1   S    
C19   C20   S    
C14   C15   S    
O8    Zn2   S    
O3    S1    S    
C16   C20   S    
O6    Zn2   S    
O5    Zn1   S    
C3    O6    A    
C12   C18   S    
C7    H28   S    
C1    O1    A    
C19   H22   S    
C7    H27   S    
C7    C8    S    
N1    N2    D    
C6    H26   S    
C6    C12   S    
C19   H4    S    
C11   C13   S    
C9    C21   T    
H10   O3    S    
O2    S1    D    
O10   Zn2   S    
O4    Zn2   S    
C11   H8    S    
C18   C19   S    
O9    Zn1   S    
C22   C23   T    
C2    C24   D    
C17   H17   S    
C6    H1    S    
C8    C18   S    
C14   H16   S    
H25   N2    S    
C4    O8    A    
C13   H6    S    
C11   H9    S    
C5    O9    A    
C1    C24   S    
O11   S1    D    
C13   H5    S    
C15   H11   S    
N1    Zn2   S    
C16   H20   S    
C17   H18   S    
C15   H13   S    
C8    C14   S    
N2    Zn1   S    
C2    H24   S    
C14   H15   S    
C1    O4    A    
C24   H23   S    
C3    C23   S    
C4    O7    A    
C13   H7    S    
C10   C22   S    
C5    O10   A    
C10   C20   S    
C16   C17   S    
C3    O5    A    
