data_mof_unit_15218.cif
_audit_creation_date              2012-12-11T15:24:32-0500
_audit_creation_method            fapswitch 2.2
_symmetry_space_group_name_H-M    P1
_symmetry_Int_Tables_number       1
_space_group_crystal_system       triclinic
_cell_length_a                    23.087364
_cell_length_b                    6.939238
_cell_length_c                    20.639335
_cell_angle_alpha                 89.996037
_cell_angle_beta                  93.165437
_cell_angle_gamma                 90.00471
_cell_volume                      3301.55626508

loop_
_atom_site_label
_atom_site_type_symbol
_atom_type_description
_atom_site_fract_x
_atom_site_fract_y
_atom_site_fract_z
_atom_type_partial_charge
O1    O     O_R   0.188030 0.379840 0.189340 -0.547339
O2    O     O_R   0.811970 0.620160 0.810660 -0.527657
O3    O     O_R   0.311970 0.879840 0.310660 -0.547272
O4    O     O_R   0.688030 0.120160 0.689340 -0.527750
O5    O     O_R   0.307090 0.708420 0.185790 -0.538253
O6    O     O_R   0.692910 0.291580 0.814210 -0.550725
O7    O     O_R   0.192910 0.208420 0.314210 -0.538933
O8    O     O_R   0.807090 0.791580 0.685790 -0.550868
C1    C     C_R   0.326603 0.540794 0.170587 0.762386
C2    C     C_R   0.673290 0.459236 0.829271 0.800502
C3    C     C_R   0.173391 0.040775 0.329404 0.762220
C4    C     C_R   0.826714 0.959257 0.670733 0.800985
O9    O     O_R   0.188180 0.709480 0.181650 -0.520885
O10   O     O_R   0.811820 0.290520 0.818350 -0.522175
O11   O     O_R   0.311820 0.209480 0.318350 -0.521195
O12   O     O_R   0.688180 0.790520 0.681650 -0.522015
O13   O     O_R   0.192210 0.880960 0.306500 -0.523846
O14   O     O_R   0.807790 0.119040 0.693500 -0.515453
O15   O     O_R   0.307790 0.380960 0.193500 -0.523079
O16   O     O_R   0.692210 0.619040 0.806500 -0.515340
C5    C     C_R   0.167928 0.540405 0.165356 0.778689
C6    C     C_R   0.832284 0.459390 0.834346 0.859866
C7    C     C_R   0.332067 0.040406 0.334650 0.778769
C8    C     C_R   0.667709 0.959387 0.665663 0.860272
O17   O     O_3   0.251460 0.546730 0.290970 -0.379363
O18   O     O_3   0.748540 0.453270 0.709030 -0.373583
O19   O     O_3   0.248540 0.046730 0.209030 -0.378256
O20   O     O_3   0.751460 0.953270 0.790970 -0.373523
V1    V     V_3+5 0.249730 0.821120 0.242400 1.620933
V2    V     V_3+5 0.750270 0.178880 0.757600 1.729310
V3    V     V_3+5 0.250270 0.321120 0.257600 1.619526
V4    V     V_3+5 0.749730 0.678880 0.742400 1.729378
C9    C     C_R   0.567294 0.860016 0.624651 0.357598
C10   C     C_R   0.432234 0.142356 0.376472 0.391384
C11   C     C_R   0.932681 0.359985 0.875389 0.356378
C12   C     C_R   0.067753 0.642312 0.123555 0.391463
C13   C     C_R   0.618170 0.970580 0.616653 -0.182958
C14   C     C_R   0.381892 0.028526 0.383384 -0.249744
C15   C     C_R   0.881814 0.470577 0.883367 -0.182515
C16   C     C_R   0.118095 0.528515 0.116634 -0.249330
C17   C     C_R   0.620922 0.093607 0.561688 -0.076150
C18   C     C_R   0.379201 0.903074 0.437490 -0.129244
C19   C     C_R   0.879059 0.593580 0.938333 -0.076090
C20   C     C_R   0.120774 0.403063 0.062534 -0.132482
C21   C     C_R   0.569241 0.131049 0.522894 0.033608
C22   C     C_R   0.429995 0.870944 0.478446 0.041307
C23   C     C_R   0.930735 0.630999 0.977140 0.033862
C24   C     C_R   0.069972 0.370906 0.021595 0.041779
C25   C     C_R   0.522893 0.997883 0.524696 0.020067
C26   C     C_R   0.475969 0.005774 0.477136 0.039994
C27   C     C_R   0.977077 0.497832 0.975345 0.020628
C28   C     C_R   0.024002 0.505724 0.022904 0.040624
C29   C     C_R   0.523502 0.856104 0.573755 -0.050728
C30   C     C_R   0.475575 0.147137 0.427857 -0.009853
C31   C     C_R   0.976463 0.356052 0.926293 -0.050475
C32   C     C_R   0.024403 0.647079 0.072179 -0.010024
C33   C     C_R   0.562619 0.292315 0.480531 -0.042566
C34   C     C_R   0.436697 0.709593 0.520709 -0.033306
C35   C     C_R   0.937358 0.792241 0.019508 -0.042486
C36   C     C_R   0.063260 0.209540 0.979347 -0.033971
C37   C     C_R   0.517536 0.293812 0.432343 -0.166499
C38   C     C_R   0.481747 0.708859 0.569172 -0.073165
C39   C     C_R   0.982442 0.793732 0.067696 -0.167046
C40   C     C_R   0.018206 0.208792 0.930890 -0.070636
H1    H     H_    0.513311 0.418119 0.400754 0.189710
H2    H     H_    0.486492 0.584508 0.600605 0.236402
H3    H     H_    0.986670 0.918027 0.099286 0.189769
H4    H     H_    0.013451 0.084429 0.899467 0.236619
C41   C     C_3   0.045530 0.090357 0.529729 -0.159098
C42   C     C_3   0.954657 0.912772 0.470601 -0.138055
C43   C     C_3   0.454446 0.590014 0.970156 -0.172283
C44   C     C_3   0.545341 0.412965 0.029453 -0.162310
C45   C     C_3   0.017694 0.902225 0.552554 0.389791
C46   C     C_3   0.982497 0.100992 0.447819 0.462514
C47   C     C_3   0.482333 0.401788 0.947481 0.458095
C48   C     C_3   0.517456 0.601241 0.052096 0.462188
H5    H     H_    0.028631 0.673818 0.468721 0.198894
H6    H     H_    0.971532 0.329208 0.531686 0.206171
H7    H     H_    0.471382 0.173874 0.031435 0.210381
H8    H     H_    0.528400 0.828998 0.968060 0.210732
C49   C     C_1   0.871867 0.969172 0.624838 -0.023752
C50   C     C_1   0.128258 0.031397 0.375351 -0.055138
C51   C     C_1   0.628143 0.469085 0.875172 -0.023123
C52   C     C_1   0.371721 0.531474 0.124617 -0.051359
C53   C     C_3   0.984427 0.181205 0.518044 -0.280439
C54   C     C_3   0.015758 0.821854 0.482348 -0.338368
C55   C     C_3   0.515533 0.681046 0.981815 -0.280175
C56   C     C_3   0.484259 0.321856 0.017743 -0.292065
C57   C     C_3   0.956874 0.990454 0.540743 -0.009417
C58   C     C_3   0.043307 0.012574 0.459597 -0.023569
C59   C     C_3   0.543132 0.490245 0.959261 -0.034161
C60   C     C_3   0.456661 0.512654 0.040350 -0.035220
C61   C     C_1   0.909977 0.978635 0.586768 0.182988
C62   C     C_1   0.090171 0.023108 0.413487 0.168133
C63   C     C_1   0.590035 0.478475 0.913245 0.190411
C64   C     C_1   0.409797 0.523221 0.086463 0.182361
S1    S     S_3+6 0.556666 0.735656 0.699022 0.051020
O21   O     O_2   0.580720 0.535179 0.694517 -0.304926
O22   O     O_2   0.586765 0.837426 0.755700 -0.339996
O23   O     O_3   0.485653 0.721442 0.712856 -0.440182
H9    H     H_    0.472771 0.856948 0.716654 0.374465
S2    S     S_3+6 0.443550 0.265649 0.302121 0.019024
O24   O     O_2   0.413147 0.163193 0.245732 -0.331867
O25   O     O_2   0.420409 0.467477 0.306094 -0.343183
O26   O     O_3   0.514885 0.274417 0.289184 -0.479625
H10   H     H_    0.517231 0.274442 0.241413 0.403944
S3    S     S_3+6 0.943317 0.235630 0.801027 0.054883
O27   O     O_2   0.919245 0.035160 0.805529 -0.304909
O28   O     O_2   0.913245 0.337421 0.744336 -0.339655
O29   O     O_3   0.014335 0.221399 0.787225 -0.434191
H11   H     H_    0.027250 0.356912 0.783551 0.383252
S4    S     S_3+6 0.056448 0.765576 0.197908 0.019388
O30   O     O_2   0.086866 0.663130 0.254292 -0.332387
O31   O     O_2   0.079584 0.967423 0.193928 -0.342773
O32   O     O_3   0.985115 0.774290 0.210858 -0.479430
H12   H     H_    0.982759 0.773379 0.258627 0.404229
C65   C     C_2   0.677977 0.153732 0.536703 0.474264
H13   H     H_    0.679469 0.217078 0.488817 0.076656
O33   O     O_2   0.724144 0.125745 0.566840 -0.544139
C66   C     C_2   0.321453 0.832253 0.456510 0.419382
H14   H     H_    0.286527 0.803877 0.420633 0.032652
O34   O     O_2   0.311363 0.813504 0.513637 -0.468077
C67   C     C_2   0.822001 0.653689 0.963304 0.474235
H15   H     H_    0.820502 0.716960 0.011198 0.076699
O35   O     O_2   0.775840 0.625776 0.933146 -0.544068
C68   C     C_2   0.178516 0.332273 0.043499 0.425696
H16   H     H_    0.213453 0.303941 0.079365 0.034174
O36   O     O_2   0.188589 0.313501 0.986368 -0.464579
C69   C     C_2   0.596767 0.472991 0.489146 0.323427
H17   H     H_    0.598778 0.574083 0.449182 0.083547
O37   O     O_2   0.620336 0.516012 0.541563 -0.516286
C70   C     C_2   0.402423 0.529638 0.509815 0.504632
H18   H     H_    0.378772 0.504353 0.463722 0.026286
O38   O     O_2   0.401251 0.405286 0.551613 -0.484015
C71   C     C_2   0.903212 0.972907 0.010900 0.323018
H19   H     H_    0.901197 0.073960 0.050869 0.083599
O39   O     O_2   0.879649 0.015967 0.958483 -0.516360
C72   C     C_2   0.097530 0.029596 0.990249 0.508023
H20   H     H_    0.121190 0.004338 0.036339 0.025094
O40   O     O_2   0.098689 0.905223 0.948463 -0.480920
S5    S     S_3+6 0.041568 0.767166 0.622544 0.072941
O41   O     O_2   0.037018 0.890335 0.681901 -0.236943
O42   O     O_2   0.004232 0.591356 0.628423 -0.325172
O43   O     O_3   0.110998 0.700175 0.616308 -0.442061
H21   H     H_    0.111833 0.636308 0.573454 0.338148
S6    S     S_3+6 0.958674 0.238605 0.378457 0.012371
O44   O     O_2   0.998039 0.409193 0.372018 -0.333428
O45   O     O_2   0.960182 0.115329 0.318753 -0.312132
O46   O     O_3   0.890533 0.314898 0.387695 -0.491034
H22   H     H_    0.880668 0.394207 0.348734 0.374117
S7    S     S_3+6 0.458657 0.265644 0.877734 0.038263
O47   O     O_2   0.460527 0.390354 0.818365 -0.268507
O48   O     O_2   0.497929 0.094935 0.871085 -0.332231
O49   O     O_3   0.390399 0.189657 0.886438 -0.477691
H23   H     H_    0.380710 0.110605 0.847375 0.387620
S8    S     S_3+6 0.541251 0.739195 0.121388 0.014008
O50   O     O_2   0.501794 0.909524 0.127816 -0.332343
O51   O     O_2   0.539865 0.616043 0.181139 -0.312977
O52   O     O_3   0.609337 0.815929 0.112055 -0.490462
H24   H     H_    0.619230 0.895065 0.151047 0.373829
C73   C     C_2   0.095176 0.190964 0.565066 0.543008
H25   H     H_    0.090774 0.239621 0.614485 0.141620
O53   O     O_2   0.140451 0.218952 0.538751 -0.508042
C74   C     C_2   0.905118 0.811946 0.435139 0.569182
H26   H     H_    0.909487 0.764814 0.385550 0.087663
O54   O     O_2   0.859984 0.782101 0.461527 -0.507486
C75   C     C_2   0.404873 0.690726 0.934715 0.600696
H27   H     H_    0.409211 0.737953 0.885129 0.108582
O55   O     O_2   0.359747 0.720428 0.961132 -0.497474
C76   C     C_2   0.594892 0.312442 0.064994 0.574930
H28   H     H_    0.590523 0.265573 0.114613 0.086161
O56   O     O_2   0.640037 0.282553 0.038635 -0.506553

loop_
_geom_bond_atom_site_label_1
_geom_bond_atom_site_label_2
_ccdc_geom_bond_type
C34   C38   A    
O1    C5    A    
C68   H16   S    
C50   C62   T    
C58   C62   S    
C55   C59   S    
O19   V1    S    
C65   H13   S    
O13   V1    S    
O3    C7    A    
C60   C64   S    
C44   C48   S    
O15   V3    S    
S4    O31   D    
C73   H25   S    
C67   H15   S    
C75   O55   D    
C45   S5    S    
O7    C3    A    
C20   C68   S    
C12   S4    S    
C10   S2    S    
C40   H4    S    
C33   C69   S    
C74   H26   S    
C41   C73   S    
C14   C18   A    
H8    C55   S    
C65   O33   D    
C52   C64   T    
O4    C8    A    
C67   O35   D    
C76   H28   S    
C6    C15   S    
O32   H12   S    
S1    O21   D    
C2    C51   S    
O1    V3    S    
S2    O26   S    
O2    V4    S    
C18   C22   A    
S7    O49   S    
C33   C37   A    
O3    V1    S    
O29   H11   S    
H7    C56   S    
S1    O22   D    
C28   C32   A    
C1    O15   A    
C3    O13   A    
C43   C60   S    
C56   C60   S    
C2    O16   A    
C70   H18   S    
C42   C46   S    
S3    O27   D    
C73   O53   D    
C41   C45   S    
O14   V2    S    
C21   C25   A    
C71   H19   S    
C16   C20   A    
S6    O45   D    
C47   C59   S    
O11   C7    A    
S7    O47   D    
C51   C63   T    
O12   C8    A    
C43   C75   S    
C22   C34   A    
O17   V1    S    
C74   O54   D    
S3    O28   D    
O10   V2    S    
S4    O30   D    
C44   C56   S    
C66   O34   D    
C24   C36   A    
O5    V1    S    
C3    C50   S    
C9    C29   A    
C39   H3    S    
C23   C35   A    
O7    V3    S    
C38   H2    S    
C11   C31   A    
C27   C28   A    
O8    V4    S    
O20   V4    S    
C54   C58   S    
S5    O43   S    
C47   S7    S    
C75   H27   S    
C44   C59   S    
C53   C57   S    
O18   V4    S    
C23   C27   A    
O19   V3    S    
C48   S8    S    
C57   C61   S    
C9    C13   A    
S5    O42   D    
C44   C76   S    
C11   C15   A    
O2    C6    A    
C12   C32   A    
S6    O46   S    
C49   C61   T    
C29   C38   A    
O52   H24   S    
C12   C16   A    
O8    C4    A    
C21   C33   A    
C31   C40   A    
C8    C13   S    
C32   C39   A    
O9    C5    A    
C26   C30   A    
S2    O25   D    
C48   C55   S    
O49   H23   S    
C72   O40   D    
C48   C60   S    
C43   C55   S    
H6    C53   S    
O6    V2    S    
H5    C54   S    
C10   C30   A    
S3    O29   S    
C42   C57   S    
C41   C58   S    
C42   C54   S    
C19   C67   S    
S1    O23   S    
C41   C53   S    
C66   H14   S    
S6    O44   D    
O16   V4    S    
O9    V1    S    
C71   O39   D    
S8    O50   D    
C68   O36   D    
C10   C14   A    
O17   V3    S    
C46   S6    S    
S8    O52   S    
O5    C1    A    
O43   H21   S    
C42   C74   S    
O6    C2    A    
C15   C19   A    
O11   V3    S    
C30   C37   A    
O12   V4    S    
C7    C14   S    
O26   H10   S    
C22   C26   A    
C35   C39   A    
C36   C40   A    
C34   C70   S    
O10   C6    A    
S8    O51   D    
C69   H17   S    
C45   C57   S    
O20   V2    S    
S5    O41   D    
C43   C47   S    
C18   C66   S    
C5    C16   S    
C76   O56   D    
C25   C29   A    
C46   C58   S    
C35   C71   S    
O23   H9    S    
C4    C49   S    
C27   C31   A    
S7    O48   D    
C46   C53   S    
C13   C17   A    
S2    O24   D    
C45   C54   S    
C11   S3    S    
C72   H20   S    
C1    C52   S    
C59   C63   S    
C37   H1    S    
C47   C56   S    
C24   C28   A    
C70   O38   D    
C25   C26   A    
C4    O14   A    
C17   C21   A    
C9    S1    S    
C17   C65   S    
O46   H22   S    
C19   C23   A    
S4    O32   S    
O4    V2    S    
C20   C24   A    
C36   C72   S    
C69   O37   D    
O18   V2    S    
