data_mof_unit_17819.cif
_audit_creation_date              2012-12-11T18:04:49-0500
_audit_creation_method            fapswitch 2.2
_symmetry_space_group_name_H-M    P1
_symmetry_Int_Tables_number       1
_space_group_crystal_system       triclinic
_cell_length_a                    8.424553
_cell_length_b                    12.763442
_cell_length_c                    22.849345
_cell_angle_alpha                 96.642324
_cell_angle_beta                  88.75679
_cell_angle_gamma                 98.851391
_cell_volume                      2411.33114815

loop_
_atom_site_label
_atom_site_type_symbol
_atom_type_description
_atom_site_fract_x
_atom_site_fract_y
_atom_site_fract_z
_atom_type_partial_charge
Ba1   Ba    Ba6+2 0.856210 0.551220 0.472190 1.643714
Ba2   Ba    Ba6+2 0.333620 0.448870 0.527810 1.660231
C1    C     C_3   0.582838 0.900717 0.281759 -0.340518
C2    C     C_3   0.591719 0.811037 0.319404 0.334305
C3    C     C_3   0.468948 0.295999 0.348706 0.283194
C4    C     C_3   0.422583 0.261651 0.284529 -0.369756
C5    C     C_3   0.932677 0.167425 0.676100 0.317332
C6    C     C_3   0.925003 0.124995 0.735762 -0.321642
C7    C     C_3   0.489791 0.204677 0.719982 0.323986
C8    C     C_3   0.381507 0.124270 0.752827 -0.349614
C9    C     C_R   0.343443 0.521975 0.332415 -0.290355
C10   C     C_R   0.103130 0.583538 0.941335 -0.051839
C11   C     C_R   0.058804 0.576759 0.881155 0.597417
C12   C     C_3   0.098681 0.773563 0.313661 0.344136
C13   C     C_R   0.980839 0.387471 0.878326 0.585900
C14   C     C_R   0.022756 0.391926 0.938429 -0.013707
C15   C     C_R   0.084130 0.490717 0.970191 -0.054756
C16   C     C_R   0.164048 0.681571 0.973462 -0.107202
C17   C     C_R   0.204854 0.688852 0.033354 0.196780
C18   C     C_R   0.188888 0.595310 0.062868 -0.033931
C19   C     C_R   0.126818 0.496372 0.030874 -0.086641
C20   C     C_R   0.004599 0.299385 0.967482 -0.079833
C21   C     C_R   0.046035 0.304607 0.026755 -0.075000
C22   C     C_R   0.107515 0.402531 0.059205 -0.015943
C23   C     C_3   0.081558 0.802797 0.251788 -0.287019
C24   C     C_R   0.150676 0.408009 0.119190 0.585569
C25   C     C_R   0.234017 0.597145 0.122965 0.586986
C26   C     C_2   0.798333 0.426719 0.770597 -0.095197
C27   C     C_3   0.762383 0.404864 0.705065 -0.101448
C28   C     C_1   0.010837 0.525097 0.688008 0.048557
C29   C     C_2   0.063191 0.518452 0.742156 -0.073495
C30   C     C_2   0.948666 0.473511 0.788391 0.223022
C31   C     C_R   0.415126 0.551618 0.231637 -0.095113
C32   C     C_R   0.456867 0.557613 0.291318 -0.019275
C33   C     C_R   0.190240 0.473628 0.314699 0.029785
C34   C     C_3   0.165474 0.795827 0.610080 0.437139
C35   C     C_R   0.146012 0.468671 0.254949 -0.117905
C36   C     C_R   0.257734 0.508615 0.212615 0.219884
C37   C     C_2   0.860766 0.488731 0.673314 -0.221336
C38   C     C_R   0.779060 0.173748 0.505921 -0.007523
C39   C     C_R   0.436364 0.808945 0.474413 -0.261085
C40   C     C_R   0.410949 0.987054 0.454030 -0.080967
C41   C     C_R   0.347786 0.879517 0.452695 0.001097
C42   C     C_R   0.582196 0.846203 0.503584 0.092476
C43   C     C_R   0.646689 0.957163 0.506610 -0.041071
C44   C     C_R   0.560604 0.027689 0.480295 -0.037054
C45   C     C_3   0.071992 0.886844 0.630685 -0.302238
C46   C     C_R   0.625738 0.137346 0.481824 0.052048
C47   C     C_R   0.861257 0.107051 0.533927 0.027646
C48   C     C_R   0.792895 0.000294 0.535567 -0.125107
C49   C     C_3   0.900501 0.212831 0.338472 0.283564
C50   C     C_3   0.877907 0.228929 0.273740 -0.398710
C51   C     C_3   0.706520 0.698241 0.648845 0.288591
C52   C     C_3   0.701116 0.727834 0.715224 -0.345217
H1    H     H_    0.629744 0.844644 0.364695 0.038552
H2    H     H_    0.110254 0.924797 0.675350 0.113474
H3    H     H_    0.092740 0.946564 0.598902 0.120890
H4    H     H_    0.943300 0.858583 0.633384 0.105436
H5    H     H_    0.798360 0.235566 0.365483 0.016884
H6    H     H_    0.831219 0.304605 0.270699 0.108006
H7    H     H_    0.788051 0.163772 0.252171 0.076021
H8    H     H_    0.993366 0.229530 0.249251 0.156153
H9    H     H_    0.829908 0.685039 0.636171 -0.004818
H10   H     H_    0.618167 0.625505 0.636938 0.100073
H11   H     H_    0.509809 0.958592 0.304655 0.108427
H12   H     H_    0.787464 0.801445 0.728141 0.111334
H13   H     H_    0.733717 0.662305 0.738272 0.093919
H14   H     H_    0.578164 0.741831 0.729025 0.134877
H15   H     H_    0.468351 0.766778 0.322030 -0.051141
H16   H     H_    0.525916 0.867398 0.238838 0.132995
H17   H     H_    0.366131 0.326885 0.372140 0.054954
H18   H     H_    0.575168 0.359766 0.350728 0.037018
H19   H     H_    0.309705 0.203511 0.281971 0.167142
H20   H     H_    0.404122 0.331323 0.262288 0.069228
H21   H     H_    0.519145 0.223698 0.260857 0.119088
H22   H     H_    0.704959 0.942642 0.273255 0.136935
H23   H     H_    0.051901 0.728809 0.220961 0.095873
H24   H     H_    0.950313 0.255860 0.683139 0.027704
H25   H     H_    0.816635 0.136424 0.653345 -0.092146
H26   H     H_    0.034065 0.160112 0.761644 0.157231
H27   H     H_    0.818374 0.146427 0.760789 0.106351
H28   H     H_    0.915969 0.036694 0.729831 0.096587
H29   H     H_    0.601330 0.228914 0.746066 -0.019800
H30   H     H_    0.518461 0.166181 0.675624 -0.016245
H31   H     H_    0.446448 0.057694 0.760383 0.063600
H32   H     H_    0.272151 0.091665 0.726697 0.134558
H33   H     H_    0.987796 0.721429 0.324866 0.117117
H34   H     H_    0.346063 0.163064 0.796157 0.130265
H35   H     H_    0.029798 0.231148 0.047139 0.118492
H36   H     H_    0.957869 0.222162 0.944423 0.118496
H37   H     H_    0.504283 0.581206 0.200282 0.104841
H38   H     H_    0.178098 0.754250 0.952343 0.120561
H39   H     H_    0.186405 0.550673 0.754217 0.120934
H40   H     H_    0.711096 0.394876 0.802135 0.095112
H41   H     H_    0.025611 0.434482 0.241202 0.104673
H42   H     H_    0.377321 0.527934 0.378240 0.074532
H43   H     H_    0.201483 0.728840 0.314198 -0.042652
H44   H     H_    0.807606 0.515593 0.636627 -0.020751
H45   H     H_    0.340510 0.037879 0.434646 0.118423
H46   H     H_    0.854762 0.952202 0.559660 0.094106
H47   H     H_    0.384927 0.725567 0.472820 0.064411
H48   H     H_    0.983375 0.851328 0.250408 0.159754
H49   H     H_    0.195661 0.849114 0.237672 0.134460
H50   H     H_    0.110329 0.753329 0.568641 0.068250
N1    N     N_R   0.997377 0.479426 0.850165 -0.423835
N2    N     N_R   0.212572 0.504573 0.150697 -0.427915
O1    O     O_2   0.890290 0.440320 0.360790 -0.490170
O2    O     O_3   0.668982 0.782701 0.621170 -0.660698
O3    O     O_3   0.121254 0.866723 0.353546 -0.581101
O4    O     O_2   0.299410 0.559720 0.639240 -0.442617
O5    O     O_3   0.058870 0.558650 0.568170 -0.534787
O6    O     O_3   0.517310 0.362160 0.604450 -0.475491
O7    O     O_3   0.163599 0.729542 0.654926 -0.632310
O8    O     O_3   0.614910 0.369290 0.471050 -0.510973
O9    O     O_3   0.099190 0.306290 0.575790 -0.461409
O10   O     O_2   0.197591 0.118309 0.541950 -0.468611
O11   O     O_3   0.063009 0.133417 0.644103 -0.600559
O12   O     O_3   0.130840 0.441440 0.431840 -0.463585
O13   O     O_3   0.574800 0.630800 0.528960 -0.496246
O14   O     O_2   0.344900 0.234690 0.472540 -0.433004
O15   O     O_3   0.506306 0.207155 0.372966 -0.636869
O16   O     O_2   0.482055 0.493218 0.702688 -0.481961
O17   O     O_3   0.411803 0.292840 0.715026 -0.555637
O18   O     O_2   0.072845 0.657940 0.856705 -0.596119
O19   O     O_2   0.930688 0.301200 0.850942 -0.621684
O20   O     O_2   0.135438 0.326180 0.143112 -0.608041
O21   O     O_2   0.292719 0.681228 0.150655 -0.592982
O22   O     O_3   0.672400 0.637930 0.395560 -0.479023
O23   O     O_2   0.789444 0.558661 0.292048 -0.503959
O24   O     O_3   0.044791 0.269091 0.362330 -0.642220
O25   O     O_3   0.703078 0.746889 0.294308 -0.605052
O26   O     O_2   0.844800 0.765340 0.527490 -0.485438
O27   O     O_3   0.090520 0.693800 0.424220 -0.502096
O28   O     O_2   0.020078 0.885918 0.462275 -0.479730
P1    P     P_3+3 0.057140 0.408270 0.369700 0.970598
P2    P     P_3+3 0.667360 0.749400 0.544670 0.944530
P3    P     P_3+3 0.144557 0.831306 0.424277 0.956520
P4    P     P_3+3 0.132580 0.591820 0.630310 0.968463
P5    P     P_3+3 0.054313 0.165652 0.572083 1.013367
P6    P     P_3+3 0.655790 0.620751 0.318458 0.937608
P7    P     P_3+3 0.523346 0.236035 0.449464 0.962465
P8    P     P_3+3 0.545137 0.387803 0.681931 0.962898
C53   C     C_2   0.910664 0.097662 0.342576 0.857464
O29   O     O_2   0.010636 0.054323 0.313270 -0.594117
O30   O     O_R   0.813547 0.042239 0.382421 -0.811711
H51   H     H_    0.845525 0.970008 0.386045 0.329938
N3    N     N_2   0.260145 0.791545 0.063446 -0.380799
H52   H     H_    0.336822 0.839916 0.038548 0.189426
C54   C     C_3   0.132994 0.845511 0.090044 -0.166169
H53   H     H_    0.056375 0.866004 0.055350 0.082909
H54   H     H_    0.186179 0.920177 0.116989 0.118803
H55   H     H_    0.057329 0.794231 0.119236 0.123137
N4    N     N_2   0.848420 0.281728 0.506656 -0.430445
H56   H     H_    0.866943 0.313965 0.467447 0.208257
C55   C     C_3   0.812737 0.348478 0.559081 0.000677
H57   H     H_    0.917281 0.401969 0.572839 0.126400
H58   H     H_    0.771713 0.300761 0.595713 -0.047685
H59   H     H_    0.740354 0.409556 0.552462 0.144470
N5    N     N_2   0.330217 0.837323 0.597849 -0.452212
H60   H     H_    0.391065 0.773803 0.590691 0.193954
C56   C     C_3   0.413594 0.923298 0.638395 -0.216691
H61   H     H_    0.540753 0.942648 0.625042 0.111228
H62   H     H_    0.408691 0.900269 0.683886 0.134749
H63   H     H_    0.361472 0.997395 0.636605 0.113042

loop_
_geom_bond_atom_site_label_1
_geom_bond_atom_site_label_2
_ccdc_geom_bond_type
C9    H42   S    
C42   P2    S    
C12   O3    S    
C8    H31   S    
O27   P3    S    
C28   P4    S    
C55   H58   S    
C51   H9    S    
C5    O11   S    
C17   C18   A    
Ba1   O22   S    
Ba1   O26   S    
C24   N2    Am   
O28   P3    D    
O30   H51   S    
Ba2   O12   S    
C5    C6    S    
C1    H11   S    
C43   C44   A    
C8    H34   S    
C12   H43   S    
C23   H23   S    
O3    P3    S    
C26   C27   S    
N3    C54   S    
C22   C24   A    
C12   H33   S    
O2    P2    S    
C3    H18   S    
C50   H7    S    
C54   H54   S    
N5    H60   S    
Ba1   O13   S    
C28   C29   D    
C51   H10   S    
C23   H48   S    
C52   H14   S    
C13   C14   A    
C3    O15   S    
C35   H41   S    
C34   C45   S    
C26   H40   S    
C16   C17   A    
C24   O20   D    
O6    P8    S    
O1    P1    D    
O25   P6    S    
C50   H6    S    
C34   N5    S    
C25   O21   D    
C53   O30   S    
N3    H52   S    
C14   C15   A    
C10   C15   A    
C46   P7    S    
C21   C22   A    
C21   H35   S    
N4    C55   S    
Ba1   P2    S    
C7    C8    S    
O10   P5    D    
C55   H59   S    
C39   C41   A    
O11   P5    S    
Ba1   O27   S    
C34   O7    S    
C2    H15   S    
C56   H62   S    
C49   O24   S    
C4    H20   S    
C2    O25   S    
C44   C46   A    
Ba2   O5    S    
C6    H27   S    
Ba2   P4    S    
O8    P7    S    
O15   P7    S    
O4    P4    D    
C1    H16   S    
C11   N1    Am   
C54   H55   S    
C33   P1    S    
C11   O18   D    
Ba2   O14   S    
C23   H49   S    
C37   H44   S    
C52   H13   S    
C25   N2    Am   
C29   H39   S    
C40   H45   S    
C15   C19   A    
C49   C50   S    
C36   N2    S    
C35   C36   A    
C45   H3    S    
Ba2   O9    S    
C29   C30   S    
C26   C30   D    
O26   P2    D    
Ba2   O6    S    
C27   C37   S    
N5    C56   S    
C31   C32   A    
C20   H36   S    
C4    H21   S    
C10   C11   A    
C1    H22   S    
Ba1   O1    S    
C5    H24   S    
O24   P1    S    
O9    P5    S    
C30   N1    S    
C47   P5    S    
C2    H1    S    
C40   C44   A    
C39   C42   A    
C6    H28   S    
C38   N4    S    
C49   H5    S    
Ba1   O8    S    
O16   P8    D    
C1    C2    S    
C56   H63   S    
C42   C43   A    
C4    H19   S    
C5    H25   S    
C38   C46   A    
C8    H32   S    
C14   C20   A    
C33   C35   A    
C20   C21   A    
C9    C32   A    
O14   P7    D    
C31   C36   A    
Ba2   O13   S    
C7    H29   S    
C51   C52   S    
C52   H12   S    
C18   C25   A    
C49   C53   S    
C48   H46   S    
O13   P2    S    
C34   H50   S    
C16   H38   S    
C13   N1    Am   
C9    C33   A    
C53   O29   D    
O22   P6    S    
C3    H17   S    
C56   H61   S    
C54   H53   S    
Ba1   O5    S    
C45   H4    S    
Ba2   O8    S    
C51   O2    S    
C3    C4    S    
O23   P6    D    
C43   C48   A    
C27   P8    S    
Ba1   Ba2   S    
O17   P8    S    
C32   P6    S    
C7    O17   S    
C39   H47   S    
C28   C37   D    
C41   P3    S    
Ba1   O12   S    
C12   C23   S    
C17   N3    S    
C7    H30   S    
C18   C19   A    
C47   C48   A    
C40   C41   A    
C19   C22   A    
C10   C16   A    
C55   H57   S    
C6    H26   S    
O7    P4    S    
C50   H8    S    
N4    H56   S    
Ba1   P1    S    
C13   O19   D    
O12   P1    S    
C38   C47   A    
O5    P4    S    
C45   H2    S    
C31   H37   S    
Ba2   O4    S    
