data_mof_unit_53363.cif
_audit_creation_date              2013-03-05T15:55:45-0500
_audit_creation_method            fapswitch 2.2
_symmetry_space_group_name_H-M    P1
_symmetry_Int_Tables_number       1
_space_group_crystal_system       triclinic
_cell_length_a                    10.620674
_cell_length_b                    12.320023
_cell_length_c                    13.210086
_cell_angle_alpha                 116.516082
_cell_angle_beta                  77.775626
_cell_angle_gamma                 100.928676
_cell_volume                      1502.6515331

loop_
_atom_site_label
_atom_site_type_symbol
_atom_site_description
_atom_site_fract_x
_atom_site_fract_y
_atom_site_fract_z
_atom_type_partial_charge
O1    O     O_R   0.537510 0.972500 0.318130 -0.584843
O2    O     O_R   0.487140 0.806530 0.359650 -0.615643
C1    C     C_R   0.513255 0.854645 0.286592 0.777770
O3    O     O_R   0.708330 0.082950 0.479220 -0.574115
O4    O     O_R   0.657960 0.916980 0.520740 -0.565130
C2    C     C_R   0.740137 0.999556 0.500583 0.811796
Cu1   Cu    Cu3+1 0.529830 0.098270 0.475420 0.951478
Cu2   Cu    Cu3+1 0.470170 0.901730 0.524580 0.959874
O5    O     O_R   0.512860 0.193470 0.640350 -0.584550
O6    O     O_R   0.462490 0.027500 0.681870 -0.580674
O7    O     O_R   0.342040 0.083020 0.479260 -0.592793
O8    O     O_R   0.291670 0.917050 0.520780 -0.590865
C3    C     C_R   0.481852 0.144981 0.713221 0.806643
C4    C     C_R   0.259873 0.000769 0.500084 0.797202
C5    C     C_3   0.980191 0.978349 0.395893 -0.233659
C6    C     C_3   0.039554 0.890988 0.424062 -0.218687
H1    H     H_    0.073755 0.801675 0.362255 0.156579
H2    H     H_    0.960857 0.960705 0.310198 0.148995
C7    C     C_3   0.123465 0.001748 0.500081 -0.042526
C8    C     C_3   0.066895 0.088926 0.471493 -0.105920
C9    C     C_3   0.961458 0.109100 0.577255 -0.175294
C10   C     C_3   0.020841 0.022388 0.606233 -0.225704
C11   C     C_3   0.935946 0.913967 0.529564 0.405243
C12   C     C_3   0.876590 0.998730 0.501573 -0.083796
H3    H     H_    0.124028 0.161429 0.447478 0.149586
H4    H     H_    0.926947 0.198104 0.639540 0.189147
H5    H     H_    0.039683 0.038910 0.691757 0.152573
C13   C     C_R   0.359339 0.271258 0.027688 -0.192006
H6    H     H_    0.356485 0.091587 0.891516 0.155117
H7    H     H_    0.274821 0.453153 0.220864 0.149679
H8    H     H_    0.295819 0.240198 0.087630 0.136814
C14   C     C_R   0.464115 0.227194 0.834742 -0.064280
C15   C     C_R   0.620694 0.811614 0.090248 -0.266233
C16   C     C_R   0.676822 0.728472 0.986258 -0.174356
C17   C     C_R   0.646470 0.603024 0.953881 0.325798
C18   C     C_R   0.540438 0.559916 0.018563 -0.041418
C19   C     C_R   0.484052 0.645800 0.125472 0.045150
C20   C     C_R   0.488495 0.435068 0.982152 0.093507
C21   C     C_R   0.401299 0.395605 0.059631 0.159740
C22   C     C_R   0.348475 0.481255 0.164053 -0.231718
C23   C     C_R   0.381817 0.604478 0.192218 -0.171154
C24   C     C_R   0.510187 0.350379 0.868097 -0.163918
C25   C     C_R   0.393277 0.186757 0.915988 -0.184646
C26   C     C_R   0.532687 0.770934 0.164378 -0.095806
H9    H     H_    0.555921 0.380620 0.802704 0.190189
H10   H     H_    0.656735 0.907285 0.117445 0.173528
H11   H     H_    0.754386 0.762121 0.936144 0.193892
H12   H     H_    0.325747 0.666613 0.267196 0.170664
C27   C     C_R   0.704772 0.345189 0.327169 -0.266017
H13   H     H_    0.728789 0.167934 0.308614 0.119165
H14   H     H_    0.745283 0.544875 0.292912 0.160180
H15   H     H_    0.784299 0.343730 0.260013 0.143351
N1    N     N_R   0.575030 0.246270 0.438190 -0.182727
C28   C     C_R   0.324752 0.759897 0.645277 0.102184
C29   C     C_R   0.286621 0.663290 0.676561 -0.218219
C30   C     C_R   0.352297 0.559532 0.621554 -0.178106
C31   C     C_R   0.457641 0.551160 0.533992 -0.003251
C32   C     C_R   0.493179 0.652682 0.504905 0.296939
C33   C     C_R   0.529104 0.446585 0.474504 -0.027743
C34   C     C_R   0.633015 0.445527 0.386832 0.171214
C35   C     C_R   0.665488 0.544846 0.359502 -0.198340
C36   C     C_R   0.598142 0.646452 0.417980 -0.115585
C37   C     C_R   0.502718 0.342226 0.497824 0.046382
C38   C     C_R   0.673995 0.245860 0.354406 0.087700
N2    N     N_R   0.425760 0.754330 0.561190 -0.208548
H16   H     H_    0.425488 0.334931 0.562749 0.118084
H17   H     H_    0.273328 0.840126 0.688466 0.127283
H18   H     H_    0.318528 0.487513 0.649166 0.139765
H19   H     H_    0.205879 0.668836 0.743666 0.166119
H20   H     H_    0.632917 0.718574 0.392355 0.195701
N3    N     N_R   0.735726 0.524023 0.866255 0.092603
O9    O     O_R   0.781866 0.444599 0.884343 -0.375192
O10   O     O_R   0.786567 0.544114 0.776632 -0.345103
N4    N     N_R   0.864230 0.819197 0.563138 0.122152
O11   O     O_R   0.890483 0.706816 0.505084 -0.368157
O12   O     O_R   0.781841 0.848306 0.656874 -0.343067

loop_
_geom_bond_atom_site_label_1
_geom_bond_atom_site_label_2
_geom_bond_distance
_ccdc_geom_bond_type
C32   C36   1.406716 A    
C5    H2    1.110270 S    
C9    H4    1.110324 S    
H13   C38   1.081893 S    
C3    C14   1.459742 S    
C7    C8    1.536257 S    
H14   C35   1.084664 S    
C29   C30   1.393790 A    
Cu1   Cu2   2.708195 S    
C28   N2    1.358184 A    
Cu1   O7    1.959417 S    
C27   C34   1.401079 A    
N4    O12   1.300466 A    
C18   C19   1.421458 A    
C20   C24   1.397239 A    
O4    C2    1.293986 A    
N1    C38   1.354313 A    
C31   C33   1.437937 A    
C8    H3    1.110265 S    
C5    C6    1.551979 S    
C30   C31   1.410509 A    
C36   H20   1.063806 S    
C16   C17   1.398116 A    
O5    C3    1.302545 A    
C23   H12   1.080616 S    
C17   C18   1.432228 A    
C6    H1    1.110448 S    
C11   C12   1.522424 S    
C37   H16   1.076755 S    
C17   N3    1.437020 S    
Cu2   N2    2.029019 S    
C27   C38   1.387626 A    
C9    C10   1.551905 S    
H6    C25   1.083180 S    
C15   H10   1.083478 S    
O3    Cu1   1.953611 S    
C5    C8    1.549263 S    
C1    C26   1.471600 S    
N4    O11   1.300217 A    
C7    C10   1.535728 S    
O3    C2    1.296230 A    
C21   C22   1.388551 A    
N3    O10   1.301825 A    
C28   H17   1.081655 S    
C13   C21   1.402536 A    
C30   H18   1.077907 S    
C34   C35   1.388596 A    
O1    C1    1.308302 A    
C24   H9    1.077986 S    
C32   N2    1.384542 A    
Cu2   O8    1.953612 S    
C27   H15   1.083940 S    
C2    C12   1.454047 S    
C15   C16   1.385639 A    
H7    C22   1.084301 S    
C29   H19   1.082623 S    
C22   C23   1.384238 A    
O8    C4    1.294431 A    
C6    C11   1.532882 S    
C10   H5    1.110328 S    
Cu1   N1    2.041034 S    
C11   N4    1.456781 S    
Cu1   O5    1.946068 S    
C28   C29   1.391731 A    
C5    C12   1.537505 S    
O1    Cu1   1.956094 S    
C15   C26   1.398841 A    
C4    C7    1.451092 S    
C13   H8    1.083984 S    
O2    Cu2   1.946068 S    
O6    C3    1.302561 A    
O4    Cu2   1.959416 S    
C13   C25   1.391560 A    
C33   C37   1.416669 A    
C19   C26   1.417968 A    
C18   C20   1.425326 A    
O2    C1    1.301871 A    
N3    O9    1.301870 A    
N1    C37   1.365456 A    
C31   C32   1.429400 A    
C20   C21   1.419066 A    
C6    C7    1.535916 S    
O7    C4    1.294608 A    
C14   C25   1.399807 A    
C19   C23   1.414687 A    
C35   C36   1.384704 A    
C33   C34   1.417797 A    
C8    C9    1.549406 S    
Cu2   O6    1.956093 S    
C9    C12   1.537524 S    
C14   C24   1.396221 A    
C10   C11   1.531351 S    
C16   H11   1.083213 S    
