data_mof_unit_63312.cif
_audit_creation_date              2013-03-05T16:20:47-0500
_audit_creation_method            fapswitch 2.2
_symmetry_space_group_name_H-M    P1
_symmetry_Int_Tables_number       1
_space_group_crystal_system       triclinic
_cell_length_a                    38.884678
_cell_length_b                    38.884739
_cell_length_c                    32.043274
_cell_angle_alpha                 89.999921
_cell_angle_beta                  89.999831
_cell_angle_gamma                 89.999952
_cell_volume                      48450.0889414

loop_
_atom_site_label
_atom_site_type_symbol
_atom_site_description
_atom_site_fract_x
_atom_site_fract_y
_atom_site_fract_z
_atom_type_partial_charge
O1    O     O_R   0.028770 0.550930 0.999950 -0.590383
O2    O     O_R   0.550930 0.971230 0.999950 -0.590521
O3    O     O_R   0.971230 0.449070 0.999950 -0.590383
O4    O     O_R   0.449070 0.028770 0.999950 -0.590522
O5    O     O_R   0.971230 0.550930 0.000050 -0.590595
O6    O     O_R   0.449070 0.971230 0.000050 -0.590462
O7    O     O_R   0.028770 0.449070 0.000050 -0.590595
O8    O     O_R   0.550930 0.028770 0.000050 -0.590456
O9    O     O_R   0.528770 0.050930 0.499950 -0.590389
O10   O     O_R   0.050930 0.471230 0.499950 -0.590376
O11   O     O_R   0.471230 0.949070 0.499950 -0.590408
O12   O     O_R   0.949070 0.528770 0.499950 -0.590368
O13   O     O_R   0.471230 0.050930 0.500050 -0.590388
O14   O     O_R   0.949070 0.471230 0.500050 -0.590341
O15   O     O_R   0.528770 0.949070 0.500050 -0.590408
O16   O     O_R   0.050930 0.528770 0.500050 -0.590347
C1    C     C_R   1.000000 0.567148 1.000000 0.985960
C2    C     C_R   0.567148 1.000000 0.000000 0.985851
C3    C     C_R   1.000000 0.432852 1.000000 0.985965
C4    C     C_R   0.432852 0.000000 0.000000 0.985892
C5    C     C_R   0.500000 0.067147 0.500000 0.985549
C6    C     C_R   0.067147 0.500000 0.499999 0.985652
C7    C     C_R   0.500000 0.932853 0.500000 0.985746
C8    C     C_R   0.932853 0.500000 0.499999 0.985586
O17   O     O_R   0.028770 0.500010 0.938980 -0.598438
O18   O     O_R   0.500010 0.971230 0.938980 -0.598491
O19   O     O_R   0.971230 0.499990 0.938980 -0.598438
O20   O     O_R   0.499990 0.028770 0.938980 -0.598496
O21   O     O_R   0.971230 0.500010 0.061020 -0.598670
O22   O     O_R   0.499990 0.971230 0.061020 -0.598415
O23   O     O_R   0.028770 0.499990 0.061020 -0.598671
O24   O     O_R   0.500010 0.028770 0.061020 -0.598405
O25   O     O_R   0.528770 0.000010 0.438980 -0.597773
O26   O     O_R   0.000010 0.471230 0.438980 -0.597494
O27   O     O_R   0.471230 0.999990 0.438980 -0.597810
O28   O     O_R   0.999990 0.528770 0.438980 -0.597481
O29   O     O_R   0.471230 0.000010 0.561020 -0.597679
O30   O     O_R   0.999990 0.471230 0.561020 -0.597765
O31   O     O_R   0.528770 0.999990 0.561020 -0.597715
O32   O     O_R   0.000010 0.528770 0.561020 -0.597775
C9    C     C_R   0.000000 0.500000 0.919420 0.962855
C10   C     C_R   0.500000 1.000000 0.919420 0.962902
C11   C     C_R   1.000000 0.500000 0.080581 0.963098
C12   C     C_R   0.500000 1.000000 0.080580 0.962828
C13   C     C_R   0.500000 0.000001 0.419420 0.962325
C14   C     C_R   1.000000 0.500000 0.419420 0.962214
C15   C     C_R   0.500000 0.000001 0.580580 0.962318
C16   C     C_R   1.000000 0.500000 0.580580 0.962180
Zn1   Zn    Zn3+2 0.038410 0.500000 0.000000 1.137169
Zn2   Zn    Zn3+2 0.500000 0.961590 0.000000 1.137376
Zn3   Zn    Zn3+2 0.961590 0.500000 0.000000 1.137170
Zn4   Zn    Zn3+2 0.500000 0.038410 0.000000 1.137383
Zn5   Zn    Zn3+2 0.538410 0.000000 0.500000 1.139229
Zn6   Zn    Zn3+2 1.000000 0.461590 0.500000 1.139556
Zn7   Zn    Zn3+2 0.461590 0.000000 0.500000 1.139228
Zn8   Zn    Zn3+2 1.000000 0.538410 0.500000 1.139560
C17   C     C_R   0.973337 0.516285 0.728262 -0.128602
C18   C     C_R   0.515290 0.027247 0.728261 -0.128556
C19   C     C_R   0.026662 0.483715 0.728261 -0.128593
C20   C     C_R   0.484710 0.972755 0.728261 -0.128526
C21   C     C_R   0.029262 0.510955 0.271739 -0.128396
C22   C     C_R   0.483117 0.026289 0.271738 -0.128657
C23   C     C_R   0.970738 0.489045 0.271739 -0.128409
C24   C     C_R   0.516884 0.973713 0.271738 -0.128624
C25   C     C_R   0.483114 0.026287 0.228265 -0.129688
C26   C     C_R   0.029261 0.510957 0.228267 -0.130099
C27   C     C_R   0.516887 0.973714 0.228265 -0.129710
C28   C     C_R   0.970739 0.489043 0.228267 -0.130095
C29   C     C_R   0.515293 0.027245 0.771735 -0.129818
C30   C     C_R   0.973339 0.516288 0.771735 -0.129747
C31   C     C_R   0.484707 0.972756 0.771734 -0.129835
C32   C     C_R   0.026660 0.483712 0.771735 -0.129755
C33   C     C_R   1.000000 0.500000 0.706627 0.135148
C34   C     C_R   0.500000 0.000001 0.706627 0.134821
C35   C     C_R   1.000000 0.500000 0.293375 0.133351
C36   C     C_R   0.500000 0.000001 0.293373 0.135353
C37   C     C_R   0.500000 0.000000 0.206630 0.137692
C38   C     C_R   1.000000 0.500000 0.206630 0.137591
C39   C     C_R   0.500000 0.000000 0.793370 0.137747
C40   C     C_R   0.000000 0.500000 0.793370 0.137718
C41   C     C_1   1.000000 0.500000 0.662184 -0.004232
C42   C     C_1   0.500000 0.000001 0.662184 -0.004249
C43   C     C_1   1.000000 0.500000 0.337817 -0.004345
C44   C     C_1   0.500000 0.000001 0.337816 -0.004218
C45   C     C_1   0.500000 0.000000 0.162186 -0.004137
C46   C     C_1   1.000000 0.500000 0.162187 -0.004154
C47   C     C_1   0.500000 0.000000 0.837814 -0.004132
C48   C     C_1   1.000000 0.500000 0.837814 -0.004142
C49   C     C_1   0.000000 0.500000 0.875149 -0.050322
C50   C     C_1   0.500000 0.000000 0.875149 -0.050318
C51   C     C_1   1.000000 0.500000 0.124852 -0.050454
C52   C     C_1   0.500000 1.000000 0.124851 -0.050265
C53   C     C_1   0.500000 0.000001 0.375150 -0.049295
C54   C     C_1   1.000000 0.500000 0.375151 -0.048921
C55   C     C_1   0.500000 0.000001 0.624849 -0.049190
C56   C     C_1   1.000000 0.500000 0.624849 -0.049255
C57   C     C_R   0.999430 0.876882 0.962088 -0.156539
C58   C     C_R   0.876882 0.000575 0.962088 -0.156536
C59   C     C_R   0.000577 0.123118 0.962088 -0.156530
C60   C     C_R   0.123118 0.999406 0.962088 -0.156538
C61   C     C_R   0.000570 0.876882 0.037912 -0.156525
C62   C     C_R   0.123118 0.000594 0.037912 -0.156528
C63   C     C_R   0.999424 0.123118 0.037912 -0.156534
C64   C     C_R   0.876882 0.999425 0.037912 -0.156534
C65   C     C_R   0.499395 0.376881 0.462089 -0.156680
C66   C     C_R   0.376882 0.500630 0.462088 -0.156655
C67   C     C_R   0.500697 0.623119 0.462091 -0.156691
C68   C     C_R   0.623118 0.499400 0.462087 -0.156703
C69   C     C_R   0.500604 0.376881 0.537912 -0.156683
C70   C     C_R   0.623120 0.500602 0.537910 -0.156661
C71   C     C_R   0.499304 0.623118 0.537910 -0.156665
C72   C     C_R   0.376880 0.499368 0.537910 -0.156704
C73   C     C_R   0.999426 0.841152 0.962119 -0.044522
C74   C     C_R   0.841152 0.000579 0.962120 -0.044515
C75   C     C_R   0.000581 0.158848 0.962119 -0.044521
C76   C     C_R   0.158848 0.999401 0.962120 -0.044520
C77   C     C_R   0.000574 0.841152 0.037880 -0.044497
C78   C     C_R   0.158848 0.000599 0.037880 -0.044518
C79   C     C_R   0.999419 0.158848 0.037879 -0.044500
C80   C     C_R   0.841152 0.999421 0.037880 -0.044518
C81   C     C_R   0.499390 0.341151 0.462122 -0.044645
C82   C     C_R   0.341152 0.500635 0.462119 -0.044695
C83   C     C_R   0.500704 0.658849 0.462123 -0.044656
C84   C     C_R   0.658848 0.499396 0.462118 -0.044703
C85   C     C_R   0.500608 0.341152 0.537880 -0.044664
C86   C     C_R   0.658850 0.500608 0.537876 -0.044633
C87   C     C_R   0.499297 0.658848 0.537878 -0.044670
C88   C     C_R   0.341150 0.499361 0.537876 -0.044647
C89   C     C_R   1.000000 0.823306 0.999999 0.217706
C90   C     C_R   0.823306 1.000000 0.000001 0.217725
C91   C     C_R   1.000000 0.176694 0.999999 0.217708
C92   C     C_R   0.176694 0.000000 0.000000 0.217727
C93   C     C_R   0.499999 0.323305 0.500001 0.217956
C94   C     C_R   0.323304 0.499998 0.499997 0.217978
C95   C     C_R   0.500001 0.676695 0.500001 0.217978
C96   C     C_R   0.676695 0.500002 0.499996 0.217972
C97   C     C_R   1.000000 0.894976 1.000000 -0.060486
C98   C     C_R   0.894976 0.000000 0.000000 -0.060481
C99   C     C_R   0.000000 0.105023 1.000000 -0.060485
C100  C     C_R   0.105023 1.000000 1.000000 -0.060477
C101  C     C_R   0.500000 0.394976 0.500000 -0.060368
C102  C     C_R   0.394976 0.499999 0.499999 -0.060356
C103  C     C_R   0.500000 0.605024 0.500000 -0.060351
C104  C     C_R   0.605024 0.500001 0.499999 -0.060362
C105  C     C_R   0.029619 0.767890 0.013207 0.197980
C106  C     C_R   0.767890 0.970378 0.013203 0.197981
C107  C     C_R   0.970378 0.232110 0.013198 0.197984
C108  C     C_R   0.232109 0.029630 0.013175 0.197974
C109  C     C_R   0.970381 0.767891 0.986790 0.197990
C110  C     C_R   0.232110 0.970371 0.986825 0.197972
C111  C     C_R   0.029622 0.232109 0.986798 0.197987
C112  C     C_R   0.767890 0.029621 0.986799 0.197974
C113  C     C_R   0.529634 0.267889 0.513160 0.197865
C114  C     C_R   0.267888 0.470351 0.513114 0.197835
C115  C     C_R   0.470327 0.732110 0.513032 0.197840
C116  C     C_R   0.732112 0.529636 0.513154 0.197832
C117  C     C_R   0.470365 0.267889 0.486844 0.197865
C118  C     C_R   0.732111 0.470369 0.486833 0.197851
C119  C     C_R   0.529674 0.732110 0.486971 0.197851
C120  C     C_R   0.267889 0.529644 0.486875 0.197830
C121  C     C_R   0.029608 0.731823 0.013240 0.207408
C122  C     C_R   0.731823 0.970389 0.013236 0.207420
C123  C     C_R   0.970389 0.268176 0.013231 0.207403
C124  C     C_R   0.268176 0.029619 0.013210 0.207408
C125  C     C_R   0.970391 0.731824 0.986756 0.207428
C126  C     C_R   0.268176 0.970381 0.986792 0.207403
C127  C     C_R   0.029612 0.268176 0.986764 0.207425
C128  C     C_R   0.731823 0.029611 0.986766 0.207413
C129  C     C_R   0.529623 0.231822 0.513193 0.207239
C130  C     C_R   0.231821 0.470362 0.513145 0.207236
C131  C     C_R   0.470338 0.768177 0.513067 0.207197
C132  C     C_R   0.768179 0.529626 0.513185 0.207249
C133  C     C_R   0.470375 0.231822 0.486812 0.207263
C134  C     C_R   0.768178 0.470379 0.486799 0.207178
C135  C     C_R   0.529663 0.768177 0.486937 0.207219
C136  C     C_R   0.231822 0.529634 0.486840 0.207161
C137  C     C_R   1.000000 0.713969 0.999998 -0.215286
C138  C     C_R   0.713969 1.000000 0.000001 -0.215304
C139  C     C_R   0.000000 0.286031 0.999998 -0.215279
C140  C     C_R   0.286031 0.000000 0.000001 -0.215286
C141  C     C_R   0.499999 0.213967 0.500003 -0.215430
C142  C     C_R   0.213967 0.499998 0.499992 -0.215427
C143  C     C_R   0.500001 0.786033 0.500002 -0.215348
C144  C     C_R   0.786033 0.500002 0.499991 -0.215455
C145  C     C_R   1.000000 0.785745 0.999999 -0.263599
C146  C     C_R   0.785745 1.000000 0.000001 -0.263611
C147  C     C_R   0.000000 0.214255 0.999999 -0.263600
C148  C     C_R   0.214255 0.000000 0.000000 -0.263610
C149  C     C_R   0.499999 0.285744 0.500002 -0.263696
C150  C     C_R   0.285744 0.499998 0.499995 -0.263703
C151  C     C_R   0.500001 0.714256 0.500001 -0.263701
C152  C     C_R   0.714256 0.500002 0.499995 -0.263704
C153  C     C_R   0.979309 0.658651 0.028258 -0.103731
C154  C     C_R   0.658650 0.020686 0.028265 -0.103932
C155  C     C_R   0.020689 0.341349 0.028260 -0.103733
C156  C     C_R   0.341350 0.979322 0.028274 -0.103931
C157  C     C_R   0.020690 0.658650 0.971738 -0.103913
C158  C     C_R   0.341350 0.020678 0.971728 -0.103869
C159  C     C_R   0.979312 0.341350 0.971736 -0.103916
C160  C     C_R   0.658651 0.979313 0.971737 -0.103865
C161  C     C_R   0.479349 0.158648 0.528305 -0.104586
C162  C     C_R   0.158649 0.520633 0.528315 -0.104490
C163  C     C_R   0.520610 0.841354 0.528348 -0.104595
C164  C     C_R   0.841350 0.479354 0.528300 -0.104484
C165  C     C_R   0.520651 0.158649 0.471699 -0.104480
C166  C     C_R   0.841353 0.520647 0.471686 -0.104809
C167  C     C_R   0.479390 0.841353 0.471655 -0.104491
C168  C     C_R   0.158646 0.479366 0.471672 -0.104809
C169  C     C_R   0.979419 0.622797 0.029107 0.264091
C170  C     C_R   0.622796 0.020576 0.029112 0.263855
C171  C     C_R   0.020580 0.377203 0.029108 0.264090
C172  C     C_R   0.377204 0.979432 0.029120 0.263846
C173  C     C_R   0.020580 0.622796 0.970891 0.263889
C174  C     C_R   0.377204 0.020569 0.970881 0.263897
C175  C     C_R   0.979422 0.377204 0.970889 0.263889
C176  C     C_R   0.622797 0.979423 0.970889 0.263904
C177  C     C_R   0.479461 0.122794 0.529152 0.263751
C178  C     C_R   0.122795 0.520522 0.529163 0.263665
C179  C     C_R   0.520501 0.877208 0.529192 0.263716
C180  C     C_R   0.877204 0.479465 0.529150 0.263676
C181  C     C_R   0.520539 0.122795 0.470851 0.263692
C182  C     C_R   0.877207 0.520534 0.470839 0.263927
C183  C     C_R   0.479499 0.877207 0.470811 0.263660
C184  C     C_R   0.122792 0.479478 0.470826 0.263916
C185  C     C_R   1.000000 0.604653 0.999999 -0.279649
C186  C     C_R   0.604653 1.000000 0.000000 -0.279624
C187  C     C_R   0.000000 0.395347 0.999999 -0.279649
C188  C     C_R   0.395347 0.000000 0.000000 -0.279617
C189  C     C_R   0.500000 0.104652 0.500001 -0.279210
C190  C     C_R   0.104651 0.500000 0.499996 -0.279104
C191  C     C_R   0.500000 0.895350 0.500001 -0.279175
C192  C     C_R   0.895348 0.500000 0.499996 -0.279116
C193  C     C_R   0.999999 0.676395 0.999998 0.098808
C194  C     C_R   0.676395 1.000000 0.000001 0.098885
C195  C     C_R   0.000001 0.323605 0.999998 0.098804
C196  C     C_R   0.323606 0.000000 0.000001 0.098873
C197  C     C_R   0.499999 0.176393 0.500002 0.099386
C198  C     C_R   0.176392 0.499999 0.499993 0.099437
C199  C     C_R   0.500000 0.823608 0.500002 0.099327
C200  C     C_R   0.823607 0.500001 0.499992 0.099458
O33   O     O_R   0.949050 0.000070 0.965610 -0.617824
O34   O     O_R   0.000070 0.050950 0.965610 -0.617823
O35   O     O_R   0.050950 0.999930 0.965610 -0.617827
O36   O     O_R   0.999930 0.949050 0.965610 -0.617829
O37   O     O_R   0.050950 0.000070 0.034390 -0.617820
O38   O     O_R   0.999930 0.050950 0.034390 -0.617824
O39   O     O_R   0.949050 0.999930 0.034390 -0.617823
O40   O     O_R   0.000070 0.949050 0.034390 -0.617816
O41   O     O_R   0.449050 0.500070 0.465610 -0.617857
O42   O     O_R   0.500070 0.550950 0.465610 -0.617877
O43   O     O_R   0.550950 0.499930 0.465610 -0.617892
O44   O     O_R   0.499930 0.449050 0.465610 -0.617865
O45   O     O_R   0.550950 0.500070 0.534390 -0.617847
O46   O     O_R   0.499930 0.550950 0.534390 -0.617862
O47   O     O_R   0.449050 0.499930 0.534390 -0.617883
O48   O     O_R   0.500070 0.449050 0.534390 -0.617873
C201  C     C_R   0.932556 0.000000 0.000000 0.893861
C202  C     C_R   0.000000 0.067444 1.000000 0.893860
C203  C     C_R   0.067444 1.000000 1.000000 0.893859
C204  C     C_R   1.000000 0.932556 0.000000 0.893861
C205  C     C_R   0.432556 0.500000 0.500000 0.893880
C206  C     C_R   0.500000 0.567444 0.500000 0.893881
C207  C     C_R   0.567444 0.500000 0.500000 0.893881
C208  C     C_R   0.500000 0.432556 0.500000 0.893885
Zn9   Zn    Zn3+2 0.000000 1.000000 0.953990 1.027836
Zn10  Zn    Zn3+2 0.000000 1.000000 0.046010 1.027860
Zn11  Zn    Zn3+2 0.500000 0.500000 0.453990 1.027367
Zn12  Zn    Zn3+2 0.500000 0.500000 0.546010 1.027397
H1    H     H_    0.952660 0.528923 0.788438 0.169428
H2    H     H_    0.527157 0.048376 0.788437 0.169427
H3    H     H_    0.047339 0.471077 0.788437 0.169426
H4    H     H_    0.472843 0.951624 0.788437 0.169423
H5    H     H_    0.051957 0.519459 0.211564 0.169633
H6    H     H_    0.470014 0.046675 0.211562 0.169442
H7    H     H_    0.948043 0.480541 0.211564 0.169633
H8    H     H_    0.529986 0.953326 0.211563 0.169437
H9    H     H_    0.470021 0.046680 0.288441 0.171188
H10   H     H_    0.051959 0.519452 0.288443 0.172979
H11   H     H_    0.529979 0.953322 0.288442 0.171193
H12   H     H_    0.948040 0.480548 0.288443 0.172974
H13   H     H_    0.527149 0.048381 0.711558 0.171636
H14   H     H_    0.952656 0.528915 0.711558 0.171359
H15   H     H_    0.472850 0.951621 0.711558 0.171642
H16   H     H_    0.047344 0.471084 0.711558 0.171359
H17   H     H_    0.998987 0.890289 0.932469 0.175424
H18   H     H_    0.890288 0.001022 0.932470 0.175427
H19   H     H_    0.001024 0.109711 0.932469 0.175426
H20   H     H_    0.109712 0.998944 0.932470 0.175423
H21   H     H_    0.001013 0.890288 0.067531 0.175437
H22   H     H_    0.109711 0.001056 0.067530 0.175426
H23   H     H_    0.998976 0.109712 0.067530 0.175435
H24   H     H_    0.890288 0.998978 0.067531 0.175427
H25   H     H_    0.498926 0.390287 0.432471 0.175301
H26   H     H_    0.390289 0.501122 0.432470 0.175292
H27   H     H_    0.501241 0.609713 0.432474 0.175286
H28   H     H_    0.609711 0.498933 0.432469 0.175283
H29   H     H_    0.501073 0.390288 0.567530 0.175300
H30   H     H_    0.609714 0.501069 0.567528 0.175309
H31   H     H_    0.498759 0.609712 0.567527 0.175293
H32   H     H_    0.390286 0.498876 0.567528 0.175292
H33   H     H_    0.999049 0.827366 0.932740 0.162255
H34   H     H_    0.827365 0.000960 0.932742 0.162259
H35   H     H_    0.000963 0.172634 0.932740 0.162254
H36   H     H_    0.172635 0.999005 0.932742 0.162254
H37   H     H_    0.000951 0.827365 0.067258 0.162286
H38   H     H_    0.172634 0.000995 0.067259 0.162250
H39   H     H_    0.999037 0.172635 0.067258 0.162284
H40   H     H_    0.827366 0.999040 0.067259 0.162252
H41   H     H_    0.498986 0.327364 0.432743 0.162076
H42   H     H_    0.327366 0.501060 0.432740 0.162026
H43   H     H_    0.501182 0.672636 0.432746 0.162056
H44   H     H_    0.672634 0.498995 0.432739 0.162026
H45   H     H_    0.501012 0.327365 0.567259 0.162064
H46   H     H_    0.672637 0.501010 0.567254 0.162076
H47   H     H_    0.498819 0.672635 0.567256 0.162047
H48   H     H_    0.327363 0.498935 0.567254 0.162063
N1    N     N_R   0.059517 0.786357 0.027200 0.244268
O49   O     O_R   0.073065 0.810288 0.004060 -0.319798
O50   O     O_R   0.073435 0.779126 0.063071 -0.279594
N2    N     N_R   0.786358 0.940478 0.027188 0.244269
O51   O     O_R   0.810289 0.926935 0.004044 -0.319817
O52   O     O_R   0.779126 0.926554 0.063054 -0.279764
N3    N     N_R   0.940477 0.213642 0.027182 0.244268
O53   O     O_R   0.926934 0.189711 0.004037 -0.319802
O54   O     O_R   0.926552 0.220874 0.063048 -0.279596
N4    N     N_R   0.213642 0.059538 0.027133 0.244269
O55   O     O_R   0.189710 0.073068 0.003978 -0.319818
O56   O     O_R   0.220874 0.073486 0.062987 -0.279740
N5    N     N_R   0.940483 0.786358 0.972797 0.244267
O57   O     O_R   0.926935 0.810289 0.995938 -0.319812
O58   O     O_R   0.926565 0.779127 0.936927 -0.279747
N6    N     N_R   0.213642 0.940462 0.972867 0.244271
O59   O     O_R   0.189710 0.926933 0.996023 -0.319798
O60   O     O_R   0.220875 0.926514 0.937014 -0.279693
N7    N     N_R   0.059523 0.213642 0.972815 0.244270
O61   O     O_R   0.073066 0.189711 0.995960 -0.319811
O62   O     O_R   0.073449 0.220873 0.936949 -0.279738
N8    N     N_R   0.786357 0.059521 0.972814 0.244270
O63   O     O_R   0.810289 0.073065 0.995957 -0.319796
O64   O     O_R   0.779125 0.073446 0.936948 -0.279704
N9    N     N_R   0.559547 0.286356 0.527102 0.244283
O65   O     O_R   0.573068 0.310289 0.503940 -0.319894
O66   O     O_R   0.573508 0.279124 0.562948 -0.280062
N10   N     N_R   0.286355 0.440425 0.527018 0.244277
O67   O     O_R   0.310290 0.426926 0.503840 -0.319955
O68   O     O_R   0.279119 0.426430 0.562844 -0.280031
N11   N     N_R   0.440371 0.713642 0.526843 0.244285
O69   O     O_R   0.426922 0.689707 0.503622 -0.319904
O70   O     O_R   0.426297 0.720880 0.562624 -0.279967
N12   N     N_R   0.713645 0.559549 0.527100 0.244284
O71   O     O_R   0.689711 0.573071 0.503941 -0.319939
O72   O     O_R   0.720879 0.573507 0.562947 -0.280028
N13   N     N_R   0.440451 0.286356 0.472901 0.244279
O73   O     O_R   0.426931 0.310289 0.496063 -0.319925
O74   O     O_R   0.426490 0.279123 0.437056 -0.280062
N14   N     N_R   0.713643 0.440456 0.472888 0.244285
O75   O     O_R   0.689711 0.426934 0.496050 -0.319887
O76   O     O_R   0.720875 0.426499 0.437041 -0.280099
N15   N     N_R   0.559630 0.713642 0.473160 0.244277
O77   O     O_R   0.573079 0.689706 0.496380 -0.319945
O78   O     O_R   0.573705 0.720882 0.437379 -0.279986
N16   N     N_R   0.286357 0.559570 0.472972 0.244288
O79   O     O_R   0.310290 0.573070 0.496153 -0.319878
O80   O     O_R   0.279124 0.573565 0.437145 -0.280036
N17   N     N_R   0.059850 0.713353 0.026092 0.248055
O81   O     O_R   0.057809 0.689418 0.054365 -0.322531
O82   O     O_R   0.089596 0.720548 0.009669 -0.264827
N18   N     N_R   0.713353 0.940146 0.026080 0.248043
O83   O     O_R   0.689419 0.942181 0.054355 -0.322987
O84   O     O_R   0.720547 0.910403 0.009650 -0.264885
N19   N     N_R   0.940145 0.286647 0.026074 0.248053
O85   O     O_R   0.942179 0.310581 0.054348 -0.322527
O86   O     O_R   0.910402 0.279452 0.009642 -0.264829
N20   N     N_R   0.286646 0.059870 0.026028 0.248035
O87   O     O_R   0.310579 0.057851 0.054307 -0.322967
O88   O     O_R   0.279454 0.089604 0.009569 -0.264884
N21   N     N_R   0.940150 0.713354 0.973904 0.248034
O89   O     O_R   0.942190 0.689419 0.945631 -0.322962
O90   O     O_R   0.910403 0.720548 0.990326 -0.264903
N22   N     N_R   0.286647 0.940130 0.973974 0.248041
O91   O     O_R   0.310580 0.942149 0.945695 -0.322834
O92   O     O_R   0.279454 0.910397 0.990433 -0.264847
N23   N     N_R   0.059856 0.286646 0.973921 0.248031
O93   O     O_R   0.057821 0.310580 0.945646 -0.322959
O94   O     O_R   0.089598 0.279452 0.990353 -0.264903
N24   N     N_R   0.713353 0.059854 0.973922 0.248051
O95   O     O_R   0.689419 0.057819 0.945648 -0.322842
O96   O     O_R   0.720547 0.089597 0.990353 -0.264844
N25   N     N_R   0.559880 0.213352 0.525991 0.248105
O97   O     O_R   0.557874 0.189416 0.554267 -0.323605
O98   O     O_R   0.589607 0.220547 0.509516 -0.264738
N26   N     N_R   0.213351 0.440093 0.525903 0.248106
O99   O     O_R   0.189416 0.442074 0.554184 -0.323546
O100  O     O_R   0.220545 0.410381 0.509386 -0.264829
N27   N     N_R   0.440045 0.786646 0.525741 0.248071
O101  O     O_R   0.441970 0.810573 0.554038 -0.323532
O102  O     O_R   0.410366 0.779462 0.509126 -0.264752
N28   N     N_R   0.786650 0.559882 0.525983 0.248118
O103  O     O_R   0.810587 0.557875 0.554256 -0.323563
O104  O     O_R   0.779452 0.589610 0.509512 -0.264819
N29   N     N_R   0.440118 0.213351 0.474014 0.248104
O105  O     O_R   0.442124 0.189416 0.445739 -0.323564
O106  O     O_R   0.410392 0.220547 0.490489 -0.264796
N30   N     N_R   0.786648 0.440122 0.474000 0.248122
O107  O     O_R   0.810585 0.442130 0.445725 -0.323645
O108  O     O_R   0.779451 0.410395 0.490471 -0.264684
N31   N     N_R   0.559957 0.786647 0.474264 0.248070
O109  O     O_R   0.558032 0.810574 0.445967 -0.323494
O110  O     O_R   0.589635 0.779462 0.490879 -0.264813
N32   N     N_R   0.213352 0.559902 0.474081 0.248110
O111  O     O_R   0.189419 0.557921 0.445799 -0.323613
O112  O     O_R   0.220546 0.589615 0.490597 -0.264680
H49   H     H_    0.963819 0.672888 0.050447 0.196281
H50   H     H_    0.672887 0.036173 0.050458 0.196248
H51   H     H_    0.036178 0.327112 0.050450 0.196282
H52   H     H_    0.327113 0.963842 0.050473 0.196253
H53   H     H_    0.036180 0.672887 0.949548 0.196253
H54   H     H_    0.327113 0.036159 0.949528 0.196262
H55   H     H_    0.963823 0.327113 0.949545 0.196254
H56   H     H_    0.672888 0.963826 0.949544 0.196258
H57   H     H_    0.463890 0.172885 0.550526 0.196034
H58   H     H_    0.172887 0.536078 0.550550 0.196053
H59   H     H_    0.536038 0.827117 0.550603 0.196054
H60   H     H_    0.827111 0.463898 0.550524 0.196048
H61   H     H_    0.536110 0.172887 0.449478 0.196064
H62   H     H_    0.827117 0.536103 0.449460 0.195951
H63   H     H_    0.463963 0.827116 0.449401 0.196084
H64   H     H_    0.172883 0.463921 0.449435 0.195959
N33   N     N_R   0.959584 0.605397 0.060578 0.229521
O113  O     O_R   0.930354 0.618191 0.072837 -0.308557
O114  O     O_R   0.972935 0.580048 0.081552 -0.394050
N34   N     N_R   0.605395 0.040405 0.060588 0.229534
O115  O     O_R   0.618188 0.069633 0.072854 -0.308154
O116  O     O_R   0.580047 0.027050 0.081559 -0.394395
N35   N     N_R   0.040413 0.394603 0.060580 0.229520
O117  O     O_R   0.069643 0.381810 0.072840 -0.308550
O118  O     O_R   0.027061 0.419951 0.081553 -0.394055
N36   N     N_R   0.394605 0.959609 0.060602 0.229528
O119  O     O_R   0.381810 0.930386 0.072882 -0.308143
O120  O     O_R   0.419955 0.972968 0.081566 -0.394421
N37   N     N_R   0.040413 0.605396 0.939419 0.229539
O121  O     O_R   0.069643 0.618189 0.927158 -0.308178
O122  O     O_R   0.027059 0.580048 0.918444 -0.394335
N38   N     N_R   0.394604 0.040392 0.939399 0.229528
O123  O     O_R   0.381809 0.069615 0.927120 -0.308244
O124  O     O_R   0.419956 0.027034 0.918435 -0.394286
N39   N     N_R   0.959590 0.394604 0.939416 0.229538
O125  O     O_R   0.930360 0.381812 0.927155 -0.308171
O126  O     O_R   0.972944 0.419952 0.918443 -0.394342
N40   N     N_R   0.605397 0.959593 0.939414 0.229536
O127  O     O_R   0.618190 0.930365 0.927148 -0.308253
O128  O     O_R   0.580048 0.972948 0.918442 -0.394253
N41   N     N_R   0.459672 0.105392 0.560664 0.229302
O129  O     O_R   0.430463 0.118188 0.572993 -0.308160
O130  O     O_R   0.473052 0.080039 0.581603 -0.396668
N42   N     N_R   0.105394 0.540295 0.560691 0.229330
O131  O     O_R   0.118194 0.569495 0.573046 -0.308019
O132  O     O_R   0.080036 0.526908 0.581615 -0.396518
N43   N     N_R   0.540253 0.894610 0.560737 0.229267
O133  O     O_R   0.569442 0.881808 0.573127 -0.308114
O134  O     O_R   0.526856 0.919976 0.581638 -0.396820
N44   N     N_R   0.894604 0.459680 0.560667 0.229342
O135  O     O_R   0.881807 0.430473 0.573000 -0.308031
O136  O     O_R   0.919959 0.473061 0.581603 -0.396466
N45   N     N_R   0.540329 0.105394 0.439339 0.229353
O137  O     O_R   0.569538 0.118191 0.427011 -0.308037
O138  O     O_R   0.526950 0.080040 0.418400 -0.396328
N46   N     N_R   0.894610 0.540316 0.439322 0.229163
O139  O     O_R   0.881816 0.569523 0.426985 -0.308500
O140  O     O_R   0.919963 0.526931 0.418387 -0.397601
N47   N     N_R   0.459745 0.894609 0.439266 0.229318
O141  O     O_R   0.430556 0.881806 0.426877 -0.307992
O142  O     O_R   0.473142 0.919975 0.418365 -0.396480
N48   N     N_R   0.105389 0.459709 0.439298 0.229151
O143  O     O_R   0.118186 0.430508 0.426940 -0.308486
O144  O     O_R   0.080032 0.473100 0.418376 -0.397649

loop_
_geom_bond_atom_site_label_1
_geom_bond_atom_site_label_2
_geom_bond_distance
_ccdc_geom_bond_type
C64   H24   1.082961 S    
N43   O133  1.301417 A    
C89   C145  1.460538 S    
C159  H55   1.083896 S    
O25   C13   1.282322 A    
C21   H10   1.083805 S    
C86   H46   1.083437 S    
C19   H16   1.083703 S    
C92   C148  1.460532 S    
C39   C47   1.424122 S    
C93   C149  1.460546 S    
C136  C142  1.409842 A    
C20   C34   1.398758 A    
O46   Zn12  2.015861 S    
C96   C152  1.460547 S    
C131  C143  1.409862 A    
O42   Zn11  2.015862 S    
O18   Zn2   1.990888 S    
N44   O136  1.301067 A    
C23   H12   1.083808 S    
C58   C74   1.389350 A    
O47   Zn12  2.015863 S    
C24   H11   1.083722 S    
C176  N40   1.438595 S    
C74   H34   1.083436 S    
C114  C130  1.402454 A    
C161  H57   1.083900 S    
O34   Zn9   2.015862 S    
O24   Zn4   1.990885 S    
C111  N7    1.438144 S    
O39   Zn10  2.015863 S    
C118  C134  1.402454 A    
C135  N31   1.438153 S    
O16   C6    1.284199 A    
O3    C3    1.284216 A    
N4    O55   1.301261 A    
C19   C33   1.398725 A    
C12   C52   1.418575 S    
C160  C194  1.394041 A    
O48   Zn12  2.015866 S    
C86   C96   1.398350 A    
C156  H52   1.083905 S    
C69   C85   1.389352 A    
C74   C90   1.398348 A    
C154  C194  1.394046 A    
C33   C41   1.424096 S    
N18   O83   1.301252 A    
N13   O74   1.301189 A    
C66   C102  1.404061 A    
C25   C37   1.398757 A    
N3    O53   1.301248 A    
C109  N5    1.438139 S    
N26   O100  1.301223 A    
O17   C9    1.282328 A    
N7    O62   1.301190 A    
C136  N32   1.438142 S    
C105  N1    1.438143 S    
O31   C15   1.282320 A    
C176  C186  1.417069 A    
N24   O96   1.301177 A    
N39   O126  1.301068 A    
C115  N11   1.438188 S    
C118  C152  1.409844 A    
O44   Zn11  2.015865 S    
C63   H23   1.082959 S    
C6    C190  1.458335 S    
C171  N35   1.438596 S    
C122  N18   1.438129 S    
O13   C5    1.284207 A    
N6    O59   1.301262 A    
C80   H40   1.083435 S    
C108  N4    1.438149 S    
C184  N48   1.438607 S    
C139  C195  1.461055 S    
N34   O115  1.301403 A    
C58   C98   1.404047 A    
O26   Zn6   1.990888 S    
O7    C3    1.284214 A    
O48   C208  1.275024 A    
N25   O97   1.301259 A    
O33   Zn9   2.015861 S    
C180  N44   1.438602 S    
C67   C103  1.404070 A    
N23   O93   1.301252 A    
O27   C13   1.282322 A    
O15   Zn5   2.015569 S    
C68   C104  1.404050 A    
C132  N28   1.438131 S    
O32   C16   1.282323 A    
C157  C193  1.394045 A    
C16   C56   1.418543 S    
O35   Zn9   2.015860 S    
C65   H25   1.082962 S    
C108  C148  1.409850 A    
C183  N47   1.438612 S    
C61   C97   1.404046 A    
C61   C77   1.389348 A    
C40   C48   1.424128 S    
N17   O81   1.301254 A    
O9    C5    1.284203 A    
N48   O143  1.301410 A    
C105  C121  1.402449 A    
C111  C127  1.402449 A    
C70   H30   1.082962 S    
O11   C7    1.284197 A    
C157  H53   1.083902 S    
C44   C53   1.196323 T    
N12   O71   1.301251 A    
N7    O61   1.301249 A    
C156  C172  1.394438 A    
C48   C49   1.196339 T    
C140  C196  1.461061 S    
C105  C145  1.409844 A    
N15   O77   1.301291 A    
O5    Zn3   2.015565 S    
C26   H5    1.083789 S    
N3    O54   1.301190 A    
C73   C89   1.398349 A    
C104  C207  1.461286 S    
C144  C200  1.461053 S    
C134  N30   1.438131 S    
O43   C207  1.275023 A    
N22   O91   1.301268 A    
N35   O118  1.301066 A    
C91   C147  1.460538 S    
C9    C49   1.418575 S    
C131  N27   1.438148 S    
C125  C137  1.409834 A    
O36   C204  1.275023 A    
C13   C53   1.418546 S    
C31   C39   1.398766 A    
N29   O105  1.301258 A    
C113  C149  1.409847 A    
N33   O113  1.301405 A    
C123  N19   1.438130 S    
N43   O134  1.301074 A    
C106  N2    1.438140 S    
C79   H39   1.083434 S    
C159  C175  1.394440 A    
N47   O142  1.301073 A    
C110  C148  1.409846 A    
N16   O79   1.301271 A    
C76   H36   1.083441 S    
C110  C126  1.402446 A    
C99   C202  1.461269 S    
C153  H49   1.083904 S    
O36   Zn9   2.015865 S    
O14   C8    1.284202 A    
C27   H8    1.083715 S    
C3    C187  1.458380 S    
N20   O87   1.301265 A    
C82   C94   1.398359 A    
O2    Zn2   2.015562 S    
C29   H2    1.083719 S    
C1    C185  1.458384 S    
C126  N22   1.438134 S    
O47   C205  1.275029 A    
N42   O131  1.301412 A    
C76   C92   1.398354 A    
C79   C91   1.398349 A    
O28   C14   1.282319 A    
O26   C14   1.282321 A    
C102  C205  1.461282 S    
O29   C15   1.282320 A    
C77   C89   1.398349 A    
O8    Zn4   2.015561 S    
C163  C199  1.394075 A    
C71   C103  1.404070 A    
C68   C84   1.389354 A    
O45   C207  1.275028 A    
C182  C192  1.417057 A    
C130  C142  1.409838 A    
N5    O58   1.301188 A    
C59   C99   1.404047 A    
C57   C97   1.404046 A    
C45   C52   1.196336 T    
O19   Zn3   1.990887 S    
N20   O88   1.301203 A    
N9    O66   1.301187 A    
C181  N45   1.438602 S    
C181  C189  1.417057 A    
C168  H64   1.083903 S    
C108  C124  1.402446 A    
C162  H58   1.083905 S    
C109  C125  1.402449 A    
N30   O107  1.301257 A    
C112  C146  1.409842 A    
C138  C194  1.461049 S    
C128  N24   1.438126 S    
C116  C132  1.402458 A    
C83   C95   1.398366 A    
N38   O123  1.301411 A    
C10   C50   1.418581 S    
N2    O52   1.301180 A    
O16   Zn8   2.015561 S    
C107  N3    1.438141 S    
C88   C94   1.398361 A    
C154  C170  1.394438 A    
C124  N20   1.438134 S    
C14   C54   1.418540 S    
C66   C82   1.389350 A    
N14   O76   1.301188 A    
C20   H15   1.083730 S    
C103  C206  1.461281 S    
O6    Zn2   2.015565 S    
N32   O111  1.301277 A    
C70   C86   1.389362 A    
C73   H33   1.083435 S    
N41   O130  1.301066 A    
N8    O64   1.301183 A    
C123  C139  1.409835 A    
N28   O104  1.301184 A    
C29   C39   1.398766 A    
C126  C140  1.409834 A    
C167  H63   1.083907 S    
C174  N38   1.438596 S    
O18   C10   1.282330 A    
C165  H61   1.083899 S    
O21   Zn3   1.990886 S    
C141  C197  1.461063 S    
C23   C28   1.392998 A    
C163  H59   1.083908 S    
C42   C55   1.196316 T    
C179  N43   1.438613 S    
C179  C191  1.417048 A    
C162  C198  1.394057 A    
C168  C184  1.394449 A    
O12   C8    1.284207 A    
O1    C1    1.284216 A    
C4    C188  1.458370 S    
O41   Zn11  2.015861 S    
C113  N9    1.438144 S    
C120  C150  1.409850 A    
C32   C40   1.398729 A    
C107  C123  1.402449 A    
C28   H7    1.083788 S    
C23   C35   1.398848 A    
C166  C182  1.394450 A    
N45   O138  1.301068 A    
C175  C187  1.417069 A    
N31   O110  1.301264 A    
C114  C150  1.409852 A    
C7    C191  1.458314 S    
C122  C138  1.409826 A    
C78   C92   1.398353 A    
O44   C208  1.275025 A    
O29   Zn7   1.990886 S    
C119  C135  1.402449 A    
N10   O67   1.301272 A    
O46   C206  1.275022 A    
C130  N26   1.438145 S    
N4    O56   1.301207 A    
O13   Zn7   2.015565 S    
O38   Zn10  2.015861 S    
C127  C139  1.409833 A    
C109  C145  1.409847 A    
O34   C202  1.275022 A    
N40   O128  1.301069 A    
C60   C76   1.389350 A    
C67   C83   1.389352 A    
C164  C200  1.394050 A    
C155  C195  1.394045 A    
C36   C44   1.424090 S    
N18   O84   1.301174 A    
N13   O73   1.301254 A    
C143  C199  1.461102 S    
O10   C6    1.284203 A    
C111  C147  1.409847 A    
C106  C122  1.402446 A    
C18   C34   1.398760 A    
C72   H32   1.082975 S    
C164  C180  1.394448 A    
C158  H54   1.083902 S    
C87   C95   1.398365 A    
C46   C51   1.196342 T    
C59   C75   1.389352 A    
C67   H27   1.082983 S    
N37   O122  1.301071 A    
O5    C1    1.284214 A    
N19   O85   1.301255 A    
N1    O50   1.301189 A    
N36   O119  1.301411 A    
C178  C190  1.417052 A    
O39   C201  1.275022 A    
O40   C204  1.275022 A    
C183  C191  1.417046 A    
C31   H4    1.083718 S    
O32   Zn8   1.990885 S    
C27   C37   1.398752 A    
C32   H3    1.083691 S    
C22   H9    1.083722 S    
C17   C30   1.393036 A    
C124  C140  1.409839 A    
C167  C199  1.394075 A    
C19   C32   1.393036 A    
N34   O116  1.301070 A    
O22   Zn2   1.990886 S    
C133  C141  1.409830 A    
O21   C11   1.282333 A    
O22   C12   1.282329 A    
C169  C185  1.417073 A    
O23   Zn1   1.990884 S    
C153  C193  1.394042 A    
C112  C128  1.402446 A    
C118  N14   1.438145 S    
C170  N34   1.438594 S    
O45   Zn12  2.015857 S    
C28   C38   1.398862 A    
C26   C38   1.398863 A    
C84   C96   1.398351 A    
C30   C40   1.398733 A    
N39   O125  1.301400 A    
C119  C151  1.409856 A    
C154  H50   1.083903 S    
C168  C198  1.394059 A    
N11   O69   1.301288 A    
C41   C56   1.196323 T    
O3    Zn3   2.015568 S    
C167  C183  1.394446 A    
C30   H1    1.083693 S    
C156  C196  1.394050 A    
C20   C31   1.393027 A    
C107  C147  1.409844 A    
C43   C54   1.196310 T    
O8    C2    1.284215 A    
N47   O141  1.301417 A    
O28   Zn8   1.990889 S    
C184  C190  1.417052 A    
C177  N41   1.438597 S    
C17   H14   1.083701 S    
N48   O144  1.301070 A    
O30   Zn6   1.990886 S    
C5    C189  1.458349 S    
C172  N36   1.438600 S    
O35   C203  1.275022 A    
C165  C197  1.394051 A    
C129  C141  1.409830 A    
C87   H47   1.083454 S    
O23   C11   1.282333 A    
C77   H37   1.083438 S    
C164  H60   1.083905 S    
C71   H31   1.082985 S    
O9    Zn5   2.015564 S    
C134  C144  1.409829 A    
O11   Zn7   2.015568 S    
C116  N12   1.438142 S    
N22   O92   1.301206 A    
C60   H20   1.082969 S    
C155  H51   1.083901 S    
N44   O135  1.301402 A    
C106  C146  1.409843 A    
N6    O60   1.301205 A    
N26   O99   1.301279 A    
C8    C192  1.458343 S    
C57   H17   1.082962 S    
N27   O101  1.301299 A    
C18   C29   1.393024 A    
C182  N46   1.438603 S    
C18   H13   1.083733 S    
C59   H19   1.082963 S    
O6    C4    1.284213 A    
C169  N33   1.438597 S    
N24   O95   1.301251 A    
C170  C186  1.417069 A    
C178  N42   1.438607 S    
C158  C196  1.394051 A    
C173  N37   1.438597 S    
C35   C43   1.424058 S    
O31   Zn5   1.990884 S    
N16   O80   1.301230 A    
C133  N29   1.438132 S    
C84   H44   1.083437 S    
O37   C203  1.275021 A    
O17   Zn1   1.990889 S    
C72   C88   1.389358 A    
C172  C188  1.417067 A    
C166  H62   1.083899 S    
N42   O132  1.301069 A    
C69   H29   1.082965 S    
C47   C50   1.196339 T    
C113  C129  1.402456 A    
N25   O98   1.301188 A    
C75   H35   1.083438 S    
C117  C133  1.402456 A    
C64   C80   1.389350 A    
C100  C203  1.461267 S    
O2    C2    1.284213 A    
O20   Zn4   1.990889 S    
N5    O57   1.301250 A    
O37   Zn10  2.015857 S    
C117  N13   1.438143 S    
C68   H28   1.082963 S    
C75   C91   1.398347 A    
N9    O65   1.301253 A    
C21   C35   1.398847 A    
O33   C201  1.275021 A    
O4    Zn4   2.015566 S    
C80   C90   1.398348 A    
N12   O72   1.301187 A    
N38   O124  1.301071 A    
N30   O108  1.301183 A    
C159  C195  1.394048 A    
N17   O82   1.301186 A    
C65   C101  1.404051 A    
C61   H21   1.082963 S    
C128  C138  1.409832 A    
O40   Zn10  2.015866 S    
C17   C33   1.398722 A    
C82   H42   1.083448 S    
C114  N10   1.438161 S    
C72   C102  1.404059 A    
C60   C100  1.404051 A    
C160  C176  1.394439 A    
C21   C26   1.392998 A    
O42   C206  1.275026 A    
N19   O86   1.301182 A    
N31   O109  1.301298 A    
C162  C178  1.394447 A    
C2    C186  1.458378 S    
N32   O112  1.301230 A    
C62   C78   1.389346 A    
C62   H22   1.082969 S    
C177  C189  1.417057 A    
C38   C46   1.424106 S    
C85   H45   1.083438 S    
O15   C7    1.284195 A    
N40   O127  1.301401 A    
C160  H56   1.083905 S    
C98   C201  1.461271 S    
C171  C187  1.417073 A    
C120  C136  1.402454 A    
N1    O49   1.301249 A    
C66   H26   1.082976 S    
N29   O106  1.301185 A    
N36   O120  1.301068 A    
N33   O114  1.301068 A    
O25   Zn5   1.990889 S    
N21   O90   1.301185 A    
C180  C192  1.417054 A    
O27   Zn7   1.990887 S    
C24   C27   1.393027 A    
C173  C185  1.417068 A    
O7    Zn1   2.015569 S    
C175  N39   1.438594 S    
C25   H6    1.083711 S    
C112  N8    1.438139 S    
C137  C193  1.461051 S    
C88   H48   1.083447 S    
C11   C51   1.418591 S    
O43   Zn11  2.015860 S    
C70   C104  1.404050 A    
N23   O94   1.301182 A    
C155  C171  1.394437 A    
O38   C202  1.275023 A    
C63   C99   1.404048 A    
N11   O70   1.301265 A    
O19   C9    1.282328 A    
C153  C169  1.394441 A    
C95   C151  1.460534 S    
N45   O137  1.301407 A    
C24   C36   1.398749 A    
C65   C81   1.389356 A    
N15   O78   1.301269 A    
C120  N16   1.438162 S    
N46   O139  1.301396 A    
N21   O89   1.301252 A    
O12   Zn8   2.015566 S    
C115  C151  1.409855 A    
C116  C152  1.409846 A    
C81   H41   1.083437 S    
O14   Zn6   2.015565 S    
N46   O140  1.301068 A    
C71   C87   1.389348 A    
C101  C208  1.461288 S    
C62   C100  1.404053 A    
C127  N23   1.438130 S    
C57   C73   1.389352 A    
C83   H43   1.083455 S    
C174  C188  1.417069 A    
C142  C198  1.461068 S    
C34   C42   1.424086 S    
C97   C204  1.461273 S    
C85   C93   1.398352 A    
C22   C36   1.398748 A    
C22   C25   1.393027 A    
C132  C144  1.409826 A    
C135  C143  1.409861 A    
O30   C16   1.282321 A    
C63   C79   1.389352 A    
C119  N15   1.438181 S    
C69   C101  1.404049 A    
C90   C146  1.460540 S    
C161  C197  1.394050 A    
O4    C4    1.284211 A    
C110  N6    1.438156 S    
C163  C179  1.394446 A    
C81   C93   1.398352 A    
N2    O51   1.301249 A    
C94   C150  1.460540 S    
C129  N25   1.438131 S    
C161  C177  1.394448 A    
N27   O102  1.301267 A    
N37   O121  1.301406 A    
O1    Zn1   2.015564 S    
C125  N21   1.438130 S    
C78   H38   1.083443 S    
C165  C181  1.394445 A    
N14   O75   1.301250 A    
C64   C98   1.404044 A    
N41   O129  1.301406 A    
O10   Zn6   2.015562 S    
C117  C149  1.409849 A    
C121  N17   1.438129 S    
C37   C45   1.424122 S    
N35   O117  1.301401 A    
C115  C131  1.402449 A    
C157  C173  1.394440 A    
O24   C12   1.282330 A    
N8    O63   1.301250 A    
N10   O68   1.301228 A    
C15   C55   1.418546 S    
N28   O103  1.301255 A    
C166  C200  1.394050 A    
O41   C205  1.275023 A    
C121  C137  1.409830 A    
C58   H18   1.082961 S    
O20   C10   1.282329 A    
C158  C174  1.394438 A    
