data_mof_unit_40333.cif
_audit_creation_date              2013-03-05T16:45:44-0500
_audit_creation_method            fapswitch 2.2
_symmetry_space_group_name_H-M    P1
_symmetry_Int_Tables_number       1
_space_group_crystal_system       triclinic
_cell_length_a                    17.363836
_cell_length_b                    10.727912
_cell_length_c                    9.924017
_cell_angle_alpha                 90.52454
_cell_angle_beta                  90.040706
_cell_angle_gamma                 91.516816
_cell_volume                      1847.89706677

loop_
_atom_site_label
_atom_site_type_symbol
_atom_site_description
_atom_site_fract_x
_atom_site_fract_y
_atom_site_fract_z
_atom_type_partial_charge
O1    O     O_R   0.500010 0.316790 0.614690 -0.635149
O2    O     O_R   0.500000 0.316760 0.385350 -0.620017
C1    C     C_R   0.498570 0.260411 0.499347 0.881390
O3    O     O_R   0.389120 0.500020 0.614710 -0.583274
O4    O     O_R   0.389110 0.499990 0.385370 -0.611631
C2    C     C_R   0.353771 0.502881 0.499798 0.929994
Zn1   Zn    Zn3+2 0.500010 0.500020 0.653130 1.058398
Zn2   Zn    Zn3+2 0.499990 0.499980 0.346870 1.010252
O5    O     O_R   0.500000 0.683240 0.614650 -0.555089
O6    O     O_R   0.499990 0.683210 0.385310 -0.615955
O7    O     O_R   0.610890 0.500010 0.614630 -0.576050
O8    O     O_R   0.610880 0.499980 0.385290 -0.612282
C3    C     C_R   0.494952 0.739269 0.500680 0.978023
C4    C     C_R   0.646658 0.499890 0.500048 0.913976
C5    C     C_R   0.854291 0.485437 0.605577 0.409045
C6    C     C_R   0.775877 0.454725 0.597371 0.486246
C7    C     C_R   0.730020 0.514125 0.500603 -0.289370
C8    C     C_R   0.763305 0.598924 0.410038 -0.309272
H1    H     H_    0.727585 0.645506 0.337619 0.211768
C9    C     C_R   0.842140 0.626673 0.414051 0.491532
C10   C     C_R   0.887201 0.569829 0.511601 -0.165376
C11   C     C_1   0.968370 0.585415 0.502638 0.128861
C12   C     C_1   0.036676 0.588471 0.493727 0.109762
C13   C     C_R   0.167266 0.664169 0.553074 0.225780
C14   C     C_R   0.246725 0.639711 0.556555 0.445854
C15   C     C_R   0.272738 0.528450 0.498138 -0.097108
C16   C     C_R   0.222999 0.448299 0.426441 -0.281130
H2    H     H_    0.244123 0.365197 0.377492 0.172673
C17   C     C_R   0.145529 0.473851 0.419624 -0.143467
H3    H     H_    0.106734 0.408698 0.367700 0.187116
C18   C     C_R   0.117627 0.579371 0.484553 -0.039157
C19   C     C_R   0.517220 0.065617 0.612955 0.095189
C20   C     C_R   0.496751 0.128347 0.497591 -0.145113
C21   C     C_R   0.470214 0.063401 0.383463 -0.258968
H4    H     H_    0.450656 0.113464 0.296016 0.204729
C22   C     C_R   0.460998 0.934626 0.387054 0.303346
C23   C     C_R   0.487085 0.871305 0.502485 -0.269713
C24   C     C_R   0.515307 0.937509 0.615070 0.059506
C25   C     C_3   0.481985 0.939287 0.755431 0.170296
C26   C     C_3   0.482936 0.079851 0.749771 -0.515290
H5    H     H_    0.423218 0.895726 0.762449 0.175965
H6    H     H_    0.424168 0.118656 0.747050 0.187217
H7    H     H_    0.523186 0.128185 0.821436 0.245691
C27   C     C_R   0.446021 0.431502 0.070633 0.072284
N1    N     N_R   0.499490 0.499140 0.142800 -0.163617
C28   C     C_R   0.559325 0.553961 0.072027 0.455301
C29   C     C_R   0.561192 0.548479 0.928882 0.349780
N2    N     N_R   0.499490 0.499180 0.857150 -0.171086
C30   C     C_R   0.444866 0.434302 0.929148 0.000955
C31   C     C_3   0.358785 0.444892 0.927582 0.126124
C32   C     C_3   0.360760 0.439711 0.080969 -0.450097
H8    H     H_    0.328869 0.363242 0.879008 0.113116
H9    H     H_    0.342668 0.526805 0.132261 0.265400
H10   H     H_    0.333892 0.352706 0.121570 0.177932
O9    O     O_3   0.896829 0.426929 0.703384 -0.651886
H11   H     H_    0.948796 0.466431 0.710621 0.342263
N3    N     N_R   0.419108 0.871894 0.279787 0.238676
O10   O     O_R   0.368167 0.784776 0.307776 -0.364164
O11   O     O_R   0.419435 0.918814 0.159358 -0.322539
N4    N     N_R   0.535411 0.894747 0.857131 0.273728
O12   O     O_R   0.606377 0.937082 0.862443 -0.305016
O13   O     O_R   0.510176 0.820381 0.950770 -0.301349
O14   O     O_3   0.617340 0.620734 0.136307 -0.699908
H12   H     H_    0.595711 0.655368 0.219802 0.373107
N5    N     N_R   0.628269 0.597162 0.861610 0.255536
O15   O     O_R   0.623190 0.689899 0.779277 -0.305249
O16   O     O_R   0.696185 0.562214 0.898822 -0.292214
N6    N     N_R   0.330968 0.564635 0.880915 0.267180
O17   O     O_R   0.257684 0.574752 0.857920 -0.332148
O18   O     O_R   0.373978 0.665578 0.890055 -0.296775
O19   O     O_3   0.746807 0.365310 0.684397 -0.639422
H13   H     H_    0.698965 0.327462 0.645887 0.325765
O20   O     O_3   0.876502 0.707967 0.323445 -0.686847
H14   H     H_    0.836704 0.738842 0.261208 0.365638
N7    N     N_R   0.136940 0.770095 0.623078 0.194952
O21   O     O_R   0.156428 0.793364 0.747612 -0.297570
O22   O     O_R   0.086585 0.839666 0.565190 -0.331556
O23   O     O_3   0.300547 0.723061 0.611270 -0.710852
H15   H     H_    0.277997 0.806569 0.618662 0.365361

loop_
_geom_bond_atom_site_label_1
_geom_bond_atom_site_label_2
_geom_bond_distance
_ccdc_geom_bond_type
C27   C30   1.404834 A    
O9    H11   0.988977 S    
C16   C17   1.381654 A    
O20   H14   0.991966 S    
C25   H5    1.113523 S    
N1    C28   1.376552 A    
Zn1   O7    1.963115 S    
C15   C16   1.392887 A    
C23   C24   1.399710 A    
O4    C2    1.291664 A    
C22   C23   1.417278 A    
C21   H4    1.083830 S    
C24   C25   1.508861 S    
O7    C4    1.296065 A    
N3    O11   1.301009 A    
C1    C20   1.416237 S    
C5    C6    1.394505 A    
C8    C9    1.393631 A    
N4    O13   1.299098 A    
C8    H1    1.083179 S    
O5    C3    1.289691 A    
Zn2   N1    2.025143 S    
C26   H7    1.111974 S    
C6    C7    1.413970 A    
N5    O16   1.301153 A    
C31   H8    1.112339 S    
C19   C24   1.374205 A    
C3    C23   1.426595 S    
C26   H6    1.112644 S    
C10   C11   1.417824 S    
C4    C7    1.451486 S    
C6    O19   1.382387 S    
O3    Zn1   1.962599 S    
C31   C32   1.524132 S    
C14   O23   1.383448 S    
C13   C14   1.411706 A    
O3    C2    1.295695 A    
C22   N3    1.440503 S    
C25   C26   1.509177 S    
O23   H15   0.989280 S    
N6    O17   1.300172 A    
C14   C15   1.407499 A    
N4    O12   1.302807 A    
O1    C1    1.289638 A    
C5    O9    1.384315 S    
N7    O21   1.301343 A    
C17   H3    1.084351 S    
C29   N2    1.377080 A    
Zn2   O8    1.962599 S    
C7    C8    1.399026 A    
N7    O22   1.301254 A    
C27   C32   1.488952 S    
N6    O18   1.301511 A    
N2    C30   1.367358 A    
O8    C4    1.296917 A    
C30   C31   1.502085 S    
C27   N1    1.362092 A    
Zn1   O5    2.005755 S    
C28   C29   1.421678 A    
O1    Zn1   1.998919 S    
O2    Zn2   2.005755 S    
O6    C3    1.292490 A    
O4    Zn2   1.963115 S    
C13   N7    1.438390 S    
C28   O14   1.373804 S    
C32   H10   1.111437 S    
Zn1   N2    2.024826 S    
O2    C1    1.287509 A    
C13   C18   1.406843 A    
O19   H13   0.989881 S    
C17   C18   1.395528 A    
C19   C20   1.384249 A    
N3    O10   1.301672 A    
C2    C15   1.440747 S    
C25   N4    1.462368 S    
C20   C21   1.395838 A    
C9    O20   1.382996 S    
C21   C22   1.387295 A    
C19   C26   1.491103 S    
O14   H12   0.983810 S    
C5    C10   1.415919 A    
C9    C10   1.398665 A    
Zn2   O6    1.998919 S    
N5    O15   1.297915 A    
C16   H2    1.083941 S    
C11   C12   1.189025 T    
C32   H9    1.112579 S    
C31   N6    1.463356 S    
C29   N5    1.431894 S    
C12   C18   1.414521 S    
