data_mof_unit_45697.cif
_audit_creation_date              2013-03-05T15:49:31-0500
_audit_creation_method            fapswitch 2.2
_symmetry_space_group_name_H-M    P1
_symmetry_Int_Tables_number       1
_space_group_crystal_system       triclinic
_cell_length_a                    10.400976
_cell_length_b                    12.182975
_cell_length_c                    12.850105
_cell_angle_alpha                 92.993356
_cell_angle_beta                  88.724068
_cell_angle_gamma                 84.310121
_cell_volume                      1617.44847794

loop_
_atom_site_label
_atom_site_type_symbol
_atom_site_description
_atom_site_fract_x
_atom_site_fract_y
_atom_site_fract_z
_atom_type_partial_charge
O1    O     O_R   0.506170 0.421700 0.658830 -0.504356
O2    O     O_R   0.493830 0.578300 0.341170 -0.517027
O3    O     O_R   0.491330 0.609310 0.646410 -0.566669
O4    O     O_R   0.508670 0.390690 0.353590 -0.580085
C1    C     C_R   0.502647 0.521815 0.699884 1.026900
C2    C     C_R   0.496437 0.478131 0.300245 1.025206
O5    O     O_R   0.690650 0.406190 0.506220 -0.576450
O6    O     O_R   0.309350 0.593810 0.493780 -0.579605
O7    O     O_R   0.675800 0.593810 0.493800 -0.596714
O8    O     O_R   0.324200 0.406190 0.506200 -0.588957
C3    C     C_R   0.741220 0.495763 0.482203 0.875525
C4    C     C_R   0.258508 0.503785 0.515584 0.891704
Zn1   Zn    Zn3+2 0.509910 0.374730 0.508290 1.159007
Zn2   Zn    Zn3+2 0.490090 0.625270 0.491710 1.156231
C5    C     C_R   0.930170 0.284802 0.464905 0.305900
C6    C     C_R   0.065388 0.713280 0.529689 0.300324
C7    C     C_R   0.983855 0.200649 0.524605 0.586260
C8    C     C_R   0.010034 0.795600 0.467663 0.527745
C9    C     C_R   0.069772 0.221116 0.604533 0.098674
C10   C     C_R   0.927539 0.769888 0.387006 0.130379
C11   C     C_R   0.113059 0.327371 0.618390 0.288121
C12   C     C_R   0.899761 0.660206 0.369013 0.276158
C13   C     C_R   0.063715 0.411207 0.552150 -0.146871
C14   C     C_R   0.939763 0.582961 0.442572 -0.165086
C15   C     C_R   0.957341 0.393483 0.490015 -0.212127
C16   C     C_R   0.041894 0.603167 0.506669 -0.186238
C17   C     C_R   0.118809 0.511259 0.541418 0.108612
C18   C     C_R   0.881547 0.485904 0.455523 0.085156
C19   C     C_R   0.494444 0.463238 0.188948 -0.308432
C20   C     C_R   0.498763 0.535828 0.811418 -0.284229
C21   C     C_R   0.404679 0.632429 0.966935 0.784282
C22   C     C_R   0.582979 0.364722 0.032882 0.792479
C23   C     C_R   0.426463 0.627649 0.860321 -0.277524
C24   C     C_R   0.562828 0.369909 0.139451 -0.264805
C25   C     C_R   0.556384 0.451206 0.868681 0.737564
C26   C     C_R   0.434866 0.547423 0.131996 0.718534
C27   C     C_R   0.532696 0.453006 0.975172 -0.318377
C28   C     C_R   0.455823 0.544599 0.024975 -0.320510
H1    H     H_    0.605817 0.303137 0.183589 0.240844
H2    H     H_    0.382601 0.693658 0.815656 0.253044
N1    N     N_R   0.523130 0.207800 0.519340 -0.206085
N2    N     N_R   0.476870 0.792200 0.480660 -0.219924
C29   C     C_R   0.391002 0.954868 0.393883 0.327923
C30   C     C_R   0.590917 0.046663 0.615093 0.294153
C31   C     C_R   0.399806 0.839538 0.408081 0.643942
C32   C     C_R   0.592485 0.160256 0.596485 0.697356
C33   C     C_R   0.541027 0.857190 0.547493 0.728744
C34   C     C_R   0.453368 0.144118 0.455117 0.728500
C35   C     C_R   0.529872 0.975924 0.543278 -0.371835
C36   C     C_R   0.457394 0.025704 0.462455 -0.332149
S1    S     S_3+6 0.843269 0.879018 0.322899 0.187661
O9    O     O_2   0.934799 0.926571 0.249627 -0.113697
O10   O     O_2   0.731296 0.841283 0.263569 -0.228785
O11   O     O_3   0.785495 0.977139 0.412613 -0.447078
H3    H     H_    0.783001 0.939696 0.478959 0.362192
S2    S     S_3+6 0.116492 0.107684 0.681547 0.213158
O12   O     O_2   0.181642 0.016548 0.610090 -0.162636
O13   O     O_2   0.205282 0.127396 0.769404 -0.172522
O14   O     O_3   0.979357 0.068782 0.732662 -0.386496
H4    H     H_    0.942830 0.133081 0.778012 0.391199
S3    S     S_3+6 0.296801 0.005474 0.289454 0.210524
O15   O     O_2   0.187102 0.084715 0.333844 -0.171601
O16   O     O_2   0.380016 0.064470 0.218184 -0.210097
O17   O     O_3   0.235211 0.903900 0.218863 -0.362113
H5    H     H_    0.190922 0.941017 0.160872 0.416971
S4    S     S_3+6 0.655801 0.999363 0.733474 0.189743
O18   O     O_2   0.560709 0.933449 0.785907 -0.189533
O19   O     O_2   0.779730 0.927306 0.709771 -0.172358
O20   O     O_3   0.685357 0.105037 0.815956 -0.386728
H6    H     H_    0.725084 0.069815 0.876839 0.412619
S5    S     S_3+6 0.851151 0.248845 0.348060 0.151730
O21   O     O_2   0.810361 0.347861 0.287831 -0.298552
O22   O     O_2   0.942062 0.170542 0.280618 -0.133151
O23   O     O_3   0.719750 0.186173 0.375758 -0.515719
H7    H     H_    0.688363 0.160724 0.307284 0.396966
S6    S     S_3+6 0.122980 0.752380 0.653308 0.135440
O24   O     O_2   0.264687 0.765923 0.646093 -0.286124
O25   O     O_2   0.050706 0.859342 0.692137 -0.104136
O26   O     O_3   0.094158 0.659134 0.740077 -0.492901
H8    H     H_    0.122831 0.690259 0.807435 0.406354
F1    F     F_    0.947941 0.098105 0.507059 -0.491820
F2    F     F_    0.038362 0.900608 0.484617 -0.498772
S7    S     S_3+6 0.208050 0.358997 0.727772 0.088065
O27   O     O_2   0.334185 0.287047 0.720270 -0.253620
O28   O     O_2   0.235949 0.477000 0.734975 -0.338844
O29   O     O_3   0.126616 0.335014 0.837514 -0.456549
H9    H     H_    0.186789 0.348055 0.894527 0.400409
S8    S     S_3+6 0.875049 0.610913 0.239272 0.134345
O30   O     O_2   0.923976 0.687771 0.163105 -0.177459
O31   O     O_2   0.948639 0.499260 0.218396 -0.204253
O32   O     O_3   0.717335 0.602387 0.221225 -0.539042
H10   H     H_    0.708601 0.597481 0.144529 0.380714
F3    F     F_    0.359142 0.632518 0.181490 -0.507631
F4    F     F_    0.635305 0.367570 0.820128 -0.517497
F5    F     F_    0.332256 0.721941 0.012091 -0.537711
F6    F     F_    0.654093 0.274685 0.987605 -0.547541
F7    F     F_    0.380796 0.198041 0.384299 -0.583435
F8    F     F_    0.619741 0.804127 0.615040 -0.582587
F9    F     F_    0.663509 0.224594 0.656347 -0.540806
F10   F     F_    0.329905 0.773063 0.349554 -0.531510

loop_
_geom_bond_atom_site_label_1
_geom_bond_atom_site_label_2
_geom_bond_distance
_ccdc_geom_bond_type
C9    S2    1.776607 S    
C30   C35   1.431428 A    
S4    O19   1.501704 D    
C32   F9    1.352381 S    
S8    O31   1.501481 D    
C30   S4    1.778124 S    
S6    O26   1.675868 S    
Zn1   N1    2.037301 S    
C33   C35   1.443628 A    
C15   C18   1.406191 A    
O5    C3    1.305569 A    
C34   F7    1.350611 S    
C19   C26   1.394295 A    
C29   S3    1.779335 S    
C16   C17   1.408417 A    
C33   F8    1.351617 S    
C20   C25   1.392778 A    
O1    C1    1.300155 A    
C9    C11   1.416055 A    
C14   C16   1.391771 A    
C10   S1    1.769182 S    
O20   H6    0.990579 S    
C5    C15   1.403832 A    
S4    O20   1.681029 S    
S2    O12   1.500579 D    
O4    Zn1   2.007680 S    
S3    O16   1.503747 D    
C8    F2    1.348848 S    
C26   F3    1.358875 S    
C11   S7    1.783534 S    
N1    C32   1.359250 A    
C21   C23   1.380898 A    
C12   S8    1.775209 S    
C7    F1    1.348326 S    
Zn2   N2    2.037302 S    
C34   C36   1.447145 A    
S4    O18   1.503777 D    
O14   H4    0.990480 S    
O2    C2    1.300898 A    
C30   C32   1.418274 A    
C6    C16   1.404856 A    
C23   H2    1.082299 S    
O23   H7    0.990595 S    
C4    C17   1.476091 S    
C24   H1    1.082002 S    
S6    O24   1.500634 D    
O4    C2    1.293908 A    
O32   H10   0.990988 S    
S5    O22   1.501164 D    
O29   H9    0.990786 S    
C19   C24   1.395421 A    
O8    Zn1   1.932654 S    
S1    O9    1.501625 D    
S1    O10   1.502687 D    
N2    C31   1.357467 A    
C22   C24   1.377970 A    
S3    O17   1.682363 S    
O7    Zn2   1.932655 S    
C27   C28   1.421177 A    
C29   C31   1.420512 A    
S7    O27   1.502104 D    
S8    O32   1.674403 S    
O6    C4    1.304431 A    
S7    O29   1.682362 S    
C22   C27   1.403329 A    
O7    C3    1.314447 A    
O3    Zn2   2.007681 S    
O8    C4    1.309726 A    
C22   F6    1.357250 S    
C10   C12   1.403481 A    
C13   C17   1.409156 A    
C11   C13   1.427393 A    
C12   C14   1.408892 A    
O1    Zn1   1.986883 S    
C25   C27   1.383664 A    
C1    C20   1.433666 S    
C25   F4    1.358765 S    
C5    C7    1.392520 A    
O11   H3    0.988726 S    
O6    Zn2   1.955309 S    
C20   C23   1.396599 A    
S7    O28   1.493165 D    
C6    S6    1.768917 S    
C14   C18   1.396623 A    
S6    O25   1.494422 D    
O3    C1    1.295181 A    
C31   F10   1.351879 S    
S5    O23   1.670671 S    
S2    O14   1.677891 S    
C29   C36   1.436617 A    
C5    S5    1.783095 S    
C21   C28   1.404400 A    
S1    O11   1.673888 S    
O17   H5    0.990538 S    
C26   C28   1.385699 A    
S5    O21   1.498280 D    
C3    C18   1.483532 S    
C21   F5    1.358275 S    
C7    C9    1.404978 A    
N1    C34   1.371466 A    
S2    O13   1.499066 D    
C8    C10   1.402693 A    
N2    C33   1.367119 A    
C13   C15   1.406044 A    
S3    O15   1.501426 D    
O2    Zn2   1.986883 S    
O26   H8    0.990728 S    
O5    Zn1   1.955310 S    
C2    C19   1.433086 S    
S8    O30   1.503896 D    
C6    C8    1.400709 A    
C35   C36   1.422941 A    
