data_mof_unit_23303.cif
_audit_creation_date              2012-12-10T18:01:14-0500
_audit_creation_method            fapswitch 2.2
_symmetry_space_group_name_H-M    P1
_symmetry_Int_Tables_number       1
_space_group_crystal_system       triclinic
_cell_length_a                    9.696163
_cell_length_b                    10.829731
_cell_length_c                    17.417124
_cell_angle_alpha                 101.455134
_cell_angle_beta                  86.605782
_cell_angle_gamma                 90.610983
_cell_volume                      1789.34054024

loop_
_atom_site_label
_atom_site_type_symbol
_atom_type_description
_atom_site_fract_x
_atom_site_fract_y
_atom_site_fract_z
_atom_type_partial_charge
C1    C     C_R   0.500742 0.737055 0.498785 0.888536
C2    C     C_R   0.499571 0.263031 0.501650 0.884325
C3    C     C_R   0.610712 0.945841 0.530393 -0.266505
C4    C     C_R   0.392344 0.053879 0.469897 -0.272284
C5    C     C_R   0.609752 0.074686 0.533230 0.683197
C6    C     C_R   0.392472 0.925447 0.467473 0.689606
C7    C     C_R   0.500129 0.129163 0.502469 -0.270421
C8    C     C_R   0.501583 0.870910 0.498395 -0.279653
C9    C     C_R   0.920405 0.588160 0.554756 0.330238
C10   C     C_R   0.079282 0.411835 0.445232 0.240504
C11   C     C_R   0.071150 0.588997 0.554300 0.377685
C12   C     C_R   0.928467 0.410965 0.445690 0.364015
C13   C     C_R   0.482481 0.497692 0.649441 0.972625
C14   C     C_R   0.517480 0.502659 0.350613 0.979290
C15   C     C_R   0.475441 0.499353 0.734232 -0.459104
C16   C     C_R   0.524269 0.502054 0.265955 -0.469116
C17   C     C_R   0.595152 0.474448 0.770213 0.548539
C18   C     C_R   0.404562 0.528367 0.230455 0.555612
C19   C     C_R   0.595005 0.491426 0.851031 0.591888
C20   C     C_R   0.404118 0.512296 0.149714 0.593167
C21   C     C_R   0.473972 0.528189 0.897637 -0.379410
C22   C     C_R   0.524592 0.475081 0.102710 -0.380599
C23   C     C_R   0.349771 0.544661 0.862390 0.173346
C24   C     C_R   0.649074 0.457873 0.137523 0.264767
C25   C     C_R   0.351735 0.530445 0.780453 0.522880
C26   C     C_R   0.647593 0.470878 0.219397 0.523685
C27   C     C_2   0.480409 0.548582 0.983034 0.687254
C28   C     C_2   0.517293 0.454650 0.017358 0.663002
Cu1   Cu    Cu3+1 0.359340 0.499980 0.500000 1.168875
Cu2   Cu    Cu3+1 0.640660 0.500020 0.500000 1.178498
H1    H     H_    0.695651 0.905252 0.554322 0.257864
H2    H     H_    0.309644 0.094129 0.444739 0.221745
N1    N     N_R   0.147930 0.499970 0.499980 -0.304269
N2    N     N_R   0.852070 0.500030 0.500020 -0.309850
O1    O     O_R   0.381260 0.680340 0.500000 -0.485788
O2    O     O_R   0.618740 0.319660 0.500000 -0.484408
O3    O     O_R   0.618830 0.680370 0.500010 -0.565135
O4    O     O_R   0.381170 0.319630 0.499990 -0.581085
O5    O     O_R   0.367440 0.500000 0.613600 -0.502207
O6    O     O_R   0.632560 0.500000 0.386400 -0.499271
O7    O     O_R   0.605010 0.500030 0.613600 -0.488944
O8    O     O_R   0.394990 0.499970 0.386400 -0.489491
F1    F     F_    0.713191 0.432871 0.727433 -0.522083
F2    F     F_    0.287026 0.570317 0.273641 -0.510137
F3    F     F_    0.765690 0.452576 0.253595 -0.529126
F4    F     F_    0.233626 0.547332 0.745860 -0.536351
F5    F     F_    0.542771 0.337218 0.973931 -0.589896
F6    F     F_    0.455135 0.666093 0.026415 -0.570617
S1    S     S_3+6 0.191392 0.576609 0.919680 0.211070
O9    O     O_2   0.199967 0.703164 0.973331 -0.090846
O10   O     O_2   0.070351 0.577015 0.869636 -0.100579
O11   O     O_3   0.164876 0.466065 0.974378 -0.408058
H3    H     H_    0.162418 0.385308 0.936027 0.350338
S2    S     S_3+6 0.806976 0.426140 0.079773 0.203972
O12   O     O_2   0.828418 0.524689 0.030459 -0.165649
O13   O     O_2   0.928304 0.427899 0.129855 -0.087079
O14   O     O_3   0.797923 0.283582 0.020723 -0.402311
H4    H     H_    0.879784 0.279196 0.983445 0.398693
F7    F     F_    0.284392 0.531595 0.117196 -0.495827
F8    F     F_    0.714657 0.473425 0.884038 -0.524183
F9    F     F_    0.714110 0.145766 0.567453 -0.575738
F10   F     F_    0.288193 0.854647 0.432914 -0.566852
S3    S     S_3+6 0.825873 0.697760 0.634198 0.118651
O15   O     O_2   0.673765 0.714548 0.633171 -0.309142
O16   O     O_2   0.848705 0.654116 0.709181 -0.152916
O17   O     O_3   0.885788 0.845510 0.640636 -0.463060
H5    H     H_    0.850468 0.892002 0.692819 0.399712
S4    S     S_3+6 0.173408 0.302816 0.365484 0.141916
O18   O     O_2   0.151537 0.348144 0.290979 -0.109456
O19   O     O_2   0.325347 0.285037 0.366673 -0.290002
O20   O     O_3   0.112527 0.155166 0.356727 -0.403289
H6    H     H_    0.108081 0.138737 0.410672 0.353839
S5    S     S_3+6 0.154913 0.720871 0.618981 0.167682
O21   O     O_2   0.136351 0.834544 0.583154 -0.221873
O22   O     O_2   0.086494 0.745299 0.700011 -0.142298
O23   O     O_3   0.321944 0.720623 0.638375 -0.496477
H7    H     H_    0.341720 0.807171 0.666694 0.364293
S6    S     S_3+6 0.843547 0.279715 0.380733 0.164336
O24   O     O_2   0.912694 0.254811 0.299854 -0.104196
O25   O     O_2   0.859272 0.165800 0.416631 -0.261793
O26   O     O_3   0.676744 0.280490 0.360959 -0.491985
H8    H     H_    0.657077 0.194387 0.331888 0.373715

loop_
_geom_bond_atom_site_label_1
_geom_bond_atom_site_label_2
_ccdc_geom_bond_type
C27   F6    S    
S3    O16   D    
C28   F5    S    
Cu1   O8    S    
C1    C8    S    
S5    O21   D    
C2    C7    S    
C13   O7    A    
O26   H8    S    
C22   C24   A    
C19   C21   A    
C24   C26   A    
S6    O25   D    
C15   C25   A    
C24   S2    S    
Cu1   N1    S    
C26   F3    S    
S4    O18   D    
S1    O10   D    
C12   S6    S    
Cu1   O4    S    
Cu2   O7    S    
C1    O3    A    
C14   O8    A    
O17   H5    S    
C21   C27   S    
S3    O17   S    
C22   C28   S    
S5    O22   D    
C4    C7    A    
C16   C26   A    
S2    O13   D    
Cu2   N2    S    
Cu2   O6    S    
C11   N1    A    
O23   H7    S    
C4    C6    A    
C3    C8    A    
C11   S5    S    
C5    C7    A    
S6    O24   D    
C6    C8    A    
Cu2   O3    S    
C17   F1    S    
Cu1   Cu2   S    
C18   F2    S    
C2    O4    A    
S1    O11   S    
Cu1   O5    S    
C5    F9    S    
C20   F7    S    
C3    H1    S    
C9    C11   A    
C4    H2    S    
C10   C12   A    
C16   C18   A    
C20   C22   A    
C13   C15   S    
C9    N2    A    
S5    O23   S    
C14   C16   S    
C12   N2    A    
O11   H3    S    
C1    O1    A    
C2    O2    A    
C15   C17   A    
S2    O12   D    
C9    S3    S    
C3    C5    A    
C10   S4    S    
C19   F8    S    
Cu1   O1    S    
Cu2   O2    S    
C6    F10   S    
C21   C23   A    
O20   H6    S    
S6    O26   S    
O14   H4    S    
S4    O20   S    
C17   C19   A    
C10   N1    A    
C18   C20   A    
C23   C25   A    
C13   O5    A    
C23   S1    S    
C14   O6    A    
S3    O15   D    
S4    O19   D    
S1    O9    D    
C27   C28   D    
C25   F4    S    
S2    O14   S    
