data_mof_unit_43287.cif
_audit_creation_date              2012-12-10T17:47:06-0500
_audit_creation_method            fapswitch 2.2
_symmetry_space_group_name_H-M    P1
_symmetry_Int_Tables_number       1
_space_group_crystal_system       triclinic
_cell_length_a                    9.989517
_cell_length_b                    10.60742
_cell_length_c                    13.579794
_cell_angle_alpha                 92.166376
_cell_angle_beta                  82.110384
_cell_angle_gamma                 90.950358
_cell_volume                      1424.22195317

loop_
_atom_site_label
_atom_site_type_symbol
_atom_type_description
_atom_site_fract_x
_atom_site_fract_y
_atom_site_fract_z
_atom_type_partial_charge
C1    C     C_R   0.500518 0.739184 0.501331 0.869118
C2    C     C_R   0.558257 0.932472 0.421963 -0.207019
C3    C     C_R   0.556591 0.061422 0.421400 -0.220429
C4    C     C_R   0.474834 0.500794 0.685657 0.850451
C5    C     C_R   0.496353 0.128657 0.505285 -0.084603
C6    C     C_R   0.840561 0.626307 0.660615 0.233901
C7    C     C_R   0.895850 0.644930 0.749659 -0.277748
C8    C     C_R   0.035317 0.643536 0.747796 0.216036
C9    C     C_R   0.114772 0.617141 0.657043 -0.209986
C10   C     C_R   0.059556 0.557741 0.577773 0.080718
C11   C     C_R   0.915974 0.559630 0.578396 0.075716
C12   C     C_1   0.454738 0.503742 0.790072 -0.208760
C13   C     C_R   0.941418 0.444003 0.423991 0.246913
C14   C     C_R   0.084955 0.444618 0.424972 -0.128291
C15   C     C_R   0.499044 0.260866 0.500260 0.854595
C16   C     C_R   0.525167 0.499864 0.314321 0.883343
C17   C     C_1   0.545215 0.501864 0.209940 -0.177935
C18   C     C_2   0.558666 0.506385 0.017642 -0.165765
C19   C     C_2   0.441173 0.508617 0.982532 -0.166185
C20   C     C_1   0.443157 0.506399 0.878347 0.001171
C21   C     C_1   0.556671 0.504036 0.121747 0.002910
C22   C     C_3   0.798522 0.833982 0.611217 -0.734449
C23   C     C_R   0.396044 0.876518 0.682936 -0.203837
C24   C     C_3   0.053567 0.618313 0.922580 -0.775550
C25   C     C_3   0.965804 0.352959 0.250829 -0.845823
C26   C     C_R   0.342876 0.945990 0.768257 -0.131729
C27   C     C_R   0.336587 0.076828 0.766497 -0.126155
C28   C     C_R   0.385244 0.138810 0.679859 -0.174786
C29   C     C_R   0.440435 0.069803 0.593017 0.091180
C30   C     C_R   0.444060 0.937923 0.594136 0.089368
C31   C     C_R   0.500756 0.871861 0.506729 -0.092772
H1    H     H_    0.345067 0.509997 0.031091 0.155740
H2    H     H_    0.834477 0.687276 0.814006 0.155635
H3    H     H_    0.199813 0.695850 0.818937 0.216924
H4    H     H_    0.107240 0.657982 0.983362 0.232384
H5    H     H_    0.078522 0.516660 0.910640 0.240865
H6    H     H_    0.943405 0.628669 0.946483 0.241199
H7    H     H_    0.217483 0.647858 0.648678 0.197348
H8    H     H_    0.602894 0.879584 0.356004 0.148041
H9    H     H_    0.402257 0.775369 0.687723 0.108207
H10   H     H_    0.380814 0.240595 0.682018 0.144526
H11   H     H_    0.600878 0.109093 0.355224 0.140032
H12   H     H_    0.151169 0.398287 0.365481 0.164941
H13   H     H_    0.809398 0.316946 0.366063 0.255611
H14   H     H_    0.899725 0.325040 0.194095 0.250127
H15   H     H_    0.032794 0.272661 0.259262 0.234001
H16   H     H_    0.026686 0.436623 0.224134 0.251125
H17   H     H_    0.654720 0.504501 0.968996 0.155893
H18   H     H_    0.307677 0.898561 0.836277 0.137904
H19   H     H_    0.295509 0.130599 0.832800 0.139114
H20   H     H_    0.667636 0.726977 0.706558 0.208050
H21   H     H_    0.717166 0.901783 0.605697 0.239222
H22   H     H_    0.859012 0.820665 0.536638 0.248094
H23   H     H_    0.863668 0.876004 0.664286 0.226740
N1    N     N_R   0.857120 0.501200 0.500900 -0.138980
N2    N     N_R   0.142720 0.501280 0.500940 -0.119000
N3    N     N_2   0.741000 0.714295 0.645743 -0.242533
N4    N     N_2   0.096197 0.685326 0.832491 -0.296845
N5    N     N_2   0.882721 0.383331 0.344371 -0.267234
O1    O     O_R   0.385310 0.683220 0.500000 -0.625816
O2    O     O_R   0.614640 0.683250 0.500010 -0.579891
O3    O     O_R   0.368830 0.499960 0.640340 -0.635041
O4    O     O_R   0.598160 0.499980 0.640350 -0.598208
O5    O     O_R   0.385360 0.316750 0.499990 -0.607512
O6    O     O_R   0.614690 0.316780 0.500000 -0.630268
O7    O     O_R   0.401840 0.500020 0.359650 -0.612052
O8    O     O_R   0.631170 0.500040 0.359660 -0.596395
Zn1   Zn    Zn3+2 0.346870 0.499980 0.499990 0.936041
Zn2   Zn    Zn3+2 0.653130 0.500020 0.500010 0.958419

loop_
_geom_bond_atom_site_label_1
_geom_bond_atom_site_label_2
_ccdc_geom_bond_type
C8    C9    A    
O7    Zn1   S    
C15   O5    A    
C3    H11   S    
C6    C7    A    
H20   N3    S    
C25   H14   S    
C4    C12   S    
C18   C21   S    
C10   N2    A    
C9    C10   A    
C25   H16   S    
C14   N2    A    
C19   C20   S    
C4    O4    A    
C27   H19   S    
O3    Zn1   S    
C3    C5    A    
C27   C28   A    
C8    N4    S    
C12   C20   T    
C22   N3    S    
C2    C3    A    
C11   N1    A    
C7    C8    A    
C22   H23   S    
C16   O8    A    
C24   H5    S    
C13   C14   A    
C7    H2    S    
C6    N3    S    
C26   C27   A    
N1    Zn2   S    
C13   N5    S    
C19   H1    S    
O5    Zn1   S    
C24   N4    S    
C28   C29   A    
C25   H15   S    
C24   H6    S    
C22   H22   S    
C5    C29   A    
C30   C31   A    
C1    O1    A    
O6    Zn2   S    
C26   H18   S    
C24   H4    S    
C5    C15   S    
C10   C11   A    
H13   N5    S    
C29   C30   A    
C23   H9    S    
C15   O6    A    
C23   C30   A    
C4    O3    A    
C28   H10   S    
C1    C31   S    
C16   O7    A    
O1    Zn1   S    
C22   H21   S    
C18   C19   D    
C23   C26   A    
O2    Zn2   S    
C6    C11   A    
H3    N4    S    
C2    C31   A    
C9    H7    S    
C25   N5    S    
O8    Zn2   S    
N2    Zn1   S    
C2    H8    S    
C17   C21   T    
O4    Zn2   S    
C16   C17   S    
C18   H17   S    
C14   H12   S    
C13   N1    A    
C1    O2    A    
