data_mof_unit_61810.cif
_audit_creation_date              2013-03-05T15:44:21-0500
_audit_creation_method            fapswitch 2.2
_symmetry_space_group_name_H-M    P1
_symmetry_Int_Tables_number       1
_space_group_crystal_system       triclinic
_cell_length_a                    13.141285
_cell_length_b                    13.149496
_cell_length_c                    16.08479
_cell_angle_alpha                 80.210796
_cell_angle_beta                  100.430919
_cell_angle_gamma                 90.753536
_cell_volume                      2693.29215017

loop_
_atom_site_label
_atom_site_type_symbol
_atom_site_description
_atom_site_fract_x
_atom_site_fract_y
_atom_site_fract_z
_atom_type_partial_charge
Zn1   Zn    Zn3+2 0.592010 0.428480 0.447310 0.977781
Zn2   Zn    Zn3+2 0.579060 0.591980 0.567800 1.014977
Zn3   Zn    Zn3+2 0.430650 0.400450 0.572090 1.049176
Zn4   Zn    Zn3+2 0.398290 0.579090 0.412800 1.062288
O1    O     O_3   0.500000 0.500000 0.500000 -0.509479
O2    O     O_R   0.406490 0.723840 0.419860 -0.578137
O3    O     O_R   0.586720 0.281460 0.482230 -0.648169
O4    O     O_R   0.723810 0.584530 0.562340 -0.640244
O5    O     O_R   0.282980 0.410180 0.535580 -0.603726
O6    O     O_R   0.564890 0.556920 0.685230 -0.627143
O7    O     O_R   0.419250 0.562810 0.301190 -0.615088
O8    O     O_R   0.461010 0.422870 0.688230 -0.612505
O9    O     O_R   0.554850 0.457400 0.325340 -0.647752
O10   O     O_R   0.732880 0.470090 0.478000 -0.612004
O11   O     O_R   0.260330 0.535210 0.424090 -0.626632
O12   O     O_R   0.533020 0.732860 0.528350 -0.654813
O13   O     O_R   0.473780 0.261850 0.569570 -0.627193
C1    C     C_R   0.464357 0.777864 0.467217 0.772100
C2    C     C_R   0.536282 0.222993 0.531470 0.842521
C3    C     C_R   0.777696 0.530783 0.526216 0.869530
C4    C     C_R   0.222932 0.468257 0.476153 0.947168
C5    C     C_R   0.515823 0.487565 0.726892 0.845208
C6    C     C_R   0.483931 0.512412 0.273008 0.821829
C7    C     C_1   0.520474 0.484005 0.817053 -0.062381
C8    C     C_2   0.527359 0.482124 0.982831 -0.298938
C9    C     C_2   0.459576 0.535132 0.013797 0.326787
C10   C     C_1   0.469598 0.525297 0.105803 -0.040221
C11   C     C_1   0.523760 0.482569 0.892608 0.131277
C12   C     C_1   0.476891 0.518561 0.182313 -0.088543
H1    H     H_    0.587565 0.434595 0.027126 0.151549
H2    H     H_    0.582310 0.907318 0.547566 0.164912
C13   C     C_2   0.544654 0.110792 0.542273 -0.326329
C14   C     C_2   0.532530 0.059756 0.475617 0.181224
C15   C     C_2   0.456417 0.891658 0.448405 0.179156
C16   C     C_2   0.526470 0.946636 0.493774 -0.265500
H3    H     H_    0.545424 0.067787 0.606445 0.155065
C17   C     C_2   0.111178 0.463983 0.471086 -0.423555
C18   C     C_2   0.064652 0.472994 0.537722 0.275096
H4    H     H_    0.926923 0.602890 0.565419 0.163866
C19   C     C_2   0.891319 0.535905 0.541537 -0.248137
C20   C     C_2   0.951387 0.460929 0.526470 0.035396
H5    H     H_    0.064812 0.457790 0.409033 0.134625
N1    N     N_R   0.377283 0.600257 0.959669 0.240931
O14   O     O_R   0.303233 0.632358 0.993190 -0.327810
O15   O     O_R   0.379679 0.635351 0.879385 -0.342358
N2    N     N_3   0.523403 0.111717 0.388261 -0.380731
H6    H     H_    0.592285 0.150172 0.381403 0.205417
H7    H     H_    0.462896 0.166260 0.374895 0.214613
N3    N     N_R   0.374892 0.941585 0.382325 0.233406
O16   O     O_R   0.346697 0.904287 0.311914 -0.330576
O17   O     O_R   0.320562 0.016703 0.396635 -0.367902
N4    N     N_3   0.907178 0.367857 0.500956 -0.401406
H8    H     H_    0.944075 0.305130 0.544221 0.206188
H9    H     H_    0.922216 0.362874 0.440190 0.192413
N5    N     N_R   0.120853 0.495937 0.617992 0.230296
O18   O     O_R   0.083850 0.468046 0.688026 -0.343758
O19   O     O_R   0.200581 0.555853 0.619949 -0.373767

loop_
_geom_bond_atom_site_label_1
_geom_bond_atom_site_label_2
_geom_bond_distance
_ccdc_geom_bond_type
N5    O18   1.301184 A    
C13   H3    1.087750 S    
C17   C18   1.348722 D    
Zn3   O5    1.922339 S    
O10   C3    1.271999 A    
C10   C12   1.204980 T    
Zn2   O12   1.921250 S    
C20   N4    1.438576 S    
N1    O14   1.301541 A    
C13   C14   1.343602 D    
Zn4   O11   1.925835 S    
N1    O15   1.301241 A    
O6    C5    1.276610 A    
Zn4   O7    1.912017 S    
C14   N2    1.438827 S    
C1    C15   1.476545 S    
O5    C4    1.270466 A    
C9    C10   1.445326 S    
O4    C3    1.280754 A    
Zn1   O1    1.933059 S    
C2    C13   1.459181 S    
C6    C12   1.433334 S    
H2    C16   1.087369 S    
O7    C6    1.274216 A    
C19   C20   1.350855 D    
O13   C2    1.269279 A    
N4    H9    1.044384 S    
C9    N1    1.445954 S    
Zn3   O13   1.924858 S    
O3    C2    1.275658 A    
N5    O19   1.301626 A    
C3    C19   1.471244 S    
O2    C1    1.274054 A    
C5    C7    1.433173 S    
Zn2   O1    1.933076 S    
Zn1   O9    1.906901 S    
C17   H5    1.086382 S    
C8    C11   1.442425 S    
Zn2   O6    1.908901 S    
N2    H7    1.045721 S    
O8    C5    1.277046 A    
Zn1   O10   1.924669 S    
O11   C4    1.266822 A    
C4    C17   1.456922 S    
N4    H8    1.045398 S    
O9    C6    1.275537 A    
C18   C20   1.476290 S    
O12   C1    1.275215 A    
C15   C16   1.349541 D    
N3    O17   1.301446 A    
H4    C19   1.086941 S    
N3    O16   1.301020 A    
N2    H6    1.045168 S    
C8    H1    1.087047 S    
C15   N3    1.441323 S    
Zn3   O8    1.910536 S    
C14   C16   1.470299 S    
C8    C9    1.349961 D    
Zn1   O3    1.923301 S    
Zn4   O2    1.926414 S    
Zn2   O4    1.924577 S    
C18   N5    1.443889 S    
C7    C11   1.205132 T    
Zn4   O1    1.922775 S    
Zn3   O1    1.929715 S    
