data_mof_unit_20821.cif
_audit_creation_date              2012-12-11T14:56:21-0500
_audit_creation_method            fapswitch 2.2
_symmetry_space_group_name_H-M    P1
_symmetry_Int_Tables_number       1
_space_group_crystal_system       triclinic
_cell_length_a                    10.538163
_cell_length_b                    10.700896
_cell_length_c                    17.100111
_cell_angle_alpha                 80.314323
_cell_angle_beta                  89.790453
_cell_angle_gamma                 119.400238
_cell_volume                      1647.67374181

loop_
_atom_site_label
_atom_site_type_symbol
_atom_type_description
_atom_site_fract_x
_atom_site_fract_y
_atom_site_fract_z
_atom_type_partial_charge
C1    C     C_R   0.222082 0.853945 0.128582 0.550085
C2    C     C_1   0.683910 0.400692 0.709904 -0.056744
C3    C     C_R   0.627240 0.715804 0.804156 -0.128444
C4    C     C_R   0.636424 0.280194 0.086204 0.547242
C5    C     C_R   0.614247 0.699370 0.726159 -0.144514
C6    C     C_R   0.668014 0.822775 0.664712 0.027132
C7    C     C_R   0.739409 0.963426 0.681419 -0.150796
C8    C     C_R   0.747562 0.979930 0.760153 -0.112795
C9    C     C_R   0.687473 0.855497 0.821580 0.076550
C10   C     C_R   0.080992 0.883315 0.789652 0.260063
C11   C     C_R   0.059645 0.873426 0.710716 -0.115089
C12   C     C_R   0.798944 0.421327 0.263195 -0.130300
C13   C     C_R   0.114612 0.802268 0.671474 -0.011229
C14   C     C_R   0.173471 0.723107 0.713511 -0.157392
C15   C     C_R   0.191103 0.727890 0.793271 -0.177526
C16   C     C_R   0.643413 0.855922 0.124331 0.556061
C17   C     C_R   0.151772 0.813804 0.830388 0.040527
C18   C     C_R   0.711237 0.772803 0.353451 0.560976
C19   C     C_R   0.689558 0.396875 0.394360 0.550708
C20   C     C_R   0.103908 0.810442 0.359221 0.547659
C21   C     C_R   0.677093 0.800485 0.585105 0.546913
C22   C     C_R   0.716919 0.445383 0.626068 0.562315
C23   C     C_R   0.789090 0.408046 0.184627 -0.134593
C24   C     C_R   0.090354 0.798791 0.589124 0.548479
C25   C     C_R   0.216743 0.858582 0.902198 0.571745
C26   C     C_R   0.640203 0.290212 0.861800 0.545924
C27   C     C_R   0.647039 0.867508 0.899123 0.558298
C28   C     C_R   0.525358 0.305201 0.205168 -0.124951
C29   C     C_R   0.535640 0.320450 0.284141 -0.134589
C30   C     C_R   0.671696 0.371901 0.314045 0.030002
C31   C     C_3   0.103581 0.106747 0.792613 -0.094298
C32   C     C_R   0.651625 0.342166 0.156583 0.028233
C33   C     C_1   0.684966 0.832018 0.201781 -0.030084
C34   C     C_1   0.703346 0.807730 0.270428 -0.033004
C35   C     C_1   0.180086 0.825445 0.211149 -0.043742
C36   C     C_1   0.151118 0.819847 0.279749 -0.043761
C37   C     C_1   0.661536 0.356839 0.780389 -0.054914
Cr1   Cr    Cr6+3 0.402240 0.783890 0.019450 1.023095
Cr2   Cr    Cr6+3 0.382360 0.097900 0.991800 1.027738
Cr3   Cr    Cr6+3 0.715380 0.118170 0.988700 1.032961
Cr4   Cr    Cr6+3 0.936650 0.882420 0.465510 1.021191
Cr5   Cr    Cr6+3 0.605770 0.565620 0.493360 1.020279
Cr6   Cr    Cr6+3 0.921340 0.550490 0.496380 1.016224
H1    H     H_    0.417805 0.254868 0.184096 0.145522
H2    H     H_    0.792843 0.088893 0.772833 0.138970
H3    H     H_    0.786621 0.059161 0.633891 0.133431
H4    H     H_    0.064051 0.125816 0.734144 0.100361
H5    H     H_    0.224607 0.154116 0.785504 0.134883
H6    H     H_    0.079540 0.166531 0.832021 0.140434
H7    H     H_    0.000410 0.922366 0.679898 0.148746
H8    H     H_    0.209443 0.661957 0.684273 0.138215
H9    H     H_    0.245774 0.673511 0.823905 0.149670
H10   H     H_    0.437908 0.288233 0.322190 0.135360
H11   H     H_    0.906749 0.470073 0.284108 0.144455
H12   H     H_    0.887740 0.439920 0.147468 0.136898
H13   H     H_    0.580509 0.618969 0.851037 0.126080
H14   H     H_    0.564476 0.589856 0.713886 0.129856
O1    O     O_R   0.521780 0.757110 0.108900 -0.506591
O2    O     O_R   0.805020 0.410040 0.421340 -0.515095
O3    O     O_R   0.049240 0.685450 0.403290 -0.501845
O4    O     O_R   0.275160 0.783810 0.101120 -0.495819
O5    O     O_R   0.077520 0.903010 0.551800 -0.521225
O6    O     O_R   0.802980 0.872780 0.546830 -0.504803
O7    O     O_R   0.578090 0.681300 0.569920 -0.523218
O8    O     O_R   0.608530 0.436370 0.586530 -0.496179
O9    O     O_R   0.798770 0.401880 0.597100 -0.504998
O10   O     O_R   0.043450 0.677890 0.566230 -0.511278
O11   O     O_3   0.821250 0.666180 0.485090 -0.299465
O12   O     O_R   0.513330 0.228330 0.898660 -0.507526
O13   O     O_R   0.237900 0.972600 0.090980 -0.510949
O14   O     O_R   0.511190 0.220540 0.061620 -0.511046
O15   O     O_R   0.736920 0.257720 0.063840 -0.515640
O16   O     O_R   0.710450 0.984050 0.081720 -0.490344
O17   O     O_R   0.524090 0.765520 0.933110 -0.530604
O18   O     O_R   0.277300 0.791600 0.938160 -0.520809
O19   O     O_R   0.240210 0.981010 0.915190 -0.476833
O20   O     O_3   0.029890 0.956551 0.828263 -0.554753
O21   O     O_R   0.739230 0.266130 0.888050 -0.514468
O22   O     O_R   0.712580 0.991850 0.918770 -0.500682
O23   O     O_3   0.499990 0.999980 0.999980 -0.254598
O24   O     O_R   0.083770 0.911170 0.376030 -0.510844
O25   O     O_R   0.808770 0.880340 0.383890 -0.484962
O26   O     O_R   0.584340 0.689460 0.394160 -0.498242
O27   O     O_R   0.614320 0.443940 0.423590 -0.511700

loop_
_geom_bond_atom_site_label_1
_geom_bond_atom_site_label_2
_ccdc_geom_bond_type
C35   C36   T    
C7    C8    A    
C12   C23   A    
C1    C35   S    
C26   O21   A    
Cr1   O23   S    
C28   C29   A    
C27   O22   A    
C5    C6    A    
C10   C17   A    
Cr3   O16   S    
C8    H2    S    
C22   O9    A    
C21   O7    A    
C24   O10   A    
Cr1   O1    S    
C8    C9    A    
C2    C22   S    
Cr5   O8    S    
Cr3   O23   S    
C31   O20   S    
C20   O3    A    
C27   O17   A    
Cr6   O2    S    
Cr1   O4    S    
C31   H4    S    
C13   C14   A    
Cr5   O11   S    
Cr4   O5    S    
C31   H6    S    
C10   O20   S    
C33   C34   T    
Cr4   O11   S    
Cr1   O18   S    
C16   O16   A    
C7    H3    S    
C28   C32   A    
Cr5   O27   S    
Cr6   O11   S    
C19   O2    A    
Cr2   O19   S    
C6    C21   S    
C28   H1    S    
C13   C24   S    
C25   O18   A    
C22   O8    A    
C29   C30   A    
C3    C9    A    
C16   C33   S    
C3    H13   S    
C14   H8    S    
Cr4   O24   S    
C18   O26   A    
Cr2   O12   S    
Cr3   O22   S    
C16   O1    A    
C15   H9    S    
C18   C34   S    
C4    C32   S    
Cr6   O3    S    
C31   H5    S    
Cr3   O21   S    
Cr4   O6    S    
C19   O27   A    
Cr5   O7    S    
C4    O15   A    
C9    C27   S    
Cr1   O17   S    
C15   C17   A    
C24   O5    A    
Cr3   O15   S    
C12   C30   A    
Cr5   O26   S    
C3    C5    A    
C1    O4    A    
C26   C37   S    
C23   H12   S    
C6    C7    A    
C1    O13   A    
C5    H14   S    
C25   O19   A    
C17   C25   S    
Cr2   O23   S    
C11   H7    S    
C23   C32   A    
C11   C13   A    
C2    C37   T    
C29   H10   S    
Cr6   O9    S    
Cr4   O25   S    
C18   O25   A    
Cr2   O13   S    
C21   O6    A    
C10   C11   A    
C20   C36   S    
Cr6   O10   S    
C26   O12   A    
Cr2   O14   S    
C14   C15   A    
C20   O24   A    
C19   C30   S    
C4    O14   A    
C12   H11   S    
