data_mof_unit_59250.cif
_audit_creation_date              2012-12-10T18:12:41-0500
_audit_creation_method            fapswitch 2.2
_symmetry_space_group_name_H-M    P1
_symmetry_Int_Tables_number       1
_space_group_crystal_system       triclinic
_cell_length_a                    12.737516
_cell_length_b                    13.003318
_cell_length_c                    15.69776
_cell_angle_alpha                 92.995934
_cell_angle_beta                  103.354135
_cell_angle_gamma                 82.025908
_cell_volume                      2504.70583522

loop_
_atom_site_label
_atom_site_type_symbol
_atom_type_description
_atom_site_fract_x
_atom_site_fract_y
_atom_site_fract_z
_atom_type_partial_charge
C1    C     C_R   0.439322 0.691230 0.483896 0.882950
C2    C     C_R   0.593579 0.199990 0.481859 -0.278488
C3    C     C_R   0.296424 0.846049 0.468316 0.475141
C4    C     C_R   0.502157 0.500293 0.661945 0.893016
C5    C     C_R   0.269390 0.953914 0.463172 -0.301617
C6    C     C_R   0.346241 0.016227 0.454775 -0.190102
C7    C     C_R   0.450009 0.972222 0.443256 0.145567
C8    C     C_R   0.475003 0.863519 0.440140 -0.011080
C9    C     C_R   0.534281 0.033188 0.445299 0.023925
C10   C     C_R   0.643761 0.986101 0.457538 -0.042408
C11   C     C_R   0.661628 0.880611 0.435147 -0.217220
C12   C     C_3   0.510934 0.499131 0.919023 -0.027305
C13   C     C_R   0.575728 0.821689 0.420529 -0.147649
C14   C     C_R   0.513425 0.140080 0.438153 0.362480
C15   C     C_R   0.702220 0.154095 0.504949 -0.244675
C16   C     C_R   0.559962 0.308710 0.502022 0.910736
C17   C     C_R   0.401691 0.800731 0.460881 -0.174951
C18   C     C_R   0.087734 0.359287 0.359951 0.024914
C19   C     C_R   0.800675 0.630893 0.604916 -0.140786
C20   C     C_R   0.904074 0.663086 0.625201 0.402860
C21   C     C_R   0.983031 0.614964 0.582550 -0.171854
C22   C     C_R   0.960502 0.534790 0.519310 -0.142274
C23   C     C_3   0.472882 0.412346 0.017429 0.406305
C24   C     C_R   0.853593 0.505780 0.499487 0.161128
C25   C     C_R   0.040498 0.482579 0.475370 -0.016420
C26   C     C_R   0.010462 0.410595 0.405435 0.097764
C27   C     C_R   0.905028 0.388090 0.384071 -0.389680
C28   C     C_R   0.498001 0.499644 0.338179 0.874911
C29   C     C_R   0.830227 0.427061 0.433262 0.468674
C30   C     C_R   0.150622 0.497289 0.498956 -0.008773
C31   C     C_R   0.194202 0.379224 0.387415 -0.004489
C32   C     C_3   0.437477 0.579490 0.017382 0.408472
C33   C     C_3   0.540819 0.588621 0.985137 0.040404
C34   C     C_3   0.502032 0.499548 0.084091 0.040659
C35   C     C_1   0.507751 0.499832 0.751950 -0.179996
C36   C     C_1   0.494259 0.499031 0.248661 -0.167641
C37   C     C_3   0.405620 0.492106 0.950265 -0.326761
C38   C     C_3   0.571015 0.689833 0.957235 -0.401096
C39   C     C_3   0.596849 0.766918 0.034069 -0.331348
C40   C     C_3   0.614757 0.870838 0.002591 -0.869404
C41   C     C_3   0.062142 0.281519 0.284784 -0.439618
C42   C     C_3   0.059948 0.173729 0.319173 -0.322261
C43   C     C_3   0.029893 0.096183 0.244112 -0.837724
C44   C     C_3   0.714725 0.515365 0.118789 -0.399488
C45   C     C_3   0.577241 0.417166 0.985277 0.042017
C46   C     C_3   0.809886 0.519553 0.075182 -0.350186
C47   C     C_3   0.910746 0.545002 0.142419 -0.852831
C48   C     C_3   0.650240 0.322981 0.958840 -0.395588
C49   C     C_3   0.701196 0.250258 0.035531 -0.342988
C50   C     C_3   0.766256 0.153173 0.005672 -0.878688
C51   C     C_3   0.607088 0.506615 0.052196 -0.003123
C52   C     C_1   0.511033 0.499325 0.827915 -0.032116
C53   C     C_1   0.495467 0.499120 0.173612 0.053104
C54   C     C_R   0.729359 0.048016 0.488254 0.444207
H1    H     H_    0.324506 0.098860 0.462441 0.207437
H2    H     H_    0.765986 0.200406 0.534989 0.212292
H3    H     H_    0.740359 0.842855 0.427937 0.150999
H4    H     H_    0.683518 0.859941 0.969091 0.262023
H5    H     H_    0.540025 0.906275 0.956679 0.266022
H6    H     H_    0.634463 0.924770 0.059528 0.257798
H7    H     H_    0.528845 0.780251 0.068351 0.259300
H8    H     H_    0.671887 0.735484 0.081414 0.224222
H9    H     H_    0.642006 0.671631 0.926695 0.196798
H10   H     H_    0.501211 0.725606 0.906634 0.206390
H11   H     H_    0.435496 0.243818 0.354377 0.341233
H12   H     H_    0.190551 0.990596 0.471424 0.156812
H13   H     H_    0.154232 0.828935 0.488324 0.335301
H14   H     H_    0.947262 0.121763 0.203989 0.253564
H15   H     H_    0.089701 0.088955 0.201941 0.272299
H16   H     H_    0.030254 0.018812 0.271037 0.256439
H17   H     H_    0.141655 0.145346 0.359452 0.236345
H18   H     H_    0.000351 0.177523 0.361279 0.232526
H19   H     H_    0.984588 0.308779 0.238256 0.198576
H20   H     H_    0.125347 0.274775 0.245562 0.214281
H21   H     H_    0.333755 0.699530 0.982024 0.337556
H22   H     H_    0.865612 0.767860 0.709442 0.326996
H23   H     H_    0.591171 0.742279 0.397996 0.175618
H24   H     H_    0.733745 0.327582 0.371677 0.309901
H25   H     H_    0.895131 0.623901 0.171295 0.262684
H26   H     H_    0.933356 0.487613 0.195589 0.260542
H27   H     H_    0.979940 0.542917 0.110131 0.261717
H28   H     H_    0.829780 0.443439 0.043364 0.225288
H29   H     H_    0.788211 0.579736 0.024359 0.231066
H30   H     H_    0.703694 0.586124 0.160169 0.202040
H31   H     H_    0.733513 0.448079 0.162998 0.191706
H32   H     H_    0.712631 0.109738 0.954640 0.267315
H33   H     H_    0.833527 0.174722 0.978932 0.268096
H34   H     H_    0.256049 0.343213 0.354475 0.164591
H35   H     H_    0.801643 0.101684 0.062202 0.249908
H36   H     H_    0.756580 0.290613 0.087423 0.216940
H37   H     H_    0.636670 0.226062 0.064112 0.259724
H38   H     H_    0.599801 0.279795 0.905322 0.203209
H39   H     H_    0.715130 0.350491 0.932738 0.199698
H40   H     H_    0.422206 0.281289 0.982111 0.333205
H41   H     H_    0.846020 0.933323 0.519134 0.340979
H42   H     H_    0.880595 0.333157 0.331726 0.154675
H43   H     H_    0.182422 0.548958 0.551492 0.146483
H44   H     H_    0.737917 0.667412 0.636851 0.143646
H45   H     H_    0.060763 0.643745 0.599096 0.174600
H46   H     H_    0.323898 0.486161 0.907640 0.174458
N1    N     N_R   0.222180 0.444680 0.455580 -0.122465
N2    N     N_R   0.776980 0.554790 0.543960 -0.122559
O1    O     O_R   0.366730 0.627160 0.478790 -0.539895
O2    O     O_3   0.223187 0.784738 0.484791 -0.756960
O3    O     O_3   0.364913 0.662843 0.037798 -0.755186
O4    O     O_3   0.930270 0.741606 0.685718 -0.757415
O5    O     O_3   0.737012 0.382294 0.418400 -0.725134
O6    O     O_3   0.436710 0.321939 0.037815 -0.761450
O7    O     O_3   0.838325 0.008533 0.508603 -0.764052
O8    O     O_R   0.544830 0.662520 0.507160 -0.640038
O9    O     O_R   0.410960 0.482330 0.609040 -0.608945
O10   O     O_R   0.589060 0.517690 0.637410 -0.614847
O11   O     O_R   0.455170 0.337480 0.492840 -0.601950
O12   O     O_R   0.633270 0.372840 0.521210 -0.542027
O13   O     O_R   0.410940 0.482310 0.362590 -0.625772
O14   O     O_R   0.589040 0.517670 0.390960 -0.569734
O15   O     O_3   0.419026 0.182774 0.381859 -0.781490
Zn1   Zn    Zn3+2 0.381080 0.476390 0.481050 0.980138
Zn2   Zn    Zn3+2 0.618920 0.523610 0.518950 0.967882

loop_
_geom_bond_atom_site_label_1
_geom_bond_atom_site_label_2
_ccdc_geom_bond_type
C3    O2    S    
C8    C13   A    
C23   C45   S    
C27   C29   A    
C41   C42   S    
C19   C20   A    
C18   C26   A    
C47   H25   S    
C6    H1    S    
C16   O11   A    
C7    C8    A    
C30   H43   S    
H40   O6    S    
C26   C27   A    
O9    Zn1   S    
C40   H6    S    
N1    Zn1   S    
C31   N1    A    
C38   C39   S    
C21   H45   S    
C19   N2    A    
C45   C51   S    
C12   C37   S    
C24   C29   A    
C36   C53   T    
C28   O14   A    
C41   H20   S    
C46   H28   S    
C43   H14   S    
C22   C25   A    
C2    C16   S    
C9    C10   A    
C49   H36   S    
C38   H10   S    
O12   Zn2   S    
O13   Zn1   S    
C4    O10   A    
C4    C35   S    
C43   H15   S    
C40   H5    S    
C21   C22   A    
C27   H42   S    
C47   H26   S    
C49   H37   S    
C10   C54   A    
C12   C52   S    
C19   H44   S    
C44   C46   S    
H13   O2    S    
C20   O4    S    
C39   H7    S    
C13   H23   S    
C40   H4    S    
C48   H39   S    
C15   C54   A    
H41   O7    S    
C18   C41   S    
C39   C40   S    
C12   C45   S    
C3    C5    A    
C25   C26   A    
C23   C37   S    
O11   Zn1   S    
C54   O7    S    
H24   O5    S    
C32   C34   S    
C9    C14   A    
C28   O13   A    
C1    O8    A    
C50   H35   S    
C23   C34   S    
C42   H18   S    
C34   C51   S    
C32   C37   S    
C2    C15   A    
C50   H33   S    
C44   C51   S    
C48   C49   S    
C4    O9    A    
H21   O3    S    
C43   H16   S    
C32   O3    S    
C22   C24   A    
O1    Zn1   S    
C42   C43   S    
C44   H31   S    
C38   H9    S    
C45   C48   S    
C25   C30   A    
C7    C9    A    
C39   H8    S    
C1    O1    A    
C46   C47   S    
H22   O4    S    
C31   H34   S    
C33   C38   S    
C5    H12   S    
C44   H30   S    
C16   O12   A    
O8    Zn2   S    
O10   Zn2   S    
C6    C7    A    
C33   C51   S    
C1    C17   S    
C8    C17   A    
O14   Zn2   S    
C32   C33   S    
C15   H2    S    
C11   C13   A    
C5    C6    A    
C23   O6    S    
C30   N1    A    
C42   H17   S    
C3    C17   A    
C24   N2    A    
C47   H27   S    
C2    C14   A    
C10   C11   A    
C50   H32   S    
C41   H19   S    
C46   H29   S    
C20   C21   A    
C28   C36   S    
C34   C53   S    
C49   C50   S    
C48   H38   S    
C35   C52   T    
H11   O15   S    
C29   O5    S    
C14   O15   S    
C18   C31   A    
C12   C33   S    
C11   H3    S    
C37   H46   S    
N2    Zn2   S    
