data_mof_unit_35721.cif
_audit_creation_date              2012-12-10T17:29:17-0500
_audit_creation_method            fapswitch 2.2
_symmetry_space_group_name_H-M    P1
_symmetry_Int_Tables_number       1
_space_group_crystal_system       triclinic
_cell_length_a                    12.093246
_cell_length_b                    12.872749
_cell_length_c                    13.256679
_cell_angle_alpha                 85.703036
_cell_angle_beta                  112.146609
_cell_angle_gamma                 94.218725
_cell_volume                      1903.78656446

loop_
_atom_site_label
_atom_site_type_symbol
_atom_type_description
_atom_site_fract_x
_atom_site_fract_y
_atom_site_fract_z
_atom_type_partial_charge
C1    C     C_R   0.477387 0.299586 0.499899 0.886766
C2    C     C_R   0.522931 0.539964 0.959342 -0.031360
C3    C     C_R   0.518207 0.481996 0.872272 0.057188
C4    C     C_R   0.444212 0.508524 0.013213 -0.090140
C5    C     C_R   0.338898 0.446645 0.960057 -0.001658
C6    C     C_R   0.331476 0.393907 0.868928 -0.200330
C7    C     C_R   0.424708 0.405369 0.831254 -0.146158
C8    C     C_R   0.476868 0.524548 0.124219 0.371919
C9    C     C_R   0.279866 0.458898 0.113999 -0.283938
C10   C     C_R   0.601951 0.507088 0.822745 -0.114780
C11   C     C_R   0.536659 0.812112 0.502081 -0.081732
C12   C     C_R   0.564406 0.493362 0.707134 0.877002
C13   C     C_R   0.462721 0.187839 0.500038 -0.124493
C14   C     C_R   0.335331 0.030264 0.456167 0.128919
C15   C     C_R   0.349010 0.138407 0.464745 -0.209888
C16   C     C_R   0.564954 0.131353 0.532139 -0.220054
C17   C     C_R   0.555838 0.025154 0.522458 0.109189
C18   C     C_R   0.440494 0.974230 0.481842 0.057146
C19   C     C_R   0.433524 0.868092 0.468749 -0.288531
C20   C     C_R   0.649735 0.861903 0.543092 -0.327662
C21   C     C_R   0.660627 0.969572 0.552078 0.450176
C22   C     C_R   0.055952 0.634035 0.484540 -0.343028
C23   C     C_R   0.522598 0.700415 0.500470 0.911442
C24   C     C_R   0.163439 0.617711 0.473595 0.025611
C25   C     C_R   0.137310 0.436060 0.504881 -0.048055
C26   C     C_R   0.025232 0.449537 0.513301 0.058202
C27   C     C_R   0.979397 0.549227 0.492866 0.113018
C28   C     C_R   0.858971 0.560676 0.482303 0.164134
C29   C     C_R   0.849100 0.385812 0.551584 0.017117
C30   C     C_R   0.959494 0.367607 0.544302 -0.328203
C31   C     C_R   0.434853 0.504286 0.292392 0.946044
C32   C     C_R   0.251147 0.430468 0.007220 0.448181
C33   C     C_R   0.394590 0.500005 0.174299 -0.207397
C34   C     C_R   0.699053 0.577353 0.869660 -0.276582
C35   C     C_R   0.699382 0.639001 0.951214 -0.171822
C36   C     C_R   0.605504 0.628042 0.988365 0.472025
H1    H     H_    0.215364 0.441164 0.152338 0.202015
H2    H     H_    0.728973 0.817132 0.570756 0.147473
H3    H     H_    0.272182 0.185551 0.442015 0.153439
H4    H     H_    0.652478 0.171007 0.562983 0.208628
H5    H     H_    0.801879 0.322019 0.578272 0.155136
H6    H     H_    0.035639 0.713187 0.490435 0.147970
H7    H     H_    0.994029 0.290307 0.564733 0.160104
H8    H     H_    0.217809 0.684906 0.464184 0.136321
H9    H     H_    0.259343 0.337354 0.831668 0.150077
H10   H     H_    0.174166 0.359708 0.520891 0.117283
H11   H     H_    0.764270 0.596291 0.832325 0.183997
H12   H     H_    0.765907 0.702593 0.977348 0.168541
H13   H     H_    0.421067 0.356215 0.767125 0.141317
H14   H     H_    0.347453 0.827351 0.433793 0.155171
N1    N     N_R   0.798200 0.480260 0.519790 -0.123273
N2    N     N_R   0.201820 0.519740 0.480210 -0.097345
O1    O     O_R   0.579910 0.341070 0.505280 -0.633761
O2    O     O_R   0.388440 0.353740 0.492580 -0.635870
O3    O     O_R   0.643280 0.490550 0.663120 -0.612289
O4    O     O_R   0.451810 0.503220 0.650420 -0.605448
O5    O     O_R   0.611560 0.646260 0.507420 -0.656757
O6    O     O_R   0.420090 0.658930 0.494720 -0.635598
O7    O     O_R   0.548190 0.496780 0.349580 -0.568606
O8    O     O_R   0.356720 0.509450 0.336880 -0.631253
Zn1   Zn    Zn3+2 0.627850 0.491540 0.508480 0.947583
Zn2   Zn    Zn3+2 0.372150 0.508460 0.491520 0.939199
C37   C     C_3   0.211704 0.973969 0.420903 -0.437756
C38   C     C_3   0.106222 0.041238 0.406478 -0.344460
C39   C     C_3   0.989759 0.974777 0.379034 -0.876374
H15   H     H_    0.969633 0.934957 0.302140 0.264411
H16   H     H_    0.996225 0.915399 0.446048 0.254243
H17   H     H_    0.915126 0.025312 0.368225 0.262488
H18   H     H_    0.123020 0.080585 0.483126 0.223015
H19   H     H_    0.095206 0.101098 0.338895 0.227765
H20   H     H_    0.193483 0.937604 0.342370 0.202096
H21   H     H_    0.214191 0.910940 0.483802 0.202370
O9    O     O_3   0.771762 0.021394 0.591040 -0.797498
H22   H     H_    0.834727 0.970688 0.606313 0.331471
C40   C     C_3   0.794663 0.658066 0.423669 -0.391038
C41   C     C_3   0.813594 0.702746 0.319364 -0.378838
C42   C     C_3   0.730818 0.792300 0.266994 -0.748245
H23   H     H_    0.635699 0.764582 0.243296 0.296504
H24   H     H_    0.749330 0.855055 0.325206 0.236662
H25   H     H_    0.746400 0.825731 0.193530 0.275202
H26   H     H_    0.904319 0.736180 0.333889 0.212452
H27   H     H_    0.796329 0.640921 0.260736 0.271274
H28   H     H_    0.699410 0.635709 0.391223 0.297318
H29   H     H_    0.814967 0.719912 0.482814 0.180247
O10   O     O_3   0.139488 0.383817 0.954565 -0.760718
H30   H     H_    0.118180 0.394452 0.874861 0.328866
O11   O     O_3   0.593209 0.552824 0.187787 -0.749376
H31   H     H_    0.646448 0.511289 0.166889 0.332535
O12   O     O_3   0.591855 0.708705 0.044673 -0.767084
H32   H     H_    0.506994 0.708329 0.036645 0.340143

loop_
_geom_bond_atom_site_label_1
_geom_bond_atom_site_label_2
_ccdc_geom_bond_type
C36   O12   S    
O6    Zn2   S    
C23   O6    A    
O11   H31   S    
C24   N2    A    
C6    H9    S    
O9    H22   S    
C14   C18   A    
C35   C36   A    
N1    Zn1   S    
C4    C8    A    
C42   H23   S    
C11   C19   A    
C26   C27   A    
C18   C19   A    
C3    C7    A    
C5    C6    A    
C28   N1    A    
C40   H29   S    
C14   C37   S    
C21   O9    S    
O8    Zn2   S    
C34   C35   A    
C31   O7    A    
C1    O1    A    
C9    C32   A    
O1    Zn1   S    
C16   C17   A    
C39   H16   S    
C31   C33   S    
C38   H19   S    
C5    C32   A    
C9    C33   A    
C35   H12   S    
C42   H24   S    
C11   C20   A    
O7    Zn1   S    
C41   C42   S    
C7    H13   S    
C41   H27   S    
O2    Zn2   S    
C25   C26   A    
O10   H30   S    
C17   C21   A    
C31   O8    A    
C2    C4    A    
C40   C41   S    
C29   C30   A    
C20   H2    S    
C39   H17   S    
C9    H1    S    
C17   C18   A    
C10   C34   A    
C38   H18   S    
C20   C21   A    
C15   H3    S    
C12   O4    A    
C10   C12   S    
C16   H4    S    
C1    O2    A    
C37   H20   S    
C26   C30   A    
C22   C27   A    
C13   C15   A    
C24   H8    S    
O4    Zn2   S    
C30   H7    S    
C1    C13   S    
C29   N1    A    
C42   H25   S    
C2    C36   A    
C23   O5    A    
C29   H5    S    
C4    C5    A    
C41   H26   S    
O5    Zn1   S    
C6    C7    A    
C8    O11   S    
C38   C39   S    
C2    C3    A    
C25   N2    A    
C3    C10   A    
N2    Zn2   S    
C19   H14   S    
C40   H28   S    
C22   H6    S    
C32   O10   S    
O3    Zn1   S    
C11   C23   S    
C22   C24   A    
C8    C33   A    
C12   O3    A    
C37   C38   S    
C37   H21   S    
C39   H15   S    
C13   C16   A    
C27   C28   A    
C14   C15   A    
C34   H11   S    
O12   H32   S    
C28   C40   S    
C25   H10   S    
