data_mof_unit_27940.cif
_audit_creation_date              2012-12-11T15:26:48-0500
_audit_creation_method            fapswitch 2.2
_symmetry_space_group_name_H-M    P1
_symmetry_Int_Tables_number       1
_space_group_crystal_system       triclinic
_cell_length_a                    8.38568
_cell_length_b                    15.023657
_cell_length_c                    19.332424
_cell_angle_alpha                 97.130342
_cell_angle_beta                  93.964267
_cell_angle_gamma                 98.473462
_cell_volume                      2380.84907327

loop_
_atom_site_label
_atom_site_type_symbol
_atom_type_description
_atom_site_fract_x
_atom_site_fract_y
_atom_site_fract_z
_atom_type_partial_charge
Ba1   Ba    Ba6+2 0.161750 0.544670 0.467760 1.789421
Ba2   Ba    Ba6+2 0.648430 0.455320 0.532180 1.754829
C1    C     C_3   0.363100 0.736839 0.199596 -0.277126
C2    C     C_3   0.405505 0.720615 0.274687 0.416773
C3    C     C_3   0.568832 0.730382 0.637601 0.278754
C4    C     C_3   0.636509 0.829900 0.660978 -0.355430
C5    C     C_3   0.841568 0.209553 0.676193 0.346610
C6    C     C_3   0.822956 0.114369 0.696657 -0.287990
C7    C     C_3   0.311556 0.200041 0.704697 0.246398
C8    C     C_3   0.352613 0.166561 0.774193 0.515229
C9    C     C_R   0.662906 0.822419 0.436586 -0.067437
C10   C     C_R   0.892555 0.788874 0.511526 -0.026122
C11   C     C_R   0.070959 0.234477 0.518498 -0.251704
C12   C     C_3   0.914794 0.769221 0.246163 0.219720
C13   C     C_R   0.163630 0.172235 0.541918 -0.006854
C14   C     C_R   0.100952 0.079305 0.534863 -0.110617
C15   C     C_R   0.943376 0.045435 0.502741 0.019738
C16   C     C_R   0.852928 0.110291 0.476989 -0.085793
C17   C     C_R   0.876559 0.948972 0.491795 -0.010153
C18   C     C_R   0.730092 0.918083 0.446798 -0.143876
C19   C     C_R   0.656282 0.986004 0.415982 0.346705
C20   C     C_R   0.705810 0.077636 0.439141 -0.044586
C21   C     C_R   0.950508 0.883273 0.524953 -0.147925
C22   C     C_R   0.756989 0.757590 0.462645 0.159108
C23   C     C_3   0.997288 0.837069 0.201775 0.217897
C24   C     C_R   0.916615 0.205904 0.484451 0.056930
C25   C     C_R   0.624342 0.495569 0.277035 -0.084962
C26   C     C_R   0.457469 0.474791 0.266282 0.000319
C27   C     C_R   0.387660 0.486867 0.200283 -0.174034
C28   C     C_R   0.486426 0.526062 0.151002 0.008657
C29   C     C_R   0.649975 0.565260 0.173905 -0.179761
C30   C     C_R   0.716608 0.553697 0.240255 0.047787
C31   C     C_R   0.477296 0.589824 0.035127 -0.072165
C32   C     C_R   0.427923 0.580823 0.963331 -0.063710
C33   C     C_R   0.322960 0.503247 0.929633 0.043593
C34   C     C_3   0.746318 0.318931 0.311040 0.249072
C35   C     C_R   0.265142 0.436465 0.970844 -0.048462
C36   C     C_R   0.314145 0.445524 0.042575 -0.056323
C37   C     C_R   0.422535 0.521824 0.075872 0.049377
C38   C     C_R   0.120255 0.446107 0.823907 -0.089890
C39   C     C_R   0.076305 0.434820 0.751525 0.013876
C40   C     C_R   0.339859 0.514999 0.733095 0.026522
C41   C     C_R   0.384702 0.526063 0.805423 -0.097292
C42   C     C_R   0.275826 0.491256 0.852068 0.009676
C43   C     C_R   0.187932 0.467108 0.706633 -0.275525
C44   C     C_3   0.709569 0.279272 0.234180 -0.301430
C45   C     C_3   0.050184 0.659100 0.683241 0.293845
C46   C     C_3   0.072933 0.685353 0.762271 -0.327105
C47   C     C_3   0.197526 0.281189 0.264454 0.201426
C48   C     C_3   0.151372 0.177622 0.254658 0.112434
H1    H     H_    0.347881 0.651238 0.281484 0.049307
H2    H     H_    0.619025 0.216627 0.228834 0.200464
H3    H     H_    0.659860 0.328926 0.204149 0.055323
H4    H     H_    0.820791 0.262345 0.211269 0.118112
H5    H     H_    0.164465 0.640558 0.664700 -0.007128
H6    H     H_    0.951393 0.600067 0.670592 0.042070
H7    H     H_    0.175122 0.742262 0.776466 0.167759
H8    H     H_    0.099496 0.626945 0.788279 0.039781
H9    H     H_    0.960744 0.706768 0.781461 0.135669
H10   H     H_    0.265156 0.302545 0.219914 0.026828
H11   H     H_    0.082516 0.310139 0.263704 0.026887
H12   H     H_    0.244328 0.696961 0.178227 0.102208
H13   H     H_    0.024503 0.158524 0.231044 0.138909
H14   H     H_    0.159747 0.150743 0.305643 0.101675
H15   H     H_    0.539188 0.725845 0.281596 0.012828
H16   H     H_    0.455476 0.715027 0.165742 0.072624
H17   H     H_    0.668839 0.696547 0.617628 0.044878
H18   H     H_    0.470658 0.726032 0.595115 0.077215
H19   H     H_    0.744412 0.836040 0.698987 0.157460
H20   H     H_    0.671988 0.863473 0.615111 0.038821
H21   H     H_    0.543456 0.864423 0.686331 0.205788
H22   H     H_    0.360733 0.809925 0.196616 0.207668
H23   H     H_    0.749874 0.209938 0.631952 0.094061
H24   H     H_    0.964644 0.226361 0.658870 -0.083355
H25   H     H_    0.841694 0.064914 0.651399 0.064627
H26   H     H_    0.913493 0.111894 0.740758 0.189764
H27   H     H_    0.699820 0.095294 0.713196 0.191874
H28   H     H_    0.189635 0.164288 0.683079 -0.012228
H29   H     H_    0.310727 0.274623 0.714257 -0.017372
H30   H     H_    0.481424 0.192667 0.792669 0.066975
H31   H     H_    0.897842 0.804487 0.298594 0.034414
H32   H     H_    0.052956 0.904362 0.563376 0.088544
H33   H     H_    0.123659 0.305417 0.523216 0.067236
H34   H     H_    0.180600 0.034584 0.551822 0.071781
H35   H     H_    0.636691 0.124274 0.418221 0.133158
H36   H     H_    0.503667 0.562325 0.824877 0.072870
H37   H     H_    0.471984 0.635200 0.934360 0.087480
H38   H     H_    0.558900 0.650320 0.058479 0.092914
H39   H     H_    0.795556 0.737525 0.218913 0.007469
H40   H     H_    0.259515 0.464277 0.186839 0.093961
H41   H     H_    0.185226 0.375442 0.947442 0.133888
H42   H     H_    0.271340 0.390682 0.071372 0.089718
H43   H     H_    0.031480 0.421696 0.858012 0.088982
H44   H     H_    0.726537 0.600338 0.139835 0.072077
H45   H     H_    0.152859 0.459427 0.651008 0.046568
H46   H     H_    0.683578 0.477274 0.319859 -0.022201
H47   H     H_    0.115359 0.870947 0.229301 0.107002
H48   H     H_    0.020533 0.799868 0.151017 0.050062
H49   H     H_    0.631190 0.334221 0.331250 0.005544
H50   H     H_    0.842003 0.379364 0.315056 0.042558
O1    O     O_2   0.164990 0.721870 0.541490 -0.471499
O2    O     O_3   0.290236 0.311203 0.329182 -0.633190
O3    O     O_3   0.018984 0.705403 0.253382 -0.617650
O4    O     O_2   0.645300 0.278070 0.458480 -0.470892
O5    O     O_3   0.917280 0.391520 0.460790 -0.481595
O6    O     O_3   0.421200 0.332510 0.586090 -0.462409
O7    O     O_3   0.805554 0.255717 0.347841 -0.619362
O8    O     O_3   0.383620 0.545480 0.584560 -0.444676
O9    O     O_3   0.845920 0.377940 0.622610 -0.501938
O10   O     O_2   0.740697 0.433470 0.745461 -0.468295
O11   O     O_3   0.817254 0.271327 0.733848 -0.569433
O12   O     O_3   0.893010 0.608480 0.539150 -0.406810
O13   O     O_3   0.426680 0.454510 0.415380 -0.420694
O14   O     O_2   0.638220 0.542340 0.670930 -0.455428
O15   O     O_3   0.506661 0.691754 0.694612 -0.637087
O16   O     O_2   0.491285 0.174239 0.529499 -0.482399
O17   O     O_3   0.428681 0.181220 0.658822 -0.589364
O18   O     O_3   0.389100 0.667490 0.413860 -0.365746
O19   O     O_2   0.327877 0.827399 0.457583 -0.477661
O20   O     O_3   0.010717 0.733803 0.653036 -0.630736
O21   O     O_3   0.351118 0.785950 0.322552 -0.506136
O22   O     O_2   0.172070 0.457600 0.329050 -0.463582
O23   O     O_3   0.964370 0.622050 0.377340 -0.367714
O24   O     O_2   0.033160 0.541589 0.254774 -0.498578
P1    P     P_3+3 0.990670 0.707470 0.561860 1.039658
P2    P     P_3+3 0.340140 0.430100 0.338890 1.034934
P3    P     P_3+3 0.923044 0.608189 0.283388 1.018075
P4    P     P_3+3 0.819620 0.292520 0.438080 0.994031
P5    P     P_3+3 0.870759 0.381709 0.713804 0.982625
P6    P     P_3+3 0.437734 0.781865 0.407401 1.138844
P7    P     P_3+3 0.466305 0.573528 0.672538 0.977109
P8    P     P_3+3 0.373848 0.214256 0.578152 0.982868
Br1   Br    Br    0.286028 0.119233 0.191125 -0.441706
S1    S     S_3+6 0.880114 0.922702 0.183806 0.022591
O25   O     O_2   0.953276 0.971402 0.127436 -0.187388
O26   O     O_2   0.709188 0.880146 0.158459 -0.224443
O27   O     O_3   0.882434 0.998225 0.255979 -0.423469
H51   H     H_    0.935616 0.972641 0.294729 0.307433
Br2   Br    Br    0.219447 0.212721 0.844118 -0.547674
S2    S     S_3+6 0.321072 0.044874 0.765063 -0.019932
O28   O     O_2   0.402643 0.014980 0.827898 -0.190667
O29   O     O_2   0.143106 0.008601 0.760016 -0.287511
O30   O     O_3   0.400267 0.002516 0.692871 -0.541026
H52   H     H_    0.308698 0.987037 0.656081 0.331553
S3    S     S_3+6 0.684504 0.637872 0.439275 -0.084702
O31   O     O_2   0.564282 0.616857 0.491202 -0.296827
O32   O     O_2   0.616752 0.634267 0.365858 -0.472333
O33   O     O_3   0.778966 0.546055 0.433082 -0.436415
H53   H     H_    0.697308 0.492550 0.420575 0.339530
S4    S     S_3+6 0.547671 0.970896 0.332753 -0.033393
O34   O     O_2   0.596011 0.892329 0.288358 -0.273674
O35   O     O_2   0.368434 0.957776 0.339544 -0.304526
O36   O     O_3   0.594739 0.063060 0.292252 -0.414015
H54   H     H_    0.516992 0.103999 0.306604 0.341387

loop_
_geom_bond_atom_site_label_1
_geom_bond_atom_site_label_2
_ccdc_geom_bond_type
C4    H19   S    
Ba2   O9    S    
C21   H32   S    
C36   H42   S    
C7    O17   S    
O14   P7    D    
C17   C18   A    
C16   C24   A    
S2    O30   S    
C6    H26   S    
O21   P6    S    
C3    H17   S    
S1    O27   S    
S3    O31   D    
C46   H7    S    
C5    H23   S    
O15   P7    S    
O6    P8    S    
C10   C21   A    
Ba2   O12   S    
C31   C37   A    
C47   H10   S    
C8    S2    S    
C30   P3    S    
C26   C27   A    
C33   C35   A    
C31   H38   S    
Ba1   P1    S    
O7    P4    S    
C32   C33   A    
C22   S3    S    
Ba1   O12   S    
C3    C4    S    
Ba2   O13   S    
O30   H52   S    
C44   H2    S    
C9    C22   A    
C14   H34   S    
O19   P6    D    
C48   H14   S    
C44   H3    S    
O10   P5    D    
Ba1   Ba2   S    
C7    H29   S    
C20   H35   S    
O17   P8    S    
Ba1   O22   S    
O8    P7    S    
O11   P5    S    
C13   P8    S    
C29   C30   A    
C14   C15   A    
S4    O36   S    
O4    P4    D    
C28   C37   S    
O1    P1    D    
C34   C44   S    
C40   P7    S    
O3    P3    S    
C7    C8    S    
C38   H43   S    
Ba1   O18   S    
C19   C20   A    
C3    O15   S    
C34   O7    S    
C48   H13   S    
C25   H46   S    
Ba1   O13   S    
C35   C36   A    
C3    H18   S    
C27   H40   S    
S3    O32   D    
C26   P2    S    
C31   C32   A    
C5    H24   S    
C4    H21   S    
C9    C18   A    
C47   H11   S    
C35   H41   S    
C2    H1    S    
C5    C6    S    
S2    O28   D    
C47   O2    S    
C8    H30   S    
O20   P1    S    
S1    O26   D    
C10   P1    S    
Ba2   O6    S    
C6    H25   S    
C40   C43   A    
O22   P2    D    
C17   C21   A    
C41   C42   A    
Ba1   O23   S    
C12   H39   S    
C27   C28   A    
O18   P6    S    
C32   H37   S    
O23   P3    S    
C45   C46   S    
O16   P8    D    
Ba2   O4    S    
C28   C29   A    
C44   H4    S    
C15   C16   A    
C34   H50   S    
C24   P4    S    
C19   S4    S    
Ba1   P2    S    
C33   C42   S    
O12   P1    S    
O24   P3    D    
C23   H47   S    
C38   C39   A    
C11   C13   A    
O9    P5    S    
C6    H27   S    
S4    O35   D    
C11   C24   A    
C1    H16   S    
C40   C41   A    
C1    C2    S    
C43   H45   S    
C9    P6    S    
Ba1   O1    S    
S3    O33   S    
C46   H9    S    
C45   H5    S    
C1    H12   S    
C4    H20   S    
C10   C22   A    
C45   O20   S    
O5    P4    S    
C25   C30   A    
C16   C20   A    
C41   H36   S    
S2    O29   D    
O2    P2    S    
C48   Br1   S    
C23   S1    S    
C46   H8    S    
S1    O25   D    
O13   P2    S    
C29   H44   S    
O27   H51   S    
C11   H33   S    
Ba2   O5    S    
C1    H22   S    
C39   P5    S    
Ba2   O14   S    
C12   O3    S    
C36   C37   A    
C2    H15   S    
Ba2   O8    S    
C15   C17   A    
C5    O11   S    
C2    O21   S    
C34   H49   S    
C7    H28   S    
C12   C23   S    
Ba1   O8    S    
C23   H48   S    
C38   C42   A    
C18   C19   A    
C47   C48   S    
C8    Br2   S    
C25   C26   A    
C39   C43   A    
S4    O34   D    
C12   H31   S    
O36   H54   S    
O33   H53   S    
C13   C14   A    
Ba1   O5    S    
C45   H6    S    
Ba2   P4    S    
