data_mof_unit_39403.cif
_audit_creation_date              2012-10-26T21:32:59-0400
_audit_creation_method            fapswitch 2.2
_symmetry_space_group_name_H-M    P1
_symmetry_Int_Tables_number       1
_space_group_crystal_system       triclinic
_cell_length_a                    28.248137
_cell_length_b                    18.338495
_cell_length_c                    17.067021
_cell_angle_alpha                 90.358251
_cell_angle_beta                  60.849633
_cell_angle_gamma                 90.538351
_cell_volume                      7721.05729922

loop_
_atom_site_label
_atom_site_type_symbol
_atom_type_description
_atom_site_fract_x
_atom_site_fract_y
_atom_site_fract_z
_atom_type_partial_charge
C1    C     C_R   0.701894 0.268742 0.675734 0.880875
C2    C     C_R   0.921024 0.610683 0.572066 -0.215386
C3    C     C_R   0.074035 0.900353 0.933836 0.909909
C4    C     C_R   0.573741 0.600143 0.934304 0.911299
C5    C     C_R   0.426247 0.399873 0.065704 0.911570
C6    C     C_R   0.426041 0.599768 0.066119 0.909285
C7    C     C_R   0.574044 0.400353 0.933824 0.909573
C8    C     C_R   0.547362 0.002343 0.509344 0.026699
C9    C     C_R   0.453956 0.997501 0.488383 0.026751
C10   C     C_R   0.046658 0.502516 0.510809 0.026223
C11   C     C_R   0.953488 0.497601 0.489331 0.026702
C12   C     C_R   0.510477 0.061208 0.540976 0.043973
C13   C     C_R   0.976794 0.376908 0.422396 -0.213736
C14   C     C_R   0.490650 0.938435 0.457248 0.044114
C15   C     C_R   0.462678 0.057663 0.532755 0.047018
C16   C     C_R   0.538619 0.942153 0.465005 0.046192
C17   C     C_R   0.009876 0.561476 0.542035 0.044052
C18   C     C_R   0.990189 0.438569 0.458313 0.044031
C19   C     C_R   0.962121 0.557818 0.533738 0.047242
C20   C     C_R   0.038032 0.442330 0.466335 0.046802
C21   C     C_R   0.628927 0.943970 0.496460 0.026391
C22   C     C_R   0.372811 0.056347 0.500185 0.033630
C23   C     C_R   0.394519 0.933900 0.441698 0.048133
C24   C     C_R   0.023120 0.622996 0.578374 -0.215420
C25   C     C_R   0.606298 0.065613 0.557334 0.049344
C26   C     C_R   0.128011 0.444021 0.498465 0.024766
C27   C     C_R   0.872456 0.556346 0.500779 0.033376
C28   C     C_R   0.894332 0.433972 0.442130 0.048187
C29   C     C_R   0.105579 0.565987 0.558650 0.057563
C30   C     C_R   0.666824 0.939763 0.529387 -0.162506
C31   C     C_R   0.334926 0.060490 0.467135 -0.162504
C32   C     C_R   0.346034 0.933842 0.435588 -0.164682
C33   C     C_R   0.654676 0.065928 0.563736 -0.191027
C34   C     C_R   0.165983 0.439835 0.531209 -0.148018
C35   C     C_R   0.579718 0.889267 0.426455 -0.213810
C36   C     C_R   0.834771 0.560495 0.467369 -0.162433
C37   C     C_R   0.845961 0.433876 0.435733 -0.165183
C38   C     C_R   0.153840 0.566225 0.565327 -0.187150
C39   C     C_R   0.675511 0.000193 0.571742 0.021782
C40   C     C_R   0.327063 0.999928 0.423732 0.005930
C41   C     C_R   0.173698 0.500262 0.575067 0.011057
C42   C     C_R   0.826995 0.499947 0.423841 0.005928
C43   C     C_R   0.593641 0.003655 0.522071 0.076169
C44   C     C_R   0.407759 0.996304 0.475454 0.073705
C45   C     C_R   0.092789 0.503798 0.523866 0.073616
C46   C     C_R   0.421621 0.110602 0.571117 -0.215318
C47   C     C_R   0.907412 0.496351 0.476146 0.073769
C48   C     C_R   0.123449 0.390979 0.442457 -0.166768
C49   C     C_R   0.876931 0.609420 0.556860 -0.166163
C50   C     C_R   0.929627 0.374491 0.415375 -0.168736
C51   C     C_R   0.070184 0.625344 0.585674 -0.167070
C52   C     C_R   0.624086 0.890655 0.441012 -0.165446
C53   C     C_R   0.377461 0.109432 0.556076 -0.166624
C54   C     C_R   0.429795 0.874379 0.414865 -0.169243
C55   C     C_R   0.570659 0.124731 0.585143 -0.166399
C56   C     C_3   0.691734 0.993288 0.644994 -0.359760
C57   C     C_R   0.477107 0.876791 0.421505 -0.213743
C58   C     C_3   0.753377 0.995077 0.611937 -0.244730
C59   C     C_3   0.767800 0.045779 0.668663 -0.928253
C60   C     C_3   0.300624 0.004725 0.364026 -0.349196
C61   C     C_3   0.328857 0.956999 0.279053 -0.353538
C62   C     C_3   0.302723 0.965827 0.219684 -0.895761
C63   C     C_3   0.199997 0.496769 0.634909 -0.349888
C64   C     C_3   0.168143 0.446554 0.716215 -0.329259
C65   C     C_3   0.196083 0.441049 0.773205 -0.897963
C66   C     C_3   0.800644 0.504733 0.364002 -0.349452
C67   C     C_3   0.828985 0.457067 0.278997 -0.353440
C68   C     C_R   0.523608 0.122482 0.577828 -0.213781
C69   C     C_3   0.802894 0.465807 0.219552 -0.895768
C70   C     C_R   0.721190 0.266948 0.953494 0.116580
C71   C     C_R   0.279949 0.735118 0.045579 0.116874
C72   C     C_R   0.278568 0.266232 0.047057 0.116587
C73   C     C_R   0.298218 0.731482 0.324215 0.877163
C74   C     C_R   0.721274 0.734080 0.953036 0.116581
C75   C     C_R   0.221243 0.767153 0.953500 0.116747
C76   C     C_R   0.779901 0.234959 0.045584 0.116857
C77   C     C_R   0.779050 0.765367 0.046669 0.116742
C78   C     C_R   0.220733 0.235065 0.953480 0.117213
C79   C     C_R   0.745055 0.198303 0.944792 -0.180660
C80   C     C_R   0.256180 0.803834 0.054182 -0.182646
C81   C     C_R   0.255298 0.197074 0.053165 -0.185385
C82   C     C_R   0.744555 0.803243 0.946858 -0.185716
C83   C     C_R   0.245021 0.698463 0.944908 -0.180697
C84   C     C_R   0.298211 0.268518 0.324069 0.886301
C85   C     C_R   0.756071 0.303635 0.054255 -0.182645
C86   C     C_R   0.755783 0.696191 0.052833 -0.185162
C87   C     C_R   0.244001 0.304235 0.947351 -0.188245
C88   C     C_R   0.773827 0.182490 0.990286 -0.174630
C89   C     C_R   0.227373 0.819660 0.008712 -0.174364
C90   C     C_R   0.226918 0.181617 0.006776 -0.180066
C91   C     C_R   0.772906 0.818763 0.993279 -0.181135
C92   C     C_R   0.273796 0.682628 0.990387 -0.174590
C93   C     C_R   0.727266 0.319439 0.008780 -0.174322
C94   C     C_R   0.727421 0.680674 0.006418 -0.180655
C95   C     C_R   0.701780 0.731501 0.675929 0.890280
C96   C     C_R   0.272394 0.319691 0.993745 -0.179962
C97   C     C_R   0.643769 0.327509 0.945743 -0.204301
C98   C     C_R   0.356995 0.673835 0.053703 -0.204437
C99   C     C_R   0.356596 0.325808 0.054031 -0.208096
C100  C     C_R   0.643300 0.674376 0.946032 -0.208662
C101  C     C_R   0.143801 0.827632 0.945749 -0.203827
C102  C     C_R   0.856974 0.173771 0.053713 -0.204480
C103  C     C_R   0.856921 0.825252 0.053797 -0.208176
C104  C     C_R   0.142885 0.175121 0.946340 -0.208655
C105  C     C_R   0.616643 0.347373 0.898113 -0.064822
C106  C     C_R   0.201923 0.768815 0.675726 0.880862
C107  C     C_R   0.383738 0.653223 0.101666 -0.065029
C108  C     C_R   0.383824 0.346259 0.101389 -0.066851
C109  C     C_R   0.616130 0.653806 0.898627 -0.066455
C110  C     C_R   0.116657 0.847427 0.898122 -0.064734
C111  C     C_R   0.883727 0.153197 0.101671 -0.064979
C112  C     C_R   0.883971 0.846048 0.101314 -0.066918
C113  C     C_R   0.115897 0.154185 0.898774 -0.066582
C114  C     C_R   0.633259 0.321864 0.813082 -0.266422
C115  C     C_R   0.366997 0.678482 0.186858 -0.267047
C116  C     C_R   0.367207 0.321174 0.186466 -0.260742
C117  C     C_R   0.798207 0.231457 0.324219 0.875684
C118  C     C_R   0.632774 0.678833 0.813514 -0.261838
C119  C     C_R   0.133283 0.821925 0.813087 -0.266545
C120  C     C_R   0.866982 0.178457 0.186863 -0.267962
C121  C     C_R   0.867274 0.821121 0.186488 -0.260924
C122  C     C_R   0.132590 0.179130 0.813596 -0.263600
C123  C     C_R   0.679585 0.281385 0.770865 -0.051227
C124  C     C_R   0.320857 0.719382 0.228892 -0.051311
C125  C     C_R   0.320475 0.280773 0.229029 -0.052694
C126  C     C_R   0.679486 0.719281 0.770972 -0.054389
C127  C     C_R   0.179650 0.781539 0.770844 -0.051027
C128  C     C_R   0.798240 0.768462 0.324061 0.887794
C129  C     C_R   0.820826 0.219322 0.228905 -0.050491
C130  C     C_R   0.820611 0.780559 0.228972 -0.052882
C131  C     C_R   0.179252 0.219713 0.771109 -0.049183
C132  C     C_R   0.707767 0.260496 0.816951 -0.201407
C133  C     C_R   0.293103 0.741090 0.182409 -0.196016
C134  C     C_R   0.291884 0.259602 0.183289 -0.211422
C135  C     C_R   0.708031 0.740546 0.816747 -0.209958
C136  C     C_R   0.207874 0.760766 0.816906 -0.199953
C137  C     C_R   0.793047 0.240971 0.182437 -0.196055
C138  C     C_R   0.792183 0.759073 0.183080 -0.211726
C139  C     C_R   0.201730 0.231600 0.675954 0.887367
C140  C     C_R   0.207620 0.241311 0.817053 -0.211644
C141  C     C_R   0.690080 0.283884 0.905431 0.073183
C142  C     C_R   0.310909 0.717914 0.093814 0.070108
C143  C     C_R   0.309820 0.282619 0.094859 0.075764
C144  C     C_R   0.690059 0.717604 0.905209 0.075886
C145  C     C_R   0.190150 0.784097 0.905414 0.072004
C146  C     C_R   0.810861 0.217793 0.093835 0.069931
C147  C     C_R   0.810212 0.781921 0.094566 0.076109
C148  C     C_R   0.189561 0.218527 0.905595 0.074075
C149  C     C_R   0.690363 0.130187 0.538957 0.910933
C150  C     C_R   0.079197 0.389588 0.427677 -0.213251
C151  C     C_R   0.309521 0.870050 0.461994 0.891317
C152  C     C_R   0.305265 0.127278 0.475932 0.893141
C153  C     C_R   0.695084 0.872679 0.523370 0.910718
C154  C     C_R   0.190245 0.630210 0.539032 0.889358
C155  C     C_R   0.809504 0.370056 0.462026 0.892731
C156  C     C_R   0.805237 0.627292 0.475950 0.895031
C157  C     C_R   0.195203 0.372846 0.522829 0.896491
C158  C     C_R   0.073681 0.100232 0.934348 0.911346
C159  C     C_R   0.926283 0.899827 0.065679 0.911527
C160  C     C_R   0.926044 0.099768 0.066116 0.909098
H1    H     H_    0.154347 0.350548 0.407566 0.172752
H2    H     H_    0.921270 0.653338 0.615593 0.137894
H3    H     H_    0.001382 0.328605 0.400931 0.137377
H4    H     H_    0.998476 0.671237 0.600045 0.137702
H5    H     H_    0.579215 0.846456 0.383311 0.137619
H6    H     H_    0.421938 0.153291 0.614537 0.137713
H7    H     H_    0.501695 0.828493 0.399887 0.137379
H8    H     H_    0.498850 0.170594 0.600056 0.137208
H9    H     H_    0.710472 0.373440 0.015878 0.129246
H10   H     H_    0.290469 0.628561 0.983416 0.129030
H11   H     H_    0.288911 0.374039 0.988813 0.130916
H12   H     H_    0.846071 0.649899 0.591650 0.173929
H13   H     H_    0.710914 0.626316 0.011381 0.130945
H14   H     H_    0.210617 0.873681 0.015753 0.129274
H15   H     H_    0.790560 0.128455 0.983238 0.129078
H16   H     H_    0.789396 0.873131 0.988330 0.130789
H17   H     H_    0.210444 0.127246 0.011667 0.130911
H18   H     H_    0.740682 0.156202 0.903952 0.128323
H19   H     H_    0.260603 0.845924 0.094989 0.128568
H20   H     H_    0.259893 0.154446 0.092531 0.128786
H21   H     H_    0.739996 0.845823 0.907403 0.129076
H22   H     H_    0.240576 0.656344 0.904165 0.126405
H23   H     H_    0.922338 0.326781 0.384991 0.160251
H24   H     H_    0.760445 0.345718 0.095118 0.128580
H25   H     H_    0.760345 0.653616 0.092295 0.128769
H26   H     H_    0.239422 0.346835 0.907926 0.131491
H27   H     H_    0.629428 0.347222 0.013487 0.147423
H28   H     H_    0.371421 0.654286 0.985872 0.147418
H29   H     H_    0.371024 0.345105 0.986225 0.146732
H30   H     H_    0.628845 0.655136 0.013868 0.146751
H31   H     H_    0.129450 0.847331 0.013502 0.147513
H32   H     H_    0.871415 0.154232 0.985874 0.147517
H33   H     H_    0.871419 0.844419 0.985920 0.146723
H34   H     H_    0.077403 0.672956 0.616303 0.160095
H35   H     H_    0.128388 0.155960 0.014219 0.146709
H36   H     H_    0.612120 0.337954 0.777309 0.174934
H37   H     H_    0.387820 0.661786 0.222921 0.175388
H38   H     H_    0.388570 0.337674 0.222094 0.176883
H39   H     H_    0.611451 0.662251 0.777849 0.176959
H40   H     H_    0.112114 0.837942 0.777338 0.175007
H41   H     H_    0.887818 0.161793 0.222916 0.175168
H42   H     H_    0.888502 0.837880 0.222244 0.176728
H43   H     H_    0.111404 0.162286 0.777802 0.176927
H44   H     H_    0.744834 0.229454 0.782687 0.152144
H45   H     H_    0.654849 0.849972 0.406501 0.172722
H46   H     H_    0.256210 0.772501 0.216488 0.153897
H47   H     H_    0.254406 0.228740 0.217668 0.148291
H48   H     H_    0.745500 0.771429 0.782377 0.147986
H49   H     H_    0.244988 0.729833 0.782625 0.151162
H50   H     H_    0.756137 0.272345 0.216527 0.153891
H51   H     H_    0.754748 0.728113 0.217400 0.148197
H52   H     H_    0.245034 0.272315 0.782752 0.149999
H53   H     H_    0.754870 0.102206 0.666645 0.294046
H54   H     H_    0.747526 0.026889 0.739431 0.249707
H55   H     H_    0.812329 0.045807 0.642247 0.237337
H56   H     H_    0.346665 0.149971 0.590928 0.173650
H57   H     H_    0.767065 0.939826 0.617903 0.221920
H58   H     H_    0.776885 0.011092 0.540300 0.242236
H59   H     H_    0.671293 0.037328 0.695324 0.189273
H60   H     H_    0.674210 0.942040 0.683123 0.166939
H61   H     H_    0.305974 0.023350 0.197472 0.259377
H62   H     H_    0.323707 0.930484 0.159447 0.252966
H63   H     H_    0.259323 0.949391 0.256883 0.258416
H64   H     H_    0.372372 0.972778 0.240102 0.223573
H65   H     H_    0.326417 0.898477 0.296724 0.216994
H66   H     H_    0.256976 0.990031 0.403297 0.225681
H67   H     H_    0.422382 0.826645 0.384670 0.160158
H68   H     H_    0.303741 0.061294 0.339173 0.208708
H69   H     H_    0.199708 0.495788 0.798110 0.255649
H70   H     H_    0.171881 0.405169 0.831767 0.254627
H71   H     H_    0.237099 0.417260 0.733161 0.262930
H72   H     H_    0.126716 0.468677 0.758275 0.217142
H73   H     H_    0.163894 0.390765 0.694942 0.222888
H74   H     H_    0.243181 0.480961 0.595806 0.228239
H75   H     H_    0.200150 0.551615 0.662934 0.191345
H76   H     H_    0.806050 0.523334 0.197419 0.259346
H77   H     H_    0.823972 0.430543 0.159271 0.253034
H78   H     H_    0.577697 0.172107 0.616342 0.159359
H79   H     H_    0.759528 0.449223 0.256658 0.258462
H80   H     H_    0.872478 0.472962 0.240122 0.223683
H81   H     H_    0.826620 0.398545 0.296623 0.217016
H82   H     H_    0.757006 0.489968 0.403159 0.225697
H83   H     H_    0.803734 0.561308 0.339188 0.208701
H84   H     H_    0.078884 0.346970 0.384157 0.137601
O1    O     O_R   0.746490 0.236330 0.638080 -0.645955
O2    O     O_R   0.325830 0.813840 0.483730 -0.629088
O3    O     O_R   0.325830 0.186160 0.483730 -0.632343
O4    O     O_R   0.674170 0.813840 0.516270 -0.634957
O5    O     O_R   0.174170 0.686160 0.516270 -0.624432
O6    O     O_R   0.825830 0.313840 0.483730 -0.627734
O7    O     O_R   0.825830 0.686160 0.483730 -0.631646
O8    O     O_R   0.174170 0.313840 0.516270 -0.636719
O9    O     O_R   0.739960 0.127620 0.525000 -0.612593
O10   O     O_R   0.260040 0.872380 0.475000 -0.617883
O11   O     O_R   0.260040 0.127620 0.475000 -0.634077
O12   O     O_R   0.253510 0.763670 0.361920 -0.632840
O13   O     O_R   0.739960 0.872380 0.525000 -0.639320
O14   O     O_R   0.239960 0.627620 0.525000 -0.623807
O15   O     O_R   0.760040 0.372380 0.475000 -0.617614
O16   O     O_R   0.760040 0.627620 0.475000 -0.634083
O17   O     O_R   0.239960 0.372380 0.525000 -0.625802
O18   O     O_R   0.680700 0.294870 0.629350 -0.632354
O19   O     O_R   0.319300 0.705130 0.370650 -0.632326
O20   O     O_R   0.319300 0.294870 0.370650 -0.624335
O21   O     O_R   0.680700 0.705130 0.629350 -0.622359
O22   O     O_R   0.180700 0.794870 0.629350 -0.633146
O23   O     O_R   0.253510 0.236330 0.361920 -0.649696
O24   O     O_R   0.819300 0.205130 0.370650 -0.634052
O25   O     O_R   0.819300 0.794870 0.370650 -0.625232
O26   O     O_R   0.180700 0.205130 0.629350 -0.624824
O27   O     O_R   0.062020 0.072840 0.007170 -0.629455
O28   O     O_R   0.937980 0.927160 0.992830 -0.629274
O29   O     O_R   0.937980 0.072840 0.992830 -0.628694
O30   O     O_R   0.062020 0.927160 0.007170 -0.628830
O31   O     O_R   0.562020 0.572840 0.007170 -0.629575
O32   O     O_R   0.437980 0.427160 0.992830 -0.629465
O33   O     O_R   0.437980 0.572840 0.992830 -0.628778
O34   O     O_R   0.746490 0.763670 0.638080 -0.653590
O35   O     O_R   0.562020 0.427160 0.007170 -0.628847
O36   O     O_R   0.947860 0.073950 0.109290 -0.623463
O37   O     O_R   0.052140 0.926050 0.890710 -0.622891
O38   O     O_R   0.052140 0.073950 0.890710 -0.622166
O39   O     O_R   0.947860 0.926050 0.109290 -0.622605
O40   O     O_R   0.447860 0.573950 0.109290 -0.623005
O41   O     O_R   0.552140 0.426050 0.890710 -0.622928
O42   O     O_R   0.552140 0.573950 0.890710 -0.622219
O43   O     O_R   0.447860 0.426050 0.109290 -0.622141
O44   O     O_R   0.246490 0.736330 0.638080 -0.638208
O45   O     O_R   0.753510 0.263670 0.361920 -0.632842
O46   O     O_R   0.753510 0.736330 0.361920 -0.649532
O47   O     O_R   0.246490 0.263670 0.638080 -0.644587
O48   O     O_R   0.674170 0.186160 0.516270 -0.630200
Zn1   Zn    Zn3+2 0.792340 0.208750 0.507670 0.930196
Zn2   Zn    Zn3+2 0.494040 0.500000 0.919480 0.929208
Zn3   Zn    Zn3+2 0.005960 1.000000 0.080520 0.928064
Zn4   Zn    Zn3+2 0.994040 1.000000 0.919480 0.929253
Zn5   Zn    Zn3+2 0.207660 0.791250 0.492330 0.939728
Zn6   Zn    Zn3+2 0.207660 0.208750 0.492330 0.931738
Zn7   Zn    Zn3+2 0.792340 0.791250 0.507670 0.916996
Zn8   Zn    Zn3+2 0.292340 0.708750 0.507670 0.935682
Zn9   Zn    Zn3+2 0.707660 0.291250 0.492330 0.939052
Zn10  Zn    Zn3+2 0.707660 0.708750 0.492330 0.932454
Zn11  Zn    Zn3+2 0.292340 0.291250 0.507670 0.932807
Zn12  Zn    Zn3+2 0.505960 0.500000 0.080520 0.929172

loop_
_geom_bond_atom_site_label_1
_geom_bond_atom_site_label_2
_ccdc_geom_bond_type
C157  O17   A    
C28   C47   A    
C36   C42   A    
C153  O13   A    
C139  O47   A    
O16   Zn10  S    
O17   Zn11  S    
C82   H21   S    
C140  H52   S    
C88   H15   S    
C114  H36   S    
C124  C133  A    
C99   C143  A    
C69   H76   S    
C16   C35   A    
C58   H57   S    
C59   H55   S    
C67   H80   S    
C84   C125  S    
O36   Zn3   S    
O23   Zn6   S    
C62   H61   S    
C37   C42   A    
C74   C94   A    
C131  C140  A    
C134  C143  A    
C113  C122  A    
C92   H10   S    
C77   C147  S    
C78   C148  S    
O26   Zn6   S    
C97   C105  A    
C24   C51   A    
C70   C79   A    
C90   H17   S    
C76   C146  S    
C100  C109  A    
C8    C16   A    
C102  C111  A    
C24   H4    S    
C89   H14   S    
C7    O35   A    
C109  C118  A    
C13   H3    S    
C87   H26   S    
C119  H40   S    
C137  C146  A    
C70   C93   A    
C127  C136  A    
C100  C144  A    
C101  C110  A    
C106  C127  S    
O15   Zn9   S    
C82   C91   A    
C120  C129  A    
C84   O23   A    
C29   C45   A    
C103  C112  A    
O29   Zn4   S    
C122  H43   S    
C111  C160  S    
O32   Zn2   S    
C39   C56   S    
C93   H9    S    
C65   H70   S    
O44   Zn8   S    
O19   Zn8   S    
C69   H79   S    
C81   C90   A    
C13   C18   A    
C85   H24   S    
C41   C63   S    
C130  C138  A    
C56   H60   S    
C3    O30   A    
O4    Zn10  S    
C97   H27   S    
C14   C57   A    
C77   C91   A    
O35   Zn12  S    
O3    Zn11  S    
C2    C19   A    
C100  H30   S    
C25   C55   A    
C81   H20   S    
C101  H31   S    
C59   H53   S    
C137  H50   S    
C9    C15   A    
O37   Zn4   S    
O10   Zn5   S    
C33   C149  S    
C23   C32   A    
C46   C53   A    
C104  H35   S    
C60   H66   S    
C54   H67   S    
C117  O24   A    
C72   C96   A    
C158  O38   A    
C129  C137  A    
C86   H25   S    
C84   O20   A    
C1    O1    A    
C76   C85   A    
C78   C87   A    
C4    C109  S    
C11   C18   A    
C40   C60   S    
C123  C132  A    
C160  O36   A    
C121  C130  A    
C25   C43   A    
C151  O2    A    
C156  O7    A    
C103  C147  A    
C99   C108  A    
C12   C68   A    
C101  C145  A    
C133  C142  A    
C66   H83   S    
C3    C110  S    
C149  O9    A    
C153  O4    A    
O42   Zn2   S    
C152  O3    A    
C26   C45   A    
C85   C93   A    
C71   C92   A    
O39   Zn3   S    
C29   C38   A    
C117  C129  S    
C154  O14   A    
C128  O46   A    
C66   C67   S    
O6    Zn1   S    
C98   C142  A    
C52   H45   S    
C80   H19   S    
C38   C41   A    
C10   C20   A    
O31   Zn12  S    
C133  H46   S    
C60   H68   S    
C73   O12   A    
C155  O15   A    
C102  H32   S    
C8    C12   A    
C10   C45   A    
O48   Zn9   S    
O27   Zn3   S    
C114  C123  A    
C68   H8    S    
C116  C125  A    
C122  C131  A    
C29   C51   A    
C27   C47   A    
C132  C141  A    
C70   C141  S    
C117  O45   A    
C4    O31   A    
C63   C64   S    
C110  C119  A    
C49   H12   S    
C65   H69   S    
O43   Zn12  S    
C61   H64   S    
C112  C121  A    
C63   H74   S    
C58   H58   S    
C95   C126  S    
O38   Zn4   S    
C28   C37   A    
C20   C150  A    
C30   C39   A    
C62   H62   S    
C61   C62   S    
C131  C139  S    
C75   C89   A    
C94   H13   S    
C13   C50   A    
C34   C157  S    
C149  O48   A    
C15   C46   A    
C27   C49   A    
C25   C33   A    
C54   C57   A    
C119  C127  A    
C125  C134  A    
C48   C150  A    
O45   Zn9   S    
C104  C148  A    
C11   C47   A    
C8    C43   A    
O47   Zn11  S    
C55   C68   A    
C78   C90   A    
C115  H37   S    
C11   C19   A    
C106  O44   A    
O18   Zn9   S    
C95   O21   A    
C31   C40   A    
C80   C89   A    
C98   H28   S    
O33   Zn2   S    
C96   H11   S    
O41   Zn2   S    
C159  O39   A    
C6    C107  S    
C7    C105  S    
C72   C81   A    
C26   C48   A    
C150  H84   S    
O21   Zn10  S    
C95   O34   A    
O22   Zn5   S    
C2    H2    S    
C34   C41   A    
C74   C82   A    
C79   C88   A    
C139  O26   A    
C132  H44   S    
C106  O22   A    
C65   H71   S    
C64   H72   S    
C48   H1    S    
C58   C59   S    
O7    Zn7   S    
C23   C44   A    
C60   C61   S    
C5    O43   A    
O9    Zn1   S    
C9    C14   A    
C1    C123  S    
C7    O41   A    
C116  H38   S    
O34   Zn7   S    
C12   C15   A    
O11   Zn6   S    
C97   C141  A    
O28   Zn4   S    
C151  O10   A    
C126  C135  A    
C36   C156  S    
C159  O28   A    
C74   C144  S    
C115  C124  A    
C46   H6    S    
C128  C130  S    
C152  O11   A    
C57   H7    S    
C27   C36   A    
C21   C30   A    
C64   C65   S    
C108  C116  A    
O20   Zn11  S    
C75   C83   A    
C104  C113  A    
C55   H78   S    
C4    O42   A    
C158  O27   A    
C63   H75   S    
C136  H49   S    
O12   Zn5   S    
C35   C52   A    
C103  H33   S    
C6    O33   A    
C56   H59   S    
C5    C108  S    
C72   C143  S    
O5    Zn5   S    
C112  C159  S    
C128  O25   A    
C37   C155  S    
C50   H23   S    
O30   Zn3   S    
C140  C148  A    
C67   H81   S    
C59   H54   S    
C75   C145  S    
C83   C92   A    
C33   C39   A    
C121  H42   S    
C10   C17   A    
C138  H51   S    
O24   Zn1   S    
C86   C94   A    
C17   C19   A    
C21   C43   A    
C28   C50   A    
O13   Zn7   S    
C30   C153  S    
C22   C44   A    
O1    Zn1   S    
C91   H16   S    
O46   Zn10  S    
C113  C158  S    
C76   C88   A    
C136  C145  A    
C120  H41   S    
C118  H39   S    
C71   C80   A    
C155  O6    A    
C26   C34   A    
C22   C53   A    
C56   C58   S    
C17   C24   A    
C22   C31   A    
C105  C114  A    
O8    Zn6   S    
O14   Zn8   S    
C99   H29   S    
C66   H82   S    
C61   H65   S    
C1    O18   A    
C83   H22   S    
C111  C120  A    
C67   C69   S    
C2    C49   A    
O2    Zn8   S    
C138  C147  A    
C73   C124  S    
C87   C96   A    
C79   H18   S    
C5    O32   A    
C62   H63   S    
C107  C115  A    
C71   C142  S    
C135  C144  A    
C77   C86   A    
C14   C16   A    
C38   C154  S    
C157  O8    A    
O25   Zn7   S    
C23   C54   A    
O40   Zn12  S    
C9    C44   A    
C6    O40   A    
C51   H34   S    
C154  O5    A    
C53   H56   S    
C64   H73   S    
C102  C146  A    
C31   C152  S    
C134  H47   S    
C32   C151  S    
C35   H5    S    
C18   C20   A    
C32   C40   A    
C73   O19   A    
C3    O37   A    
C42   C66   S    
C160  O29   A    
C118  C126  A    
C156  O16   A    
C69   H77   S    
C21   C52   A    
C135  H48   S    
C98   C107  A    
