data_mof_unit_63196.cif
_audit_creation_date              2012-12-10T18:34:24-0500
_audit_creation_method            fapswitch 2.2
_symmetry_space_group_name_H-M    P1
_symmetry_Int_Tables_number       1
_space_group_crystal_system       triclinic
_cell_length_a                    36.178047
_cell_length_b                    36.20883
_cell_length_c                    25.580754
_cell_angle_alpha                 90.003155
_cell_angle_beta                  134.975494
_cell_angle_gamma                 89.998021
_cell_volume                      23705.2001272

loop_
_atom_site_label
_atom_site_type_symbol
_atom_type_description
_atom_site_fract_x
_atom_site_fract_y
_atom_site_fract_z
_atom_type_partial_charge
Br1   Br    Br    0.595037 0.807558 0.614882 -0.393438
Br2   Br    Br    0.483398 0.327906 0.547980 -0.482604
Br3   Br    Br    0.984323 0.172388 0.549813 -0.480874
Br4   Br    Br    0.992516 0.824472 0.566187 -0.482203
Br5   Br    Br    0.459550 0.780968 0.069413 -0.382284
Br6   Br    Br    0.457744 0.223949 0.069461 -0.381090
Br7   Br    Br    0.956307 0.271346 0.069457 -0.379397
Br8   Br    Br    0.960930 0.715883 0.069419 -0.383618
Br9   Br    Br    0.546503 0.832152 0.094312 -0.339980
Br10  Br    Br    0.541215 0.168075 0.094290 -0.340875
Br11  Br    Br    0.036286 0.331403 0.094317 -0.342321
Br12  Br    Br    0.601157 0.199339 0.627131 -0.391359
Br13  Br    Br    0.049965 0.667885 0.094288 -0.339271
Br14  Br    Br    0.493039 0.821659 0.905632 -0.339082
Br15  Br    Br    0.488384 0.175938 0.905633 -0.342499
Br16  Br    Br    0.983836 0.326066 0.905651 -0.345380
Br17  Br    Br    0.996035 0.680100 0.905617 -0.337026
Br18  Br    Br    0.544861 0.740800 0.928013 -0.408044
Br19  Br    Br    0.545249 0.254049 0.927948 -0.405517
Br20  Br    Br    0.045354 0.250864 0.927962 -0.404456
Br21  Br    Br    0.044387 0.762606 0.927995 -0.409559
Br22  Br    Br    0.731266 0.959156 0.369339 -0.421571
Br23  Br    Br    0.100551 0.301422 0.625918 -0.392500
Br24  Br    Br    0.746815 0.046334 0.382444 -0.415897
Br25  Br    Br    0.232441 0.459158 0.370308 -0.422279
Br26  Br    Br    0.248019 0.546335 0.383605 -0.416048
Br27  Br    Br    0.459714 0.762787 0.336382 -0.436026
Br28  Br    Br    0.461661 0.228100 0.340297 -0.436696
Br29  Br    Br    0.961407 0.270952 0.339789 -0.434137
Br30  Br    Br    0.959637 0.737721 0.336231 -0.437952
Br31  Br    Br    0.546168 0.743434 0.662283 -0.274816
Br32  Br    Br    0.544911 0.265681 0.659758 -0.279166
Br33  Br    Br    0.045093 0.235271 0.660118 -0.280574
Br34  Br    Br    0.094666 0.692084 0.614160 -0.392851
Br35  Br    Br    0.046207 0.756043 0.662365 -0.273584
Br36  Br    Br    0.488450 0.823312 0.575544 -0.338595
Br37  Br    Br    0.496453 0.181428 0.591534 -0.337524
Br38  Br    Br    0.995641 0.319112 0.589919 -0.338404
Br39  Br    Br    0.987963 0.676445 0.574572 -0.338852
Br40  Br    Br    0.492037 0.675316 0.565210 -0.480195
C1    C     C_R   0.849614 0.750059 0.699185 0.823172
C2    C     C_3   0.536259 0.248241 0.498969 0.027948
C3    C     C_3   0.288257 0.522476 0.587188 0.189898
C4    C     C_3   0.776985 0.977799 0.472050 0.233888
C5    C     C_3   0.780925 0.022216 0.477485 0.217156
C6    C     C_3   0.277562 0.477799 0.472897 0.233769
C7    C     C_3   0.281488 0.522216 0.478360 0.217258
C8    C     C_1   0.751145 0.110873 0.501076 -0.098101
C9    C     C_1   0.751192 0.889125 0.501180 -0.111943
C10   C     C_1   0.251150 0.610873 0.501084 -0.097867
C11   C     C_1   0.251191 0.389125 0.501182 -0.112081
C12   C     C_3   0.755413 0.963245 0.505595 0.108143
C13   C     C_3   0.036238 0.251759 0.498926 0.027821
C14   C     C_3   0.755286 0.036761 0.505012 0.097412
C15   C     C_3   0.255413 0.463245 0.505636 0.108131
C16   C     C_3   0.255293 0.536761 0.505060 0.097398
C17   C     C_3   0.697757 0.021167 0.448917 -0.154818
C18   C     C_3   0.698059 0.978224 0.455051 -0.145758
C19   C     C_3   0.197751 0.521168 0.448350 -0.154879
C20   C     C_3   0.197991 0.478226 0.454425 -0.145575
C21   C     C_1   0.752733 0.077645 0.502559 0.053268
C22   C     C_1   0.752837 0.922352 0.502891 -0.001802
C23   C     C_1   0.252740 0.577645 0.502582 0.053343
C24   C     C_3   0.036062 0.748270 0.498573 0.028636
C25   C     C_1   0.252837 0.422352 0.502905 -0.001818
C26   C     C_3   0.794195 0.521550 0.580522 -0.131330
C27   C     C_3   0.797317 0.478213 0.578858 -0.172395
C28   C     C_3   0.296596 0.021791 0.579175 -0.172486
C29   C     C_3   0.293369 0.978454 0.580667 -0.131310
C30   C     C_3   0.697653 0.521784 0.469686 -0.162811
C31   C     C_3   0.699812 0.478448 0.477123 -0.120936
C32   C     C_3   0.199210 0.021554 0.475402 -0.120942
C33   C     C_3   0.197168 0.978217 0.468037 -0.162671
C34   C     C_1   0.750023 0.389095 0.499562 -0.132160
C35   C     C_3   0.481718 0.790920 0.507469 0.073774
C36   C     C_1   0.750149 0.610904 0.499720 -0.132663
C37   C     C_1   0.250152 0.889095 0.499728 -0.132498
C38   C     C_1   0.250025 0.110905 0.499561 -0.132478
C39   C     C_R   0.749963 0.849630 0.499938 0.837902
C40   C     C_R   0.749963 0.150370 0.499930 0.833259
C41   C     C_R   0.249963 0.349630 0.499937 0.838084
C42   C     C_R   0.249964 0.650370 0.499931 0.833128
C43   C     C_3   0.750710 0.536790 0.498784 0.197846
C44   C     C_3   0.749768 0.463210 0.497740 0.197299
C45   C     C_3   0.249801 0.036790 0.497767 0.197524
C46   C     C_3   0.486300 0.209792 0.516615 0.073943
C47   C     C_3   0.250742 0.963210 0.498833 0.197848
C48   C     C_3   0.750823 0.477975 0.439865 0.177332
C49   C     C_3   0.760858 0.522030 0.450865 0.177567
C50   C     C_3   0.262171 0.977965 0.452434 0.177433
C51   C     C_3   0.252159 0.022020 0.441234 0.177213
C52   C     C_1   0.749890 0.422355 0.498870 -0.030172
C53   C     C_1   0.750391 0.577645 0.499442 -0.029890
C54   C     C_1   0.250402 0.922355 0.499464 -0.029849
C55   C     C_1   0.249900 0.077645 0.498876 -0.030339
C56   C     C_R   0.849646 0.750036 0.499984 0.826023
C57   C     C_3   0.985823 0.290307 0.515669 0.074226
C58   C     C_R   0.849645 0.249964 0.499982 0.825229
C59   C     C_R   0.349645 0.250036 0.499983 0.825380
C60   C     C_R   0.349646 0.749963 0.499984 0.825967
C61   C     C_R   0.650445 0.750042 0.500038 0.829889
C62   C     C_R   0.650445 0.249957 0.500038 0.830947
C63   C     C_R   0.150445 0.250043 0.500039 0.831070
C64   C     C_R   0.150445 0.749958 0.500036 0.829510
C65   C     C_3   0.529163 0.791729 0.515569 0.302117
C66   C     C_3   0.533821 0.209456 0.524868 0.302426
C67   C     C_3   0.033336 0.290695 0.523907 0.302459
C68   C     C_3   0.981453 0.709057 0.506934 0.073500
C69   C     C_3   0.028902 0.708223 0.515042 0.302174
C70   C     C_3   0.483405 0.736962 0.422940 0.089775
C71   C     C_3   0.482167 0.258649 0.420472 0.090381
C72   C     C_3   0.982273 0.240884 0.420682 0.090492
C73   C     C_3   0.983493 0.763279 0.423115 0.089609
C74   C     C_3   0.439899 0.736742 0.422311 -0.207694
C75   C     C_3   0.438641 0.258835 0.419805 -0.208301
C76   C     C_3   0.938750 0.240694 0.420020 -0.208757
C77   C     C_3   0.939987 0.763508 0.422488 -0.207103
C78   C     C_3   0.463156 0.750140 0.499701 -0.041278
C79   C     C_3   0.463164 0.249873 0.499719 -0.040004
C80   C     C_3   0.963164 0.250129 0.499717 -0.040242
C81   C     C_R   0.849615 0.249942 0.699184 0.824267
C82   C     C_3   0.963155 0.749861 0.499699 -0.041029
C83   C     C_3   0.511448 0.725590 0.564297 0.512908
C84   C     C_3   0.508482 0.277906 0.558376 0.512821
C85   C     C_3   0.008812 0.222446 0.559031 0.512817
C86   C     C_3   0.011603 0.774204 0.564616 0.513063
C87   C     C_3   0.551508 0.724393 0.558540 -0.519764
C88   C     C_3   0.548417 0.278786 0.552370 -0.519331
C89   C     C_3   0.048759 0.221534 0.553048 -0.519425
C90   C     C_3   0.051671 0.775421 0.558873 -0.519667
C91   C     C_1   0.422390 0.750051 0.499763 0.066371
C92   C     C_R   0.349614 0.250059 0.699185 0.824149
C93   C     C_1   0.422392 0.249955 0.499767 0.065910
C94   C     C_1   0.922392 0.250045 0.499766 0.066051
C95   C     C_1   0.922389 0.749950 0.499761 0.066317
C96   C     C_1   0.577148 0.750856 0.499152 0.040351
C97   C     C_1   0.577236 0.249148 0.499326 0.040592
C98   C     C_1   0.077226 0.250854 0.499306 0.040511
C99   C     C_1   0.077147 0.749146 0.499148 0.040444
C100  C     C_1   0.610649 0.750344 0.499587 -0.087859
C101  C     C_1   0.610677 0.249668 0.499643 -0.087251
C102  C     C_1   0.110674 0.250335 0.499638 -0.087392
C103  C     C_R   0.349615 0.749942 0.699184 0.823218
C104  C     C_1   0.110649 0.749657 0.499586 -0.087722
C105  C     C_3   0.481021 0.740896 0.043211 0.345347
C106  C     C_3   0.481701 0.261710 0.043221 0.345593
C107  C     C_3   0.982481 0.235889 0.043217 0.345880
C108  C     C_3   0.980675 0.757375 0.043216 0.345135
C109  C     C_R   0.650470 0.750020 0.300810 0.828733
C110  C     C_R   0.650471 0.249979 0.300810 0.828597
C111  C     C_R   0.150470 0.250020 0.300810 0.828916
C112  C     C_R   0.150471 0.749980 0.300810 0.828242
C113  C     C_3   0.535336 0.787331 0.041712 0.065819
C114  C     C_1   0.389149 0.749997 0.499857 -0.055762
C115  C     C_3   0.532911 0.211834 0.041708 0.066123
C116  C     C_3   0.030586 0.288809 0.041718 0.066224
C117  C     C_3   0.036898 0.713305 0.041703 0.065746
C118  C     C_3   0.484647 0.789572 0.958323 0.066792
C119  C     C_3   0.482104 0.210175 0.958317 0.066765
C120  C     C_3   0.979691 0.289917 0.958329 0.066828
C121  C     C_3   0.986314 0.710687 0.958313 0.066879
C122  C     C_1   0.389197 0.749853 0.778278 -0.084868
C123  C     C_1   0.389201 0.250153 0.778279 -0.085470
C124  C     C_1   0.889209 0.249844 0.778278 -0.084709
C125  C     C_1   0.389149 0.250003 0.499858 -0.057687
C126  C     C_1   0.889189 0.750145 0.778279 -0.085548
C127  C     C_3   0.536696 0.749535 0.073586 0.016425
C128  C     C_3   0.536733 0.250488 0.073585 0.016131
C129  C     C_3   0.036764 0.249494 0.073585 0.016224
C130  C     C_3   0.036677 0.750452 0.073586 0.016369
C131  C     C_3   0.439909 0.735061 0.956601 -0.260327
C132  C     C_3   0.440946 0.267380 0.956606 -0.261017
C133  C     C_3   0.942066 0.230380 0.956602 -0.261615
C134  C     C_3   0.939311 0.763295 0.956606 -0.259960
C135  C     C_3   0.463250 0.749362 0.926389 0.012321
C136  C     C_1   0.889148 0.249995 0.499856 -0.056935
C137  C     C_3   0.463289 0.250651 0.926390 0.012601
C138  C     C_3   0.963330 0.249343 0.926390 0.012548
C139  C     C_3   0.963221 0.750632 0.926390 0.012396
C140  C     C_3   0.509849 0.722427 0.956678 0.318282
C141  C     C_3   0.511545 0.275525 0.956673 0.318316
C142  C     C_3   0.013029 0.226518 0.956666 0.318224
C143  C     C_3   0.008652 0.778874 0.956684 0.318411
C144  C     C_3   0.548736 0.718729 0.043707 -0.279051
C145  C     C_3   0.550698 0.279497 0.043710 -0.279414
C146  C     C_3   0.052427 0.222283 0.043700 -0.279784
C147  C     C_1   0.889149 0.750002 0.499858 -0.056582
C148  C     C_3   0.047392 0.782368 0.043715 -0.278695
C149  C     C_1   0.422474 0.749703 0.844814 0.087359
C150  C     C_1   0.422488 0.250308 0.844815 0.087172
C151  C     C_1   0.922508 0.249687 0.844814 0.087383
C152  C     C_1   0.922459 0.750293 0.844815 0.087198
C153  C     C_1   0.577653 0.749832 0.155172 0.135673
C154  C     C_1   0.577673 0.250178 0.155172 0.136014
C155  C     C_1   0.077685 0.249812 0.155172 0.135941
C156  C     C_1   0.077647 0.750161 0.155172 0.135726
C157  C     C_R   0.750067 0.650440 0.500026 0.824539
C158  C     C_3   0.536068 0.751734 0.498587 0.028518
C159  C     C_R   0.750055 0.349560 0.500014 0.825444
C160  C     C_R   0.250055 0.150440 0.500014 0.825142
C161  C     C_R   0.250067 0.849560 0.500026 0.824569
C162  C     C_1   0.610959 0.749954 0.221710 -0.076100
C163  C     C_1   0.610970 0.250049 0.221710 -0.075052
C164  C     C_1   0.110974 0.249945 0.221710 -0.075368
C165  C     C_1   0.110959 0.750042 0.221710 -0.075811
C166  C     C_3   0.792112 0.977890 0.588592 0.148907
C167  C     C_3   0.788762 0.022477 0.587304 0.190191
C168  C     C_3   0.291625 0.477889 0.588530 0.149123
H1    H     H_    0.448371 0.805141 0.454705 0.132702
H2    H     H_    0.452373 0.196138 0.952866 0.185101
H3    H     H_    0.850340 0.028677 0.506088 0.229511
H4    H     H_    0.327064 0.432839 0.511856 0.207798
H5    H     H_    0.340247 0.468221 0.486425 0.232460
H6    H     H_    0.338654 0.562757 0.536401 0.206511
H7    H     H_    0.351328 0.528677 0.508114 0.229164
H8    H     H_    0.683720 0.976429 0.521653 0.218343
H9    H     H_    0.631433 0.968444 0.431737 0.201923
H10   H     H_    0.666235 0.034395 0.491563 0.205473
H11   H     H_    0.623508 0.034516 0.399614 0.208938
H12   H     H_    0.182799 0.476437 0.520020 0.218139
H13   H     H_    0.949163 0.302295 0.952887 0.185393
H14   H     H_    0.130914 0.468443 0.429958 0.202177
H15   H     H_    0.165461 0.534407 0.489893 0.205784
H16   H     H_    0.123244 0.534509 0.398013 0.208791
H17   H     H_    0.781051 0.932812 0.627117 0.203937
H18   H     H_    0.800300 0.971054 0.676920 0.176302
H19   H     H_    0.792662 0.038285 0.669961 0.180131
H20   H     H_    0.736087 0.019420 0.598363 0.195651
H21   H     H_    0.280036 0.432812 0.626411 0.203614
H22   H     H_    0.298975 0.471051 0.676101 0.176257
H23   H     H_    0.291338 0.538279 0.669065 0.180505
H24   H     H_    0.958226 0.693870 0.952867 0.184671
H25   H     H_    0.234916 0.519422 0.597028 0.195754
H26   H     H_    0.651860 0.563494 0.393425 0.198446
H27   H     H_    0.618045 0.529176 0.384903 0.205881
H28   H     H_    0.653520 0.431987 0.421535 0.204372
H29   H     H_    0.621215 0.468946 0.408252 0.193866
H30   H     H_    0.153135 0.068013 0.419009 0.204501
H31   H     H_    0.120418 0.031055 0.404595 0.193828
H32   H     H_    0.152061 0.936504 0.391459 0.198301
H33   H     H_    0.117695 0.970824 0.381630 0.205743
H34   H     H_    0.842929 0.514791 0.535612 0.237531
H35   H     H_    0.541935 0.691710 0.055825 0.169446
H36   H     H_    0.820460 0.528699 0.455202 0.184689
H37   H     H_    0.828162 0.458640 0.501728 0.210514
H38   H     H_    0.792582 0.468775 0.412808 0.176875
H39   H     H_    0.329820 0.041353 0.505133 0.210644
H40   H     H_    0.295427 0.031214 0.416627 0.176965
H41   H     H_    0.344162 0.985204 0.538916 0.237564
H42   H     H_    0.322980 0.971291 0.459310 0.184919
H43   H     H_    0.732916 0.531235 0.347456 0.173901
H44   H     H_    0.687858 0.541365 0.348041 0.201963
H45   H     H_    0.702789 0.471311 0.326289 0.176395
H46   H     H_    0.545684 0.307285 0.055864 0.169906
H47   H     H_    0.669731 0.485213 0.345874 0.232227
H48   H     H_    0.205586 0.028676 0.328070 0.176455
H49   H     H_    0.171373 0.014779 0.345757 0.232202
H50   H     H_    0.235905 0.968751 0.350100 0.174073
H51   H     H_    0.189848 0.958626 0.348680 0.201873
H52   H     H_    0.869523 0.531052 0.680272 0.207195
H53   H     H_    0.841410 0.568012 0.627381 0.213597
H54   H     H_    0.876465 0.470820 0.667986 0.220595
H55   H     H_    0.848063 0.436503 0.608344 0.210010
H56   H     H_    0.375503 0.029185 0.669812 0.220336
H57   H     H_    0.049104 0.193875 0.055836 0.169888
H58   H     H_    0.347799 0.063498 0.610243 0.209771
H59   H     H_    0.368138 0.968956 0.681520 0.207167
H60   H     H_    0.340581 0.931993 0.628569 0.213594
H61   H     H_    0.439256 0.678887 0.422322 0.242490
H62   H     H_    0.389111 0.698589 0.405817 0.235238
H63   H     H_    0.431503 0.316323 0.406812 0.242975
H64   H     H_    0.383630 0.295826 0.394860 0.234163
H65   H     H_    0.932290 0.183133 0.408379 0.243238
H66   H     H_    0.884175 0.203560 0.395945 0.235007
H67   H     H_    0.939734 0.821361 0.423263 0.242050
H68   H     H_    0.039470 0.808820 0.055851 0.169448
H69   H     H_    0.889459 0.801722 0.406506 0.234269
H70   H     H_    0.432809 0.705049 0.945611 0.161141
H71   H     H_    0.435754 0.297431 0.945595 0.160583
H72   H     H_    0.938696 0.200403 0.945590 0.160469
H73   H     H_    0.454730 0.192692 0.467381 0.132001
H74   H     H_    0.930939 0.793211 0.945616 0.161178
H75   H     H_    0.674420 0.967311 0.398406 0.215019
H76   H     H_    0.681101 0.026335 0.392830 0.223244
H77   H     H_    0.174698 0.467312 0.397881 0.215109
H78   H     H_    0.181512 0.526336 0.392506 0.223309
H79   H     H_    0.490385 0.708307 0.415789 0.164303
H80   H     H_    0.485934 0.286715 0.406891 0.165134
H81   H     H_    0.986375 0.212738 0.407768 0.165196
H82   H     H_    0.990656 0.791954 0.416325 0.164165
H83   H     H_    0.792873 0.466958 0.614824 0.140781
H84   H     H_    0.954051 0.307114 0.466037 0.132091
H85   H     H_    0.781398 0.527812 0.608519 0.124232
H86   H     H_    0.279674 0.972197 0.607472 0.124089
H87   H     H_    0.291261 0.033050 0.614142 0.140264
H88   H     H_    0.694346 0.533037 0.506902 0.134786
H89   H     H_    0.704636 0.472184 0.524420 0.121220
H90   H     H_    0.203094 0.027822 0.521856 0.121048
H91   H     H_    0.192966 0.966968 0.504276 0.134740
H92   H     H_    0.409340 0.756977 0.380061 0.219271
H93   H     H_    0.410488 0.236356 0.382373 0.218366
H94   H     H_    0.910332 0.262951 0.382062 0.218590
H95   H     H_    0.948019 0.695007 0.453981 0.132676
H96   H     H_    0.909294 0.743413 0.379971 0.219143
H97   H     H_    0.591645 0.730193 0.613002 0.252845
H98   H     H_    0.589039 0.276102 0.607790 0.252830
H99   H     H_    0.089346 0.224548 0.608400 0.252757
H100  H     H_    0.091772 0.769453 0.613261 0.252940
H101  H     H_    0.553629 0.695952 0.544310 0.195816
H102  H     H_    0.547356 0.306244 0.531802 0.196075
H103  H     H_    0.048028 0.193955 0.533132 0.196016
H104  H     H_    0.053966 0.803906 0.545001 0.195816
H105  H     H_    0.359596 0.736942 0.867577 0.202559
H106  H     H_    0.568640 0.788604 0.047519 0.192507
H107  H     H_    0.385601 0.778509 0.905419 0.224356
H108  H     H_    0.360581 0.267768 0.867588 0.202918
H109  H     H_    0.383932 0.225845 0.905468 0.225174
H110  H     H_    0.861793 0.227822 0.867579 0.203412
H111  H     H_    0.882595 0.269937 0.905469 0.225740
H112  H     H_    0.859107 0.759905 0.867596 0.202109
H113  H     H_    0.886865 0.718673 0.905400 0.224095
H114  H     H_    0.512610 0.844694 0.474916 0.225471
H115  H     H_    0.550387 0.821356 0.470938 0.226376
H116  H     H_    0.523329 0.154543 0.496366 0.225081
H117  H     H_    0.566075 0.208608 0.047525 0.192781
H118  H     H_    0.558596 0.177482 0.487319 0.226448
H119  H     H_    0.022229 0.345438 0.494150 0.225326
H120  H     H_    0.057703 0.322429 0.485546 0.226485
H121  H     H_    0.011942 0.655398 0.473633 0.225264
H122  H     H_    0.049994 0.678700 0.470141 0.226287
H123  H     H_    0.609947 0.695786 0.063492 0.232035
H124  H     H_    0.616921 0.741780 0.079475 0.246323
H125  H     H_    0.613281 0.299100 0.063508 0.232848
H126  H     H_    0.617266 0.253259 0.079383 0.246723
H127  H     H_    0.116096 0.205896 0.063486 0.233266
H128  H     H_    0.063497 0.293855 0.047531 0.192822
H129  H     H_    0.117331 0.251411 0.079406 0.246726
H130  H     H_    0.107591 0.807456 0.063511 0.231688
H131  H     H_    0.116496 0.761458 0.079447 0.246332
H132  H     H_    0.519945 0.670494 0.935088 0.221140
H133  H     H_    0.477820 0.670323 0.942144 0.142734
H134  H     H_    0.524904 0.326020 0.935072 0.222052
H135  H     H_    0.482934 0.329109 0.942221 0.142198
H136  H     H_    0.029401 0.177576 0.935050 0.223024
H137  H     H_    0.987689 0.171740 0.942176 0.142283
H138  H     H_    0.016526 0.831644 0.935099 0.220360
H139  H     H_    0.070230 0.713314 0.047514 0.192494
H140  H     H_    0.974451 0.829885 0.942186 0.142683
H141  H     H_    0.486354 0.683494 0.060127 0.141235
H142  H     H_    0.448274 0.705382 0.064374 0.242884
H143  H     H_    0.490706 0.319198 0.060089 0.141423
H144  H     H_    0.451342 0.299938 0.064408 0.241764
H145  H     H_    0.994966 0.178540 0.060087 0.141150
H146  H     H_    0.954502 0.195258 0.064388 0.241250
H147  H     H_    0.983584 0.814595 0.060132 0.141475
H148  H     H_    0.946471 0.791032 0.064390 0.243261
H149  H     H_    0.840020 0.067234 0.637521 0.188758
H150  H     H_    0.455872 0.805302 0.952884 0.184795
H151  H     H_    0.863687 0.030864 0.692344 0.179309
H152  H     H_    0.847875 0.937371 0.629117 0.184256
H153  H     H_    0.869680 0.970668 0.689169 0.182590
H154  H     H_    0.339527 0.567231 0.637954 0.189194
H155  H     H_    0.362865 0.530861 0.692693 0.179441
H156  H     H_    0.347541 0.437368 0.629796 0.183994
H157  H     H_    0.368947 0.470665 0.689673 0.182377
H158  H     H_    0.826377 0.932840 0.510381 0.207239
H159  H     H_    0.839152 0.968223 0.484407 0.231878
H160  H     H_    0.838095 0.062759 0.534932 0.206943
N1    N     N_3   0.388296 0.750651 0.917997 -0.379862
N2    N     N_3   0.606256 0.278558 0.084357 -0.432082
N3    N     N_3   0.107865 0.225342 0.084352 -0.431624
N4    N     N_3   0.102853 0.785185 0.084379 -0.433555
N5    N     N_3   0.489576 0.685747 0.921538 -0.434665
N6    N     N_3   0.493621 0.312308 0.921559 -0.435063
N7    N     N_3   0.997331 0.189782 0.921534 -0.434014
N8    N     N_3   0.986829 0.815408 0.921559 -0.435601
N9    N     N_3   0.483498 0.707733 0.079113 -0.428860
N10   N     N_3   0.486346 0.295806 0.079113 -0.429378
N11   N     N_3   0.989208 0.201054 0.079104 -0.429918
N12   N     N_3   0.388408 0.253879 0.918022 -0.379463
N13   N     N_3   0.981767 0.789858 0.079121 -0.428456
N14   N     N_3   0.841993 0.038420 0.637728 -0.417490
N15   N     N_3   0.846563 0.965994 0.633033 -0.407288
N16   N     N_3   0.341515 0.538416 0.638195 -0.417380
N17   N     N_3   0.346177 0.465990 0.633643 -0.407392
N18   N     N_3   0.828662 0.961647 0.512312 -0.411933
N19   N     N_3   0.835971 0.034037 0.529206 -0.397735
N20   N     N_3   0.329356 0.461646 0.513816 -0.411596
N21   N     N_3   0.336567 0.534035 0.530689 -0.397901
N22   N     N_3   0.671594 0.963664 0.475333 -0.418992
N23   N     N_3   0.888771 0.241845 0.918016 -0.379125
N24   N     N_3   0.661953 0.041239 0.448182 -0.419391
N25   N     N_3   0.171038 0.463668 0.473941 -0.419164
N26   N     N_3   0.161580 0.541241 0.446866 -0.419455
N27   N     N_3   0.775873 0.961444 0.622666 -0.475797
N28   N     N_3   0.764860 0.036589 0.612309 -0.450618
N29   N     N_3   0.274858 0.461444 0.621904 -0.476056
N30   N     N_3   0.263848 0.536588 0.611436 -0.450070
N31   N     N_3   0.650986 0.534697 0.394988 -0.449935
N32   N     N_3   0.650735 0.460390 0.412234 -0.414974
N33   N     N_3   0.150495 0.039610 0.409793 -0.415018
N34   N     N_3   0.888389 0.746350 0.918005 -0.380094
N35   N     N_3   0.151133 0.965300 0.392946 -0.450073
N36   N     N_3   0.815089 0.531533 0.490161 -0.404630
N37   N     N_3   0.790734 0.458013 0.448851 -0.442752
N38   N     N_3   0.292744 0.041979 0.451783 -0.442535
N39   N     N_3   0.316718 0.968460 0.493250 -0.404334
N40   N     N_3   0.727539 0.541993 0.379635 -0.447101
N41   N     N_3   0.700410 0.468473 0.364524 -0.417137
N42   N     N_3   0.202310 0.031518 0.365347 -0.417200
N43   N     N_3   0.229698 0.957997 0.381323 -0.447017
N44   N     N_3   0.845383 0.539609 0.625475 -0.399991
N45   N     N_3   0.517903 0.818759 0.462969 -0.413302
N46   N     N_3   0.848460 0.465300 0.611305 -0.437568
N47   N     N_3   0.348139 0.034702 0.613158 -0.437550
N48   N     N_3   0.344682 0.960395 0.626880 -0.399830
N49   N     N_3   0.412943 0.700873 0.396670 -0.402750
N50   N     N_3   0.407739 0.293038 0.386269 -0.403952
N51   N     N_3   0.908252 0.206295 0.387290 -0.402780
N52   N     N_3   0.913273 0.799463 0.397323 -0.403997
N53   N     N_3   0.525804 0.179636 0.478716 -0.414316
N54   N     N_3   0.024959 0.320240 0.477050 -0.414188
N55   N     N_3   0.017488 0.681361 0.462108 -0.413287
N56   N     N_3   0.604285 0.717392 0.084377 -0.433227
O1    O     O_3   0.750040 0.750040 0.500000 -0.504008
O2    O     O_R   0.750020 0.167970 0.542980 -0.635815
O3    O     O_R   0.250020 0.332030 0.542980 -0.638969
O4    O     O_R   0.250020 0.667970 0.542980 -0.635182
O5    O     O_R   0.853500 0.728560 0.663950 -0.604731
O6    O     O_R   0.853500 0.271440 0.663950 -0.603720
O7    O     O_R   0.353500 0.228560 0.663950 -0.603808
O8    O     O_R   0.353500 0.771440 0.663950 -0.604597
O9    O     O_R   0.689570 0.771520 0.336050 -0.620098
O10   O     O_R   0.689570 0.228480 0.336050 -0.620761
O11   O     O_R   0.189570 0.271520 0.336050 -0.621954
O12   O     O_3   0.750040 0.249960 0.500000 -0.504654
O13   O     O_R   0.189570 0.728480 0.336050 -0.619202
O14   O     O_R   0.810510 0.771550 0.663950 -0.645451
O15   O     O_R   0.810510 0.228450 0.663950 -0.645765
O16   O     O_R   0.310510 0.271550 0.663950 -0.646213
O17   O     O_R   0.310510 0.728450 0.663950 -0.644983
O18   O     O_R   0.646590 0.728530 0.336050 -0.629245
O19   O     O_R   0.646590 0.271470 0.336050 -0.628143
O20   O     O_R   0.146590 0.228530 0.336050 -0.627204
O21   O     O_R   0.146590 0.771470 0.336050 -0.629933
O22   O     O_R   0.793040 0.668060 0.542980 -0.623928
O23   O     O_3   0.250040 0.250040 0.500000 -0.503855
O24   O     O_R   0.793040 0.331940 0.542980 -0.627010
O25   O     O_R   0.293040 0.168060 0.542980 -0.627144
O26   O     O_R   0.293040 0.831940 0.542980 -0.623604
O27   O     O_R   0.750030 0.832020 0.457020 -0.613249
O28   O     O_R   0.750030 0.167980 0.457020 -0.611075
O29   O     O_R   0.250030 0.332020 0.457020 -0.612852
O30   O     O_R   0.250030 0.667980 0.457020 -0.611242
O31   O     O_R   0.853520 0.728540 0.542980 -0.605688
O32   O     O_R   0.853520 0.271460 0.542980 -0.608543
O33   O     O_R   0.353520 0.228540 0.542980 -0.608132
O34   O     O_3   0.250040 0.749960 0.500000 -0.504837
O35   O     O_R   0.353520 0.771460 0.542980 -0.606170
O36   O     O_R   0.689540 0.771550 0.542990 -0.627027
O37   O     O_R   0.689540 0.228450 0.542990 -0.626804
O38   O     O_R   0.189540 0.271550 0.542990 -0.627186
O39   O     O_R   0.189540 0.728450 0.542990 -0.626731
O40   O     O_R   0.810530 0.771520 0.457010 -0.640170
O41   O     O_R   0.810530 0.228480 0.457010 -0.637637
O42   O     O_R   0.310530 0.271520 0.457010 -0.638696
O43   O     O_R   0.310530 0.728480 0.457010 -0.638817
O44   O     O_R   0.646570 0.728550 0.457020 -0.627242
O45   O     O_R   0.707070 0.668050 0.457020 -0.642371
O46   O     O_R   0.646570 0.271450 0.457020 -0.628107
O47   O     O_R   0.146570 0.228550 0.457020 -0.627624
O48   O     O_R   0.146570 0.771450 0.457020 -0.627490
O49   O     O_R   0.707070 0.331950 0.457020 -0.639751
O50   O     O_R   0.207070 0.168050 0.457020 -0.639759
O51   O     O_R   0.207070 0.831950 0.457020 -0.642602
O52   O     O_R   0.750020 0.832030 0.542980 -0.638243
Zn1   Zn    Zn3+2 0.688630 0.719330 0.438590 1.002059
Zn2   Zn    Zn3+2 0.750040 0.219260 0.438590 1.028970
Zn3   Zn    Zn3+2 0.250040 0.280740 0.438590 1.025882
Zn4   Zn    Zn3+2 0.250040 0.719260 0.438590 1.029383
Zn5   Zn    Zn3+2 0.750030 0.780760 0.561410 1.001195
Zn6   Zn    Zn3+2 0.750030 0.219240 0.561410 1.003761
Zn7   Zn    Zn3+2 0.250030 0.280760 0.561410 1.000947
Zn8   Zn    Zn3+2 0.250030 0.719240 0.561410 1.003895
Zn9   Zn    Zn3+2 0.688630 0.280670 0.438590 1.004239
Zn10  Zn    Zn3+2 0.188630 0.219330 0.438590 1.004950
Zn11  Zn    Zn3+2 0.188630 0.780670 0.438590 1.001292
Zn12  Zn    Zn3+2 0.811460 0.719330 0.561410 1.036341
Zn13  Zn    Zn3+2 0.811460 0.280670 0.561410 1.033937
Zn14  Zn    Zn3+2 0.311460 0.219330 0.561410 1.033723
Zn15  Zn    Zn3+2 0.311460 0.780670 0.561410 1.036588
Zn16  Zn    Zn3+2 0.750040 0.780740 0.438590 1.026159

loop_
_geom_bond_atom_site_label_1
_geom_bond_atom_site_label_2
_ccdc_geom_bond_type
C132  C137  S    
C87   C158  S    
C145  N2    S    
C72   H81   S    
C117  C121  S    
O47   Zn10  S    
H63   N50   S    
C96   C100  T    
Br19  C141  S    
H39   N38   S    
C108  N13   S    
H147  N13   S    
H55   N46   S    
C131  N1    S    
C15   C168  S    
C94   C136  T    
Br14  C118  S    
H155  N16   S    
C5    N19   S    
Br6   C106  S    
C43   C53   S    
C47   C54   S    
C63   O47   A    
O48   Zn11  S    
C157  O45   A    
C68   C69   S    
C34   C52   T    
C1    O5    A    
C106  C128  S    
C78   C91   S    
H65   N51   S    
O45   Zn1   S    
O1    Zn1   S    
Br27  C70   S    
C3    N16   S    
C46   C79   S    
C62   C101  S    
C124  C151  T    
H6    N21   S    
C96   C158  S    
C2    C88   S    
C19   C20   S    
C92   O16   A    
C2    C97   S    
C26   N44   S    
C107  N11   S    
H126  N2    S    
C38   C160  S    
C110  C163  S    
O20   Zn10  S    
C15   C25   S    
H59   N48   S    
O44   Zn1   S    
Br28  C71   S    
C89   H103  S    
H146  N11   S    
C87   H101  S    
C88   H98   S    
C145  H46   S    
C80   C85   S    
H9    N22   S    
C108  C134  S    
O11   Zn3   S    
H111  N23   S    
O30   Zn4   S    
O31   Zn12  S    
O5    Zn12  S    
C76   N51   S    
H40   N38   S    
C115  H117  S    
C76   H94   S    
H18   N27   S    
O7    Zn14  S    
Br23  C67   S    
C140  N5    S    
H129  N3    S    
Br33  C85   S    
H134  N6    S    
C142  N7    S    
C2    C66   S    
C120  C138  S    
H156  N17   S    
C138  C142  S    
C12   C18   S    
Br26  C7    S    
C33   N35   S    
C146  H57   S    
O12   Zn13  S    
C35   C65   S    
C41   O29   A    
H125  N2    S    
O6    Zn13  S    
C141  N6    S    
C9    C22   T    
C69   N55   S    
C3    C168  S    
H131  N4    S    
C65   N45   S    
C44   C48   S    
C32   C33   S    
H61   N49   S    
C14   C21   S    
C28   N47   S    
H157  N17   S    
C16   C19   S    
C20   N25   S    
H47   N41   S    
C92   C123  S    
C143  C148  S    
C59   O33   A    
C89   H99   S    
C103  O8    A    
C106  N10   S    
O52   Zn5   S    
H158  N18   S    
C123  C150  T    
H31   N33   S    
H5    N20   S    
C42   O4    A    
C148  N4    S    
C57   C67   S    
H142  N9    S    
C85   C89   S    
C48   C49   S    
C51   N42   S    
C29   H86   S    
O10   Zn2   S    
H20   N28   S    
H21   N29   S    
H58   N47   S    
O28   Zn2   S    
C140  C144  S    
Br1   C65   S    
C59   C125  S    
Br30  C73   S    
C112  O21   A    
O1    Zn16  S    
C27   H83   S    
C159  O24   A    
Br16  C120  S    
O4    Zn8   S    
C81   O6    A    
C109  O9    A    
C32   C45   S    
O24   Zn13  S    
C129  C155  S    
C90   H104  S    
O21   Zn11  S    
H45   N41   S    
C36   C157  S    
C11   C25   T    
C37   C54   T    
C99   C104  T    
C113  C118  S    
H36   N36   S    
O49   Zn9   S    
C50   N39   S    
H119  N54   S    
C51   N38   S    
C71   H80   S    
C121  C139  S    
C11   C41   S    
C58   O32   A    
C133  H72   S    
H116  N53   S    
C4    C12   S    
C26   C27   S    
Br18  C140  S    
O13   Zn4   S    
C28   C45   S    
C127  C153  S    
C56   C147  S    
C39   O52   A    
C46   C66   S    
O15   Zn6   S    
C95   C147  T    
H122  N55   S    
C27   N46   S    
Br7   C107  S    
C46   H73   S    
Br39  C68   S    
C43   C49   S    
C62   O37   A    
Br5   C105  S    
C115  C119  S    
H148  N13   S    
H23   N30   S    
Br37  C46   S    
C116  C120  S    
H135  N6    S    
H115  N45   S    
H132  N5    S    
H15   N26   S    
O17   Zn8   S    
C76   C80   S    
C31   N32   S    
C6    C15   S    
C77   C82   S    
C31   H89   S    
Br36  C35   S    
C156  C165  T    
C160  O50   A    
C83   C87   S    
C127  C144  S    
C63   O38   A    
C1    C126  S    
H149  N14   S    
C18   N22   S    
H136  N7    S    
C161  O51   A    
C134  N34   S    
Br17  C121  S    
C73   C77   S    
H123  N56   S    
O18   Zn1   S    
C24   C90   S    
C75   C79   S    
C143  N8    S    
O2    Zn6   S    
O27   Zn16  S    
C13   C89   S    
C4    N18   S    
O25   Zn14  S    
C72   C76   S    
C29   N48   S    
C60   C114  S    
O23   Zn7   S    
C137  C150  S    
H112  N34   S    
H120  N54   S    
C132  N12   S    
C91   C114  T    
C37   C161  S    
Br10  C115  S    
C17   N24   S    
C135  C140  S    
Br2   C84   S    
Br4   C86   S    
C110  O10   A    
H62   N49   S    
C67   N54   S    
C109  O18   A    
C12   C22   S    
C130  C156  S    
C45   C55   S    
O33   Zn14  S    
C133  C138  S    
O23   Zn10  S    
C137  C141  S    
C77   H96   S    
C80   C94   S    
H67   N52   S    
H114  N45   S    
H160  N19   S    
H16   N26   S    
C132  H71   S    
O19   Zn9   S    
C118  C135  S    
C130  C148  S    
C110  O19   A    
C44   C52   S    
C17   C18   S    
C109  C162  S    
O34   Zn11  S    
C14   C17   S    
O36   Zn5   S    
H22   N29   S    
H127  N3    S    
C70   C158  S    
H30   N33   S    
H48   N42   S    
C111  C164  S    
H44   N40   S    
H50   N43   S    
H109  N12   S    
H12   N25   S    
H141  N9    S    
C129  C146  S    
C31   C44   S    
C24   C73   S    
C33   H91   S    
C18   H75   S    
C86   C90   S    
C28   H87   S    
C20   H77   S    
C142  C146  S    
H25   N30   S    
H151  N14   S    
C33   C47   S    
C26   C43   S    
C70   H79   S    
H41   N39   S    
C28   C29   S    
H38   N37   S    
O12   Zn2   S    
C30   C31   S    
O42   Zn3   S    
H10   N24   S    
O40   Zn16  S    
C29   C47   S    
C84   C88   S    
C48   N41   S    
C144  N56   S    
C75   N50   S    
C120  H13   S    
C15   C20   S    
C113  C127  S    
C74   H92   S    
O41   Zn2   S    
Br8   C108  S    
C35   C78   S    
H54   N46   S    
Br13  C117  S    
C45   C51   S    
C134  H74   S    
H19   N28   S    
H153  N15   S    
C13   C98   S    
C139  C143  S    
C98   C102  T    
C3    N30   S    
O34   Zn8   S    
C155  C164  T    
H64   N50   S    
C50   N43   S    
C161  O26   A    
C153  C162  T    
C9    C39   S    
C59   O42   A    
H138  N8    S    
H110  N23   S    
C49   N36   S    
Br15  C119  S    
C93   C125  T    
C117  C130  S    
C58   C136  S    
H66   N51   S    
C13   C67   S    
H159  N18   S    
H32   N35   S    
C40   O2    A    
C115  C128  S    
H107  N1    S    
C7    N21   S    
H8    N22   S    
O37   Zn6   S    
C66   N53   S    
H133  N5    S    
C30   C43   S    
C30   N31   S    
C131  H70   S    
H143  N10   S    
C65   C158  S    
C42   O30   A    
H29   N32   S    
C60   O35   A    
C56   O40   A    
O23   Zn3   S    
C4    C5    S    
C10   C42   S    
C105  C127  S    
H14   N25   S    
C97   C101  T    
C6    C7    S    
C35   H1    S    
H37   N37   S    
C166  C167  S    
H17   N27   S    
O51   Zn11  S    
C32   H90   S    
H105  N1    S    
C107  C133  S    
O14   Zn5   S    
C168  N17   S    
O46   Zn9   S    
C81   O15   A    
C166  N27   S    
C73   H82   S    
H26   N31   S    
H145  N11   S    
C103  O17   A    
C118  H150  S    
C50   C51   S    
C116  H128  S    
C105  N9    S    
C167  N14   S    
H124  N56   S    
C126  C152  T    
C78   C83   S    
H49   N42   S    
C40   O28   A    
C82   C95   S    
Br31  C83   S    
C68   H95   S    
O39   Zn8   S    
C34   C159  S    
C64   O48   A    
C47   C50   S    
C74   N49   S    
C19   N26   S    
H113  N34   S    
H56   N47   S    
C122  C149  T    
C24   C99   S    
C105  C131  S    
C106  C132  S    
C56   O31   A    
Br32  C84   S    
Br29  C72   S    
C111  O11   A    
O26   Zn15  S    
H121  N55   S    
C167  N28   S    
C24   C69   S    
C79   C84   S    
O23   Zn14  S    
C79   C93   S    
C119  H2    S    
C12   C166  S    
Br24  C5    S    
C36   C53   T    
C17   H76   S    
C1    O14   A    
C133  N23   S    
O8    Zn15  S    
C154  C163  T    
C87   H97   S    
H154  N16   S    
C116  C129  S    
C160  O25   A    
C88   H102  S    
H108  N12   S    
C111  O20   A    
O50   Zn10  S    
O34   Zn15  S    
H4    N20   S    
Br22  C4    S    
C139  C152  S    
H137  N7    S    
C108  C130  S    
C64   C104  S    
H3    N19   S    
C30   H88   S    
C38   C55   T    
C103  C122  S    
O22   Zn12  S    
C27   C44   S    
C61   O44   A    
H69   N52   S    
C128  C154  S    
H42   N39   S    
C119  C137  S    
Br38  C57   S    
H51   N43   S    
C61   C100  S    
O9    Zn16  S    
C10   C23   T    
C41   O3    A    
C19   H78   S    
O12   Zn9   S    
H27   N31   S    
O34   Zn4   S    
C112  C165  S    
H28   N32   S    
O32   Zn13  S    
H118  N53   S    
C141  C145  S    
H43   N40   S    
C148  H68   S    
C26   H85   S    
C112  O13   A    
C81   C124  S    
C131  C135  S    
C61   O36   A    
C157  O22   A    
C82   C86   S    
Br35  C86   S    
C2    C71   S    
O35   Zn15  S    
C121  H24   S    
C48   N37   S    
C159  O49   A    
H33   N35   S    
C16   C23   S    
H34   N36   S    
C75   H93   S    
H60   N48   S    
C74   C78   S    
Br11  C116  S    
C166  N15   S    
C13   C72   S    
H52   N44   S    
O3    Zn7   S    
C5    C14   S    
C6    N20   S    
O1    Zn5   S    
C32   N33   S    
C63   C102  S    
C39   O27   A    
Br20  C142  S    
C168  N29   S    
C64   O39   A    
Br21  C143  S    
Br40  C83   S    
C70   C74   S    
C128  C145  S    
C60   O43   A    
C62   O46   A    
C49   N40   S    
C68   C82   S    
O29   Zn3   S    
C135  C149  S    
Br3   C85   S    
H53   N44   S    
H7    N21   S    
O1    Zn12  S    
H144  N10   S    
C57   H84   S    
C8    C40   S    
C57   C80   S    
H140  N8    S    
H130  N4    S    
Br12  C66   S    
C138  C151  S    
C8    C21   T    
H152  N15   S    
C90   H100  S    
O43   Zn4   S    
C134  C139  S    
O12   Zn6   S    
C144  H35   S    
C77   N52   S    
C146  N3    S    
C58   O41   A    
C113  H106  S    
Br9   C113  S    
C3    C16   S    
C117  H139  S    
C14   C167  S    
O38   Zn7   S    
Br34  C69   S    
C7    C16   S    
C71   C75   S    
O16   Zn7   S    
Br25  C6    S    
C92   O7    A    
H11   N24   S    
C107  C129  S    
