data_mof_unit_38029.cif
_audit_creation_date              2012-10-26T18:43:49-0400
_audit_creation_method            fapswitch 2.2
_symmetry_space_group_name_H-M    P1
_symmetry_Int_Tables_number       1
_space_group_crystal_system       triclinic
_cell_length_a                    9.562919
_cell_length_b                    10.892136
_cell_length_c                    17.335419
_cell_angle_alpha                 90.770456
_cell_angle_beta                  85.678067
_cell_angle_gamma                 90.160339
_cell_volume                      1800.36754924

loop_
_atom_site_label
_atom_site_type_symbol
_atom_type_description
_atom_site_fract_x
_atom_site_fract_y
_atom_site_fract_z
_atom_type_partial_charge
C1    C     C_R   0.500411 0.737458 0.502798 0.584340
C2    C     C_R   0.527447 0.521853 0.266203 0.015909
C3    C     C_R   0.384827 0.935438 0.487685 -0.109820
C4    C     C_R   0.481299 0.499386 0.649884 0.549861
C5    C     C_R   0.503959 0.870808 0.503903 -0.005088
C6    C     C_R   0.628000 0.936760 0.516536 0.255572
C7    C     C_R   0.624026 0.065567 0.520614 0.247834
C8    C     C_R   0.502648 0.129073 0.501036 -0.030699
C9    C     C_R   0.385836 0.061598 0.481049 -0.052204
C10   C     C_3   0.234952 0.069281 0.513689 0.573809
C11   C     C_3   0.239864 0.930499 0.526593 0.220618
C12   C     C_R   0.340578 0.517717 0.776170 -0.121643
C13   C     C_R   0.935557 0.491515 0.432231 0.151280
C14   C     C_R   0.916890 0.512162 0.566921 -0.014386
C15   C     C_R   0.064866 0.509925 0.567023 -0.040304
C16   C     C_R   0.500024 0.262506 0.500940 0.576270
C17   C     C_R   0.083263 0.494670 0.432039 0.145657
C18   C     C_3   0.099257 0.392327 0.374557 -0.275176
C19   C     C_3   0.941192 0.384646 0.377247 -0.270291
C20   C     C_R   0.518451 0.505154 0.350185 0.529969
C21   C     C_R   0.470445 0.498854 0.734407 0.024900
C22   C     C_R   0.590874 0.480052 0.774067 -0.135278
C23   C     C_R   0.412080 0.564564 0.149915 -0.112575
C24   C     C_R   0.582400 0.483014 0.854299 -0.108940
C25   C     C_R   0.453401 0.506076 0.896055 0.044526
C26   C     C_R   0.332191 0.520713 0.856665 -0.115574
C27   C     C_3   0.845686 0.875598 0.470903 -0.096809
C28   C     C_3   0.714133 0.144613 0.627843 -0.088182
C29   C     C_3   0.084496 0.162062 0.609820 -0.027767
C30   C     C_3   0.166515 0.066144 0.383101 -0.194802
C31   C     C_3   0.134079 0.823538 0.629827 -0.125081
C32   C     C_R   0.405996 0.550500 0.229514 -0.137506
C33   C     C_R   0.656531 0.514739 0.222336 -0.133844
C34   C     C_R   0.662743 0.528531 0.142456 -0.118683
C35   C     C_R   0.539987 0.549774 0.105641 0.043747
C36   C     C_2   0.442059 0.512390 0.980781 -0.135485
C37   C     C_2   0.547869 0.552869 0.020942 -0.136066
Cu1   Cu    Cu3+1 0.359330 0.500020 0.500000 0.953569
Cu2   Cu    Cu3+1 0.640670 0.499980 0.500000 0.971830
H1    H     H_    0.111406 0.516409 0.621729 0.105725
H2    H     H_    0.676595 0.465758 0.883281 0.097373
H3    H     H_    0.691748 0.462645 0.743220 0.105935
H4    H     H_    0.762794 0.519381 0.109164 0.095144
H5    H     H_    0.799101 0.841981 0.417486 0.101478
H6    H     H_    0.931330 0.811403 0.482120 0.119290
H7    H     H_    0.892212 0.968205 0.461447 0.177150
H8    H     H_    0.610444 0.187460 0.644724 0.125851
H9    H     H_    0.723553 0.055829 0.657958 0.140072
H10   H     H_    0.794889 0.208068 0.648043 0.098920
H11   H     H_    0.018725 0.077989 0.608059 0.146406
H12   H     H_    0.306221 0.563418 0.262240 0.116129
H13   H     H_    0.040143 0.235533 0.575141 0.170727
H14   H     H_    0.081030 0.195005 0.670745 0.097215
H15   H     H_    0.261197 0.113195 0.356588 0.124060
H16   H     H_    0.077474 0.091424 0.349062 0.134960
H17   H     H_    0.178470 0.965077 0.377900 0.090597
H18   H     H_    0.146936 0.733906 0.599485 0.138127
H19   H     H_    0.030565 0.864090 0.619750 0.123766
H20   H     H_    0.136702 0.807411 0.692735 0.135890
H21   H     H_    0.167858 0.874109 0.492907 0.064678
H22   H     H_    0.855681 0.521836 0.621501 0.116633
H23   H     H_    0.150163 0.311880 0.398376 0.207084
H24   H     H_    0.147010 0.422547 0.317655 0.108818
H25   H     H_    0.752307 0.497894 0.249332 0.111344
H26   H     H_    0.316765 0.587333 0.123395 0.097910
H27   H     H_    0.900522 0.406234 0.321005 0.108773
H28   H     H_    0.898139 0.299161 0.404367 0.182851
H29   H     H_    0.646004 0.582335 0.991229 0.113554
H30   H     H_    0.231597 0.536751 0.888213 0.095045
H31   H     H_    0.246008 0.531737 0.746804 0.107916
H32   H     H_    0.343879 0.482792 0.010370 0.113166
N1    N     N_R   0.852130 0.499070 0.499500 -0.223548
N2    N     N_R   0.148040 0.499110 0.499500 -0.231112
O1    O     O_R   0.381190 0.680360 0.500000 -0.509701
O2    O     O_3   0.737656 0.128051 0.546959 -0.547270
O3    O     O_3   0.225344 0.139413 0.583647 -0.515474
O4    O     O_3   0.135582 0.106536 0.460573 -0.603566
O5    O     O_3   0.245296 0.902370 0.605941 -0.540578
O6    O     O_R   0.618770 0.680320 0.499990 -0.460433
O7    O     O_R   0.367430 0.500040 0.613600 -0.514330
O8    O     O_R   0.605020 0.500000 0.613590 -0.521322
O9    O     O_R   0.381230 0.319680 0.500010 -0.461972
O10   O     O_R   0.618810 0.319640 0.500000 -0.464683
O11   O     O_R   0.394980 0.500000 0.386410 -0.519722
O12   O     O_R   0.632570 0.499960 0.386400 -0.517995
O13   O     O_3   0.747320 0.876298 0.535763 -0.544374

loop_
_geom_bond_atom_site_label_1
_geom_bond_atom_site_label_2
_ccdc_geom_bond_type
C28   H8    S    
C7    C8    A    
C29   O3    S    
C22   H3    S    
C30   H15   S    
Cu1   O7    S    
C1    C5    S    
C1    O1    A    
C31   H19   S    
C36   C37   D    
C35   C37   S    
C4    O7    A    
Cu1   Cu2   S    
C18   H24   S    
C37   H29   S    
C19   H27   S    
C2    C32   A    
C34   C35   A    
C31   H20   S    
C30   O4    S    
C10   O3    S    
C27   H5    S    
C4    O8    A    
C8    C9    A    
Cu2   N1    S    
C19   H28   S    
C9    C10   S    
C36   H32   S    
C27   H6    S    
C8    C16   S    
C21   C22   A    
Cu1   O9    S    
C17   N2    A    
C24   H2    S    
C10   O4    S    
C33   C34   A    
C29   H11   S    
C13   C19   S    
C2    C20   S    
C24   C25   A    
Cu2   O8    S    
C18   C19   S    
C7    O2    S    
C25   C26   A    
C14   H22   S    
C30   H17   S    
C12   C21   A    
C16   O10   A    
C12   C26   A    
Cu2   O6    S    
C27   O13   S    
C32   H12   S    
C3    C9    A    
C11   O5    S    
C28   H10   S    
C20   O12   A    
C16   O9    A    
C17   C18   S    
C2    C33   A    
C15   N2    A    
C23   C35   A    
C20   O11   A    
C1    O6    A    
C22   C24   A    
Cu2   O12   S    
C11   H21   S    
C27   H7    S    
C31   O5    S    
Cu1   O1    S    
C12   H31   S    
C28   H9    S    
Cu1   O11   S    
C14   N1    A    
C18   H23   S    
C34   H4    S    
C3    C5    A    
C6    C7    A    
C13   N1    A    
C30   H16   S    
C6    O13   S    
C13   C17   A    
C23   C32   A    
C23   H26   S    
Cu2   O10   S    
C4    C21   S    
C31   H18   S    
C5    C6    A    
C29   H14   S    
C33   H25   S    
C15   H1    S    
C3    C11   S    
C10   C11   S    
C25   C36   S    
C26   H30   S    
C14   C15   A    
C28   O2    S    
C29   H13   S    
Cu1   N2    S    
