data_mof_unit_50476.cif
_audit_creation_date              2012-10-26T19:45:30-0400
_audit_creation_method            fapswitch 2.2
_symmetry_space_group_name_H-M    P1
_symmetry_Int_Tables_number       1
_space_group_crystal_system       triclinic
_cell_length_a                    10.832704
_cell_length_b                    9.515545
_cell_length_c                    10.734417
_cell_angle_alpha                 90.000934
_cell_angle_beta                  90.147058
_cell_angle_gamma                 89.999436
_cell_volume                      1106.49020948

loop_
_atom_site_label
_atom_site_type_symbol
_atom_type_description
_atom_site_fract_x
_atom_site_fract_y
_atom_site_fract_z
_atom_type_partial_charge
C1    C     C_R   0.262071 0.500002 0.499911 0.546093
C2    C     C_R   0.427004 0.925570 0.418963 0.007254
C3    C     C_R   0.573054 0.925570 0.581101 0.007269
C4    C     C_R   0.573041 0.074433 0.581113 0.006853
C5    C     C_R   0.499923 0.499787 0.259713 0.545315
C6    C     C_R   0.737936 0.500001 0.500087 0.545986
C7    C     C_R   0.500022 0.499790 0.740289 0.545336
C8    C     C_3   0.383563 0.575416 0.071597 -0.236493
C9    C     C_3   0.499623 0.345915 0.071317 -0.231632
C10   C     C_3   0.383596 0.575412 0.927789 -0.233187
C11   C     C_3   0.499687 0.345918 0.928677 -0.231595
C12   C     C_3   0.616641 0.574833 0.928406 -0.236488
C13   C     C_3   0.616611 0.574821 0.072215 -0.233175
C14   C     C_3   0.499929 0.499023 0.121783 0.050315
C15   C     C_3   0.499987 0.499028 0.878218 0.050298
C16   C     C_R   0.063864 0.372296 0.499932 -0.146124
C17   C     C_R   0.063862 0.627716 0.499935 -0.146262
C18   C     C_R   0.936154 0.372296 0.500064 -0.146104
C19   C     C_R   0.936151 0.627716 0.500066 -0.146237
C20   C     C_R   0.871783 0.500005 0.500100 0.016189
C21   C     C_R   0.128228 0.500005 0.499899 0.016193
C22   C     C_R   0.427018 0.074431 0.418951 0.006834
Cu1   Cu    Cu3+1 0.500020 0.640660 0.500000 0.917289
Cu2   Cu    Cu3+1 0.500020 0.359340 0.500000 0.916730
H1    H     H_    0.381297 0.685781 0.105897 0.119748
H2    H     H_    0.582550 0.288275 0.894806 0.117984
H3    H     H_    0.619289 0.685170 0.106516 0.127226
H4    H     H_    0.701183 0.521244 0.107265 0.109939
H5    H     H_    0.619333 0.685186 0.894107 0.119677
H6    H     H_    0.701227 0.521260 0.893814 0.107259
H7    H     H_    0.111898 0.272447 0.499869 0.125777
H8    H     H_    0.111896 0.727564 0.499873 0.125738
H9    H     H_    0.888126 0.272444 0.500125 0.125826
H10   H     H_    0.888119 0.727567 0.500129 0.125787
H11   H     H_    0.368450 0.130563 0.354091 0.101219
H12   H     H_    0.582449 0.288255 0.105654 0.126936
H13   H     H_    0.368411 0.869439 0.354125 0.101494
H14   H     H_    0.631648 0.869438 0.645938 0.101510
H15   H     H_    0.631610 0.130566 0.645971 0.101228
H16   H     H_    0.298770 0.522270 0.106188 0.107239
H17   H     H_    0.416531 0.288706 0.105193 0.117861
H18   H     H_    0.298816 0.522275 0.892729 0.109922
H19   H     H_    0.416628 0.288694 0.894327 0.126839
H20   H     H_    0.381351 0.685777 0.893506 0.127275
N1    N     N_R   0.500030 0.852070 0.500030 -0.222739
N2    N     N_R   0.500030 0.147930 0.500030 -0.222677
O1    O     O_R   0.319660 0.618740 0.499990 -0.508261
O2    O     O_R   0.319660 0.381260 0.499990 -0.508030
O3    O     O_R   0.499990 0.618790 0.317690 -0.509139
O4    O     O_R   0.499990 0.381210 0.317690 -0.510421
O5    O     O_R   0.680370 0.618830 0.500010 -0.508282
O6    O     O_R   0.680370 0.381170 0.500010 -0.508047
O7    O     O_R   0.500030 0.618780 0.682310 -0.509131
O8    O     O_R   0.500030 0.381220 0.682310 -0.510412

loop_
_geom_bond_atom_site_label_1
_geom_bond_atom_site_label_2
_ccdc_geom_bond_type
C2    C22   A    
C9    H12   S    
C9    C14   S    
C4    H15   S    
C13   H4    S    
C1    C21   S    
C16   C21   A    
Cu1   N1    S    
C12   H5    S    
C10   H18   S    
C9    H17   S    
C6    C20   S    
Cu1   O5    S    
C19   C20   A    
C7    O8    A    
C12   C15   S    
Cu1   Cu2   S    
Cu2   N2    S    
C7    C15   S    
C1    O2    A    
C4    N2    A    
C13   C14   S    
C16   H7    S    
C11   H19   S    
C8    H1    S    
C9    C11   S    
C2    H13   S    
C5    O3    A    
C5    C14   S    
C11   C15   S    
C8    C10   S    
C17   C19   A    
Cu1   O7    S    
C18   C20   A    
C10   C15   S    
C2    N1    A    
Cu2   O4    S    
C6    O5    A    
C18   H9    S    
C5    O4    A    
Cu1   O3    S    
Cu1   O1    S    
C7    O7    A    
C10   H20   S    
C3    C4    A    
C22   N2    A    
C6    O6    A    
C12   C13   S    
C16   C18   A    
C17   H8    S    
C13   H3    S    
C8    C14   S    
Cu2   O6    S    
C8    H16   S    
C11   H2    S    
C12   H6    S    
C22   H11   S    
Cu2   O8    S    
C3    N1    A    
C17   C21   A    
C3    H14   S    
C1    O1    A    
C19   H10   S    
Cu2   O2    S    
